CHEMBL4868797
     RDKit          3D

  0  0  0  0  0  0  0  0  0  0999 V3000
M  V30 BEGIN CTAB
M  V30 COUNTS 64 68 0 0 0
M  V30 BEGIN ATOM
M  V30 1 C 7.130811 -3.477311 1.044769 0
M  V30 2 N 6.092709 -2.485790 1.250217 0
M  V30 3 C 6.019934 -1.378725 0.498496 0
M  V30 4 C 4.921622 -0.669435 0.967310 0
M  V30 5 C 4.403512 0.577283 0.515558 0
M  V30 6 C 4.830205 1.454365 -0.513947 0
M  V30 7 C 4.087949 2.589764 -0.681413 0
M  V30 8 N 4.334482 3.537303 -1.600222 0
M  V30 9 C 3.574654 4.611746 -1.706611 0
M  V30 10 N 2.485074 4.901877 -0.939471 0
M  V30 11 C 2.217257 3.952621 -0.000442 0
M  V30 12 N 1.124564 4.062350 0.901803 0
M  V30 13 C -0.154095 3.512445 0.546874 0
M  V30 14 C -1.258247 3.580317 1.390899 0
M  V30 15 C -2.442349 3.030874 0.979389 0
M  V30 16 C -2.609341 2.406685 -0.235736 0
M  V30 17 C -3.970060 1.850315 -0.546144 0
M  V30 18 C -3.943984 0.433445 -0.038387 0
M  V30 19 O -2.784583 0.247976 0.458173 0
M  V30 20 N -4.934806 -0.563860 -0.056557 0
M  V30 21 C -4.405267 -1.734311 0.551074 0
M  V30 22 C -3.749562 -2.680878 -0.209715 0
M  V30 23 C -3.357484 -3.688514 0.666116 0
M  V30 24 C -2.616578 -4.897434 0.225643 0
M  V30 25 C -3.543976 -6.035515 -0.165311 0
M  V30 26 C -1.817376 -4.552782 -1.036672 0
M  V30 27 C -1.682830 -5.387948 1.313291 0
M  V30 28 N -3.791899 -3.294739 1.873450 0
M  V30 29 N -4.415715 -2.139969 1.831300 0
M  V30 30 C -5.016118 -1.404035 2.923988 0
M  V30 31 C -1.534973 2.327463 -1.085103 0
M  V30 32 C -0.321561 2.879819 -0.685739 0
M  V30 33 C 3.011468 2.818507 0.119042 0
M  V30 34 S 2.887592 1.466629 1.225422 0
M  V30 35 C 4.359734 -1.384382 2.002995 0
M  V30 36 N 5.110139 -2.502795 2.150675 0
M  V30 37 H 7.421720 -3.518959 -0.012024 0
M  V30 38 H 6.782864 -4.498981 1.355143 0
M  V30 39 H 7.992876 -3.244822 1.728539 0
M  V30 40 H 6.589305 -0.965291 -0.321175 0
M  V30 41 H 5.701846 1.118516 -1.050880 0
M  V30 42 H 3.803589 5.358075 -2.461588 0
M  V30 43 H 1.192731 4.528210 1.829286 0
M  V30 44 H -1.083158 4.075590 2.327356 0
M  V30 45 H -3.272035 3.107937 1.669354 0
M  V30 46 H -4.088872 1.880926 -1.637125 0
M  V30 47 H -4.735818 2.410279 0.012640 0
M  V30 48 H -5.812663 -0.224310 -0.501740 0
M  V30 49 H -3.557601 -2.673534 -1.289632 0
M  V30 50 H -2.973393 -6.673184 -0.882552 0
M  V30 51 H -4.364807 -5.563210 -0.776591 0
M  V30 52 H -3.954099 -6.585918 0.682014 0
M  V30 53 H -2.588548 -4.496242 -1.849133 0
M  V30 54 H -1.086677 -5.333441 -1.240729 0
M  V30 55 H -1.397346 -3.520976 -0.952757 0
M  V30 56 H -0.894589 -6.044787 0.863596 0
M  V30 57 H -1.148683 -4.574225 1.825182 0
M  V30 58 H -2.267124 -5.962386 2.053652 0
M  V30 59 H -4.426517 -1.487083 3.858175 0
M  V30 60 H -6.040602 -1.812927 3.136468 0
M  V30 61 H -5.156984 -0.347578 2.626268 0
M  V30 62 H -1.665741 1.839151 -2.035742 0
M  V30 63 H 0.519319 2.804752 -1.377558 0
M  V30 64 H 3.480569 -1.144320 2.620250 0
M  V30 END ATOM
M  V30 BEGIN BOND
M  V30 1 1 1 2
M  V30 2 1 2 3
M  V30 3 2 3 4
M  V30 4 1 4 5
M  V30 5 2 5 6
M  V30 6 1 6 7
M  V30 7 2 7 8
M  V30 8 1 8 9
M  V30 9 2 9 10
M  V30 10 1 10 11
M  V30 11 1 11 12
M  V30 12 1 12 13
M  V30 13 2 13 14
M  V30 14 1 14 15
M  V30 15 2 15 16
M  V30 16 1 16 17
M  V30 17 1 17 18
M  V30 18 2 18 19
M  V30 19 1 18 20
M  V30 20 1 20 21
M  V30 21 2 21 22
M  V30 22 1 22 23
M  V30 23 1 23 24
M  V30 24 1 24 25
M  V30 25 1 24 26
M  V30 26 1 24 27
M  V30 27 2 23 28
M  V30 28 1 28 29
M  V30 29 1 29 30
M  V30 30 1 16 31
M  V30 31 2 31 32
M  V30 32 2 11 33
M  V30 33 1 33 34
M  V30 34 1 4 35
M  V30 35 2 35 36
M  V30 36 1 36 2
M  V30 37 1 34 5
M  V30 38 1 33 7
M  V30 39 1 32 13
M  V30 40 1 29 21
M  V30 41 1 1 37
M  V30 42 1 1 38
M  V30 43 1 1 39
M  V30 44 1 3 40
M  V30 45 1 6 41
M  V30 46 1 9 42
M  V30 47 1 12 43
M  V30 48 1 14 44
M  V30 49 1 15 45
M  V30 50 1 17 46
M  V30 51 1 17 47
M  V30 52 1 20 48
M  V30 53 1 22 49
M  V30 54 1 25 50
M  V30 55 1 25 51
M  V30 56 1 25 52
M  V30 57 1 26 53
M  V30 58 1 26 54
M  V30 59 1 26 55
M  V30 60 1 27 56
M  V30 61 1 27 57
M  V30 62 1 27 58
M  V30 63 1 30 59
M  V30 64 1 30 60
M  V30 65 1 30 61
M  V30 66 1 31 62
M  V30 67 1 32 63
M  V30 68 1 35 64
M  V30 END BOND
M  V30 END CTAB
M  END
>  <Dataset>  (1) 
ChEMBL_Kinases

>  <Ligand_Instance>  (1) 
nan

>  <PDB_ID>  (1) 
nan

>  <Standardized_SMILES>  (1) 
Cn1cc(-c2cc3ncnc(Nc4ccc(CC(=O)Nc5cc(C(C)(C)C)nn5C)cc4)c3s2)cn1

>  <Name>  (1) 
nan

>  <Pocket>  (1) 
nan

>  <ATP_Site>  (1) 
nan

>  <Peripheral>  (1) 
nan

>  <Num_H_Atoms_ProtBoundConf>  (1) 
nan

>  <Num_Resolved_Atoms>  (1) 
nan

>  <Num_Not_Resolved_Atoms>  (1) 
nan

$$$$
CHEMBL4853079
     RDKit          3D

  0  0  0  0  0  0  0  0  0  0999 V3000
M  V30 BEGIN CTAB
M  V30 COUNTS 48 50 0 0 0
M  V30 BEGIN ATOM
M  V30 1 N 2.496151 -4.464168 4.464381 0
M  V30 2 C 2.409941 -3.528679 3.778928 0
M  V30 3 C 2.300556 -2.388735 2.947607 0
M  V30 4 C 3.435754 -1.692736 2.611969 0
M  V30 5 N 3.376830 -0.605606 1.825961 0
M  V30 6 C 2.193715 -0.148293 1.329981 0
M  V30 7 N 2.130914 1.006240 0.496097 0
M  V30 8 C 0.861952 1.503988 -0.040926 0
M  V30 9 C 0.996962 2.715128 -0.846468 0
M  V30 10 C 0.963236 2.652761 -2.243242 0
M  V30 11 N 1.088670 3.719239 -3.021755 0
M  V30 12 C 1.258068 4.939256 -2.501227 0
M  V30 13 C 1.291338 5.002158 -1.124585 0
M  V30 14 C 1.169632 3.947073 -0.215329 0
M  V30 15 C 1.213538 4.141141 1.231551 0
M  V30 16 F 2.222881 3.462737 1.881369 0
M  V30 17 F 1.514073 5.494791 1.447833 0
M  V30 18 F -0.008861 3.966508 1.849232 0
M  V30 19 C 1.080375 -0.866656 1.684824 0
M  V30 20 C 1.046112 -1.987676 2.481337 0
M  V30 21 N -0.125299 -2.697868 2.836468 0
M  V30 22 C -1.500407 -2.514923 2.499778 0
M  V30 23 C -1.838437 -2.740987 1.069294 0
M  V30 24 C -1.505859 -4.165379 0.614863 0
M  V30 25 C -1.788693 -4.182586 -0.872909 0
M  V30 26 O -3.133061 -4.052648 -1.104650 0
M  V30 27 C -3.890641 -3.749160 0.012613 0
M  V30 28 C -3.334620 -2.620793 0.833908 0
M  V30 29 H 4.384853 -2.039130 2.995762 0
M  V30 30 H 3.049535 1.482813 0.282244 0
M  V30 31 H 0.080294 1.559096 0.751859 0
M  V30 32 H 0.511914 0.677617 -0.704275 0
M  V30 33 H 0.826994 1.685224 -2.749897 0
M  V30 34 H 1.368295 5.855901 -3.063682 0
M  V30 35 H 1.428968 5.987489 -0.668770 0
M  V30 36 H 0.171699 -0.477435 1.286167 0
M  V30 37 H 0.030592 -3.535015 3.477983 0
M  V30 38 H -2.195877 -3.060229 3.136425 0
M  V30 39 H -1.724147 -1.420825 2.710175 0
M  V30 40 H -1.363692 -2.023579 0.415186 0
M  V30 41 H -2.186472 -4.887094 1.097898 0
M  V30 42 H -0.487045 -4.450760 0.871254 0
M  V30 43 H -1.276485 -3.285756 -1.283962 0
M  V30 44 H -1.329223 -5.056957 -1.373419 0
M  V30 45 H -4.155435 -4.639198 0.620376 0
M  V30 46 H -4.885808 -3.392933 -0.384701 0
M  V30 47 H -3.835635 -2.622415 1.815952 0
M  V30 48 H -3.594117 -1.668153 0.335248 0
M  V30 END ATOM
M  V30 BEGIN BOND
M  V30 1 3 1 2
M  V30 2 1 2 3
M  V30 3 2 3 4
M  V30 4 1 4 5
M  V30 5 2 5 6
M  V30 6 1 6 7
M  V30 7 1 7 8
M  V30 8 1 8 9
M  V30 9 2 9 10
M  V30 10 1 10 11
M  V30 11 2 11 12
M  V30 12 1 12 13
M  V30 13 2 13 14
M  V30 14 1 14 15
M  V30 15 1 15 16
M  V30 16 1 15 17
M  V30 17 1 15 18
M  V30 18 1 6 19
M  V30 19 2 19 20
M  V30 20 1 20 21
M  V30 21 1 21 22
M  V30 22 1 22 23
M  V30 23 1 23 24
M  V30 24 1 24 25
M  V30 25 1 25 26
M  V30 26 1 26 27
M  V30 27 1 27 28
M  V30 28 1 20 3
M  V30 29 1 28 23
M  V30 30 1 14 9
M  V30 31 1 4 29
M  V30 32 1 7 30
M  V30 33 1 8 31
M  V30 34 1 8 32
M  V30 35 1 10 33
M  V30 36 1 12 34
M  V30 37 1 13 35
M  V30 38 1 19 36
M  V30 39 1 21 37
M  V30 40 1 22 38
M  V30 41 1 22 39
M  V30 42 1 23 40
M  V30 43 1 24 41
M  V30 44 1 24 42
M  V30 45 1 25 43
M  V30 46 1 25 44
M  V30 47 1 27 45
M  V30 48 1 27 46
M  V30 49 1 28 47
M  V30 50 1 28 48
M  V30 END BOND
M  V30 END CTAB
M  END
>  <Dataset>  (2) 
ChEMBL_Kinases

>  <Ligand_Instance>  (2) 
nan

>  <PDB_ID>  (2) 
nan

>  <Standardized_SMILES>  (2) 
N#Cc1cnc(NCc2cnccc2C(F)(F)F)cc1NCC1CCOCC1

>  <Name>  (2) 
nan

>  <Pocket>  (2) 
nan

>  <ATP_Site>  (2) 
nan

>  <Peripheral>  (2) 
nan

>  <Num_H_Atoms_ProtBoundConf>  (2) 
nan

>  <Num_Resolved_Atoms>  (2) 
nan

>  <Num_Not_Resolved_Atoms>  (2) 
nan

$$$$
CHEMBL1517718
     RDKit          3D

  0  0  0  0  0  0  0  0  0  0999 V3000
M  V30 BEGIN CTAB
M  V30 COUNTS 37 40 0 0 0
M  V30 BEGIN ATOM
M  V30 1 O -2.524326 -4.146942 1.330884 0
M  V30 2 C -1.597387 -3.883068 0.541146 0
M  V30 3 C -1.090285 -4.889249 -0.217366 0
M  V30 4 N -0.077105 -4.592895 -1.078626 0
M  V30 5 C 0.417437 -3.351035 -1.187998 0
M  V30 6 C 1.440740 -3.061761 -2.062390 0
M  V30 7 N 1.875148 -1.801009 -2.112131 0
M  V30 8 C 1.413976 -0.777492 -1.392012 0
M  V30 9 N 1.992520 0.504850 -1.565997 0
M  V30 10 C 1.637215 1.714244 -0.928756 0
M  V30 11 C 2.344009 2.874818 -1.158211 0
M  V30 12 C 2.052553 4.085405 -0.576191 0
M  V30 13 C 0.994817 4.190462 0.298641 0
M  V30 14 C 0.252617 3.061648 0.565287 0
M  V30 15 C 0.596910 1.899113 -0.045082 0
M  V30 16 N 0.418878 -1.099515 -0.552935 0
M  V30 17 C -0.090764 -2.330556 -0.424405 0
M  V30 18 N -1.089404 -2.624378 0.424399 0
M  V30 19 C -1.678689 -1.606372 1.273808 0
M  V30 20 C -1.023938 -1.499262 2.566169 0
M  V30 21 C -1.161109 -2.078134 3.824626 0
M  V30 22 C -0.338756 -1.716901 4.842211 0
M  V30 23 C 0.657662 -0.727621 4.556184 0
M  V30 24 S 0.425365 -0.307286 2.829820 0
M  V30 25 H -1.477562 -5.897064 -0.141657 0
M  V30 26 H 1.886648 -3.840977 -2.698945 0
M  V30 27 H 2.784214 0.580419 -2.250125 0
M  V30 28 H 3.197464 2.877313 -1.839659 0
M  V30 29 H 2.642302 4.961736 -0.794173 0
M  V30 30 H 0.801711 5.159065 0.732705 0
M  V30 31 H -0.562859 3.170517 1.246973 0
M  V30 32 H -0.029406 1.057384 0.208751 0
M  V30 33 H -1.660609 -0.608293 0.743255 0
M  V30 34 H -2.750770 -1.855120 1.434914 0
M  V30 35 H -1.964508 -2.794481 3.832644 0
M  V30 36 H -0.467119 -2.182004 5.809090 0
M  V30 37 H 1.350056 -0.421984 5.408123 0
M  V30 END ATOM
M  V30 BEGIN BOND
M  V30 1 2 1 2
M  V30 2 1 2 3
M  V30 3 2 3 4
M  V30 4 1 4 5
M  V30 5 2 5 6
M  V30 6 1 6 7
M  V30 7 2 7 8
M  V30 8 1 8 9
M  V30 9 1 9 10
M  V30 10 2 10 11
M  V30 11 1 11 12
M  V30 12 2 12 13
M  V30 13 1 13 14
M  V30 14 2 14 15
M  V30 15 1 8 16
M  V30 16 2 16 17
M  V30 17 1 17 18
M  V30 18 1 18 19
M  V30 19 1 19 20
M  V30 20 2 20 21
M  V30 21 1 21 22
M  V30 22 2 22 23
M  V30 23 1 23 24
M  V30 24 1 18 2
M  V30 25 1 24 20
M  V30 26 1 17 5
M  V30 27 1 15 10
M  V30 28 1 3 25
M  V30 29 1 6 26
M  V30 30 1 9 27
M  V30 31 1 11 28
M  V30 32 1 12 29
M  V30 33 1 13 30
M  V30 34 1 14 31
M  V30 35 1 15 32
M  V30 36 1 19 33
M  V30 37 1 19 34
M  V30 38 1 21 35
M  V30 39 1 22 36
M  V30 40 1 23 37
M  V30 END BOND
M  V30 END CTAB
M  END
>  <Dataset>  (3) 
ChEMBL_Kinases

>  <Ligand_Instance>  (3) 
nan

>  <PDB_ID>  (3) 
nan

>  <Standardized_SMILES>  (3) 
O=c1cnc2cnc(Nc3ccccc3)nc2n1Cc1cccs1

>  <Name>  (3) 
nan

>  <Pocket>  (3) 
nan

>  <ATP_Site>  (3) 
nan

>  <Peripheral>  (3) 
nan

>  <Num_H_Atoms_ProtBoundConf>  (3) 
nan

>  <Num_Resolved_Atoms>  (3) 
nan

>  <Num_Not_Resolved_Atoms>  (3) 
nan

$$$$
CHEMBL4855950
     RDKit          3D

  0  0  0  0  0  0  0  0  0  0999 V3000
M  V30 BEGIN CTAB
M  V30 COUNTS 43 46 0 0 0
M  V30 BEGIN ATOM
M  V30 1 O 3.595475 -3.086195 4.494849 0
M  V30 2 C 3.294692 -3.959022 3.638799 0
M  V30 3 O 3.832760 -5.223493 3.786548 0
M  V30 4 C 2.410115 -3.687275 2.511155 0
M  V30 5 C 2.109559 -4.692968 1.590257 0
M  V30 6 C 1.267320 -4.381683 0.542333 0
M  V30 7 C 0.726379 -3.128293 0.385234 0
M  V30 8 C 1.002716 -2.113780 1.275928 0
M  V30 9 C 1.848555 -2.442258 2.320544 0
M  V30 10 C 0.458372 -0.858653 1.114916 0
M  V30 11 C -0.383102 -0.540489 0.070840 0
M  V30 12 N -0.916946 0.766565 -0.069401 0
M  V30 13 C -0.577903 1.827114 0.830205 0 CFG=2
M  V30 14 C -1.420525 3.094096 0.604624 0
M  V30 15 C -0.857902 4.153263 1.499949 0
M  V30 16 C 0.257588 3.724385 2.386927 0
M  V30 17 N 1.325598 3.034369 1.693038 0
M  V30 18 C 0.846955 2.299084 0.550749 0
M  V30 19 C -0.634565 -1.570487 -0.791607 0
M  V30 20 C -1.454702 -1.382429 -1.868603 0
M  V30 21 C -1.780656 -2.344357 -2.804194 0
M  V30 22 N -1.234282 -3.579792 -2.630236 0
M  V30 23 C -0.410272 -3.813734 -1.570223 0
M  V30 24 C -0.110602 -2.827980 -0.660451 0
M  V30 25 H 4.084271 -5.625284 4.680258 0
M  V30 26 H 2.559248 -5.665957 1.754626 0
M  V30 27 H 1.096480 -5.211810 -0.107706 0
M  V30 28 H 2.085597 -1.671690 3.035777 0
M  V30 29 H 0.751287 -0.179342 1.882301 0
M  V30 30 H -1.568105 1.051553 -0.802014 0
M  V30 31 H -0.641517 1.587578 1.891132 0
M  V30 32 H -1.355797 3.344684 -0.471919 0
M  V30 33 H -2.483619 2.847154 0.782361 0
M  V30 34 H -1.704719 4.454200 2.184582 0
M  V30 35 H -0.643712 5.088756 0.930356 0
M  V30 36 H -0.103486 3.141189 3.249144 0
M  V30 37 H 0.728497 4.662633 2.784123 0
M  V30 38 H 2.167467 3.591151 1.522668 0
M  V30 39 H 1.451691 1.416298 0.319419 0
M  V30 40 H 0.776842 2.959255 -0.352594 0
M  V30 41 H -1.915707 -0.439598 -2.064434 0
M  V30 42 H -2.435659 -2.164547 -3.649791 0
M  V30 43 H -0.068721 -4.831594 -1.581681 0
M  V30 END ATOM
M  V30 BEGIN BOND
M  V30 1 2 1 2
M  V30 2 1 2 3
M  V30 3 1 2 4
M  V30 4 2 4 5
M  V30 5 1 5 6
M  V30 6 2 6 7
M  V30 7 1 7 8
M  V30 8 2 8 9
M  V30 9 1 8 10
M  V30 10 2 10 11
M  V30 11 1 11 12
M  V30 12 1 12 13
M  V30 13 1 13 14
M  V30 14 1 14 15
M  V30 15 1 15 16
M  V30 16 1 16 17
M  V30 17 1 17 18
M  V30 18 1 11 19
M  V30 19 2 19 20
M  V30 20 1 20 21
M  V30 21 2 21 22
M  V30 22 1 22 23
M  V30 23 2 23 24
M  V30 24 1 9 4
M  V30 25 1 18 13
M  V30 26 1 24 19
M  V30 27 1 24 7
M  V30 28 1 3 25
M  V30 29 1 5 26
M  V30 30 1 6 27
M  V30 31 1 9 28
M  V30 32 1 10 29
M  V30 33 1 12 30
M  V30 34 1 13 31 CFG=1
M  V30 35 1 14 32
M  V30 36 1 14 33
M  V30 37 1 15 34
M  V30 38 1 15 35
M  V30 39 1 16 36
M  V30 40 1 16 37
M  V30 41 1 17 38
M  V30 42 1 18 39
M  V30 43 1 18 40
M  V30 44 1 20 41
M  V30 45 1 21 42
M  V30 46 1 23 43
M  V30 END BOND
M  V30 END CTAB
M  END
>  <Dataset>  (4) 
ChEMBL_Kinases

>  <Ligand_Instance>  (4) 
nan

>  <PDB_ID>  (4) 
nan

>  <Standardized_SMILES>  (4) 
O=C(O)c1ccc2c(c1)cc(N[C@@H]1CCCNC1)c1ccncc12

>  <Name>  (4) 
nan

>  <Pocket>  (4) 
nan

>  <ATP_Site>  (4) 
nan

>  <Peripheral>  (4) 
nan

>  <Num_H_Atoms_ProtBoundConf>  (4) 
nan

>  <Num_Resolved_Atoms>  (4) 
nan

>  <Num_Not_Resolved_Atoms>  (4) 
nan

$$$$
CHEMBL1475902
     RDKit          3D

  0  0  0  0  0  0  0  0  0  0999 V3000
M  V30 BEGIN CTAB
M  V30 COUNTS 32 34 0 0 0
M  V30 BEGIN ATOM
M  V30 1 C 0.194977 -2.881118 4.638046 0
M  V30 2 N 0.175617 -2.202584 3.346098 0
M  V30 3 C -0.156210 -2.812350 2.102940 0
M  V30 4 N -0.467557 -4.119665 2.191693 0
M  V30 5 C -0.806318 -4.858531 1.121041 0
M  V30 6 N -0.839305 -4.271156 -0.109028 0
M  V30 7 C -0.535270 -2.959684 -0.255228 0
M  V30 8 C -0.547558 -2.299443 -1.467271 0
M  V30 9 C -0.221276 -0.951109 -1.523278 0
M  V30 10 C 0.123761 -0.228802 -0.381186 0
M  V30 11 C 0.448137 1.183445 -0.559341 0
M  V30 12 C 1.278416 1.485837 -1.613423 0
M  V30 13 C 1.599636 2.818251 -1.801870 0
M  V30 14 C 1.120949 3.840392 -0.978206 0
M  V30 15 C 0.293620 3.522105 0.069072 0
M  V30 16 C -0.036921 2.189599 0.269946 0
M  V30 17 C -0.902347 1.823838 1.359604 0
M  V30 18 N -1.613386 1.537361 2.226288 0
M  V30 19 C 0.138352 -0.881053 0.833081 0
M  V30 20 C -0.189921 -2.218211 0.856322 0
M  V30 21 H 1.249377 -2.974286 4.978698 0
M  V30 22 H -0.245141 -3.899788 4.562592 0
M  V30 23 H -0.364895 -2.366474 5.422090 0
M  V30 24 H 0.448585 -1.218487 3.544689 0
M  V30 25 H -1.063252 -5.905184 1.139175 0
M  V30 26 H -0.817033 -2.863644 -2.359061 0
M  V30 27 H -0.248319 -0.484906 -2.505548 0
M  V30 28 H 1.676613 0.734065 -2.280818 0
M  V30 29 H 2.258466 3.098726 -2.630978 0
M  V30 30 H 1.432268 4.850531 -1.211580 0
M  V30 31 H -0.085866 4.306316 0.717349 0
M  V30 32 H 0.399686 -0.338286 1.705466 0
M  V30 END ATOM
M  V30 BEGIN BOND
M  V30 1 1 1 2
M  V30 2 1 2 3
M  V30 3 2 3 4
M  V30 4 1 4 5
M  V30 5 2 5 6
M  V30 6 1 6 7
M  V30 7 2 7 8
M  V30 8 1 8 9
M  V30 9 2 9 10
M  V30 10 1 10 11
M  V30 11 2 11 12
M  V30 12 1 12 13
M  V30 13 2 13 14
M  V30 14 1 14 15
M  V30 15 2 15 16
M  V30 16 1 16 17
M  V30 17 3 17 18
M  V30 18 1 10 19
M  V30 19 2 19 20
M  V30 20 1 20 3
M  V30 21 1 20 7
M  V30 22 1 16 11
M  V30 23 1 1 21
M  V30 24 1 1 22
M  V30 25 1 1 23
M  V30 26 1 2 24
M  V30 27 1 5 25
M  V30 28 1 8 26
M  V30 29 1 9 27
M  V30 30 1 12 28
M  V30 31 1 13 29
M  V30 32 1 14 30
M  V30 33 1 15 31
M  V30 34 1 19 32
M  V30 END BOND
M  V30 END CTAB
M  END
>  <Dataset>  (5) 
ChEMBL_Kinases

>  <Ligand_Instance>  (5) 
nan

>  <PDB_ID>  (5) 
nan

>  <Standardized_SMILES>  (5) 
CNc1ncnc2ccc(-c3ccccc3C#N)cc12

>  <Name>  (5) 
nan

>  <Pocket>  (5) 
nan

>  <ATP_Site>  (5) 
nan

>  <Peripheral>  (5) 
nan

>  <Num_H_Atoms_ProtBoundConf>  (5) 
nan

>  <Num_Resolved_Atoms>  (5) 
nan

>  <Num_Not_Resolved_Atoms>  (5) 
nan

$$$$
CHEMBL4867952
     RDKit          3D

  0  0  0  0  0  0  0  0  0  0999 V3000
M  V30 BEGIN CTAB
M  V30 COUNTS 50 52 0 0 0
M  V30 BEGIN ATOM
M  V30 1 C 0.201452 2.794624 -2.136349 0
M  V30 2 O -0.085599 1.527177 -1.638837 0
M  V30 3 C 0.524037 0.901179 -0.563036 0
M  V30 4 C 1.536232 1.415301 0.223345 0
M  V30 5 C 2.043668 0.666293 1.267073 0
M  V30 6 N 3.087689 1.196384 2.079674 0
M  V30 7 C 4.488212 1.042868 1.835585 0
M  V30 8 O 4.723871 0.360472 0.781197 0
M  V30 9 C 5.534269 1.595555 2.682961 0
M  V30 10 C 5.493098 1.100561 4.109208 0
M  V30 11 C 6.876598 1.128872 2.118199 0
M  V30 12 C 1.535428 -0.594268 1.518759 0
M  V30 13 C 0.509908 -1.114625 0.721364 0
M  V30 14 C -0.005071 -0.362221 -0.332923 0
M  V30 15 C -1.057149 -1.000933 -1.106075 0
M  V30 16 C -2.138828 -1.718771 -0.875871 0
M  V30 17 N -2.516177 -2.043129 0.451337 0
M  V30 18 C -3.740422 -2.706845 0.729802 0
M  V30 19 C -4.779062 -1.822510 0.961563 0
M  V30 20 C -6.050105 -2.263387 1.247961 0
M  V30 21 C -6.243901 -3.625582 1.294131 0
M  V30 22 C -5.208856 -4.506484 1.063425 0
M  V30 23 C -5.403942 -5.934802 1.108637 0
M  V30 24 N -5.569898 -7.075672 1.160609 0
M  V30 25 C -3.915124 -4.073510 0.771841 0
M  V30 26 C -2.846750 -2.114360 -2.060108 0
M  V30 27 O -3.910208 -2.807189 -2.054482 0
M  V30 28 N -2.081992 -1.556612 -3.141733 0
M  V30 29 C -0.957372 -0.855422 -2.574063 0
M  V30 30 O -0.222559 -0.328393 -3.464998 0
M  V30 31 H 1.012474 3.341121 -1.647615 0
M  V30 32 H 0.509947 2.662033 -3.209758 0
M  V30 33 H -0.715797 3.450888 -2.138636 0
M  V30 34 H 1.878647 2.393409 -0.027918 0
M  V30 35 H 2.809108 1.744600 2.932439 0
M  V30 36 H 5.509757 2.699992 2.625224 0
M  V30 37 H 4.545678 1.291868 4.618655 0
M  V30 38 H 5.700436 0.014198 4.176569 0
M  V30 39 H 6.346358 1.599897 4.634502 0
M  V30 40 H 6.809034 0.881589 1.030916 0
M  V30 41 H 7.669234 1.884211 2.231138 0
M  V30 42 H 7.215705 0.195261 2.618151 0
M  V30 43 H 1.985282 -1.123773 2.356706 0
M  V30 44 H 0.232463 -2.099419 1.045429 0
M  V30 45 H -2.114295 -1.922524 1.400040 0
M  V30 46 H -4.684998 -0.728959 0.938527 0
M  V30 47 H -6.930924 -1.667892 1.445956 0
M  V30 48 H -7.194621 -4.069386 1.509284 0
M  V30 49 H -3.064913 -4.679812 0.581104 0
M  V30 50 H -2.438502 -1.733309 -4.129642 0
M  V30 END ATOM
M  V30 BEGIN BOND
M  V30 1 1 1 2
M  V30 2 1 2 3
M  V30 3 2 3 4
M  V30 4 1 4 5
M  V30 5 1 5 6
M  V30 6 1 6 7
M  V30 7 2 7 8
M  V30 8 1 7 9
M  V30 9 1 9 10
M  V30 10 1 9 11
M  V30 11 2 5 12
M  V30 12 1 12 13
M  V30 13 2 13 14
M  V30 14 1 14 15
M  V30 15 2 15 16
M  V30 16 1 16 17
M  V30 17 1 17 18
M  V30 18 2 18 19
M  V30 19 1 19 20
M  V30 20 2 20 21
M  V30 21 1 21 22
M  V30 22 1 22 23
M  V30 23 3 23 24
M  V30 24 2 22 25
M  V30 25 1 16 26
M  V30 26 2 26 27
M  V30 27 1 26 28
M  V30 28 1 28 29
M  V30 29 2 29 30
M  V30 30 1 14 3
M  V30 31 1 29 15
M  V30 32 1 25 18
M  V30 33 1 1 31
M  V30 34 1 1 32
M  V30 35 1 1 33
M  V30 36 1 4 34
M  V30 37 1 6 35
M  V30 38 1 9 36
M  V30 39 1 10 37
M  V30 40 1 10 38
M  V30 41 1 10 39
M  V30 42 1 11 40
M  V30 43 1 11 41
M  V30 44 1 11 42
M  V30 45 1 12 43
M  V30 46 1 13 44
M  V30 47 1 17 45
M  V30 48 1 19 46
M  V30 49 1 20 47
M  V30 50 1 21 48
M  V30 51 1 25 49
M  V30 52 1 28 50
M  V30 END BOND
M  V30 END CTAB
M  END
>  <Dataset>  (6) 
ChEMBL_Kinases

>  <Ligand_Instance>  (6) 
nan

>  <PDB_ID>  (6) 
nan

>  <Standardized_SMILES>  (6) 
COc1cc(NC(=O)C(C)C)ccc1C1=C(Nc2cccc(C#N)c2)C(=O)NC1=O

>  <Name>  (6) 
nan

>  <Pocket>  (6) 
nan

>  <ATP_Site>  (6) 
nan

>  <Peripheral>  (6) 
nan

>  <Num_H_Atoms_ProtBoundConf>  (6) 
nan

>  <Num_Resolved_Atoms>  (6) 
nan

>  <Num_Not_Resolved_Atoms>  (6) 
nan

$$$$
CHEMBL4867906
     RDKit          3D

  0  0  0  0  0  0  0  0  0  0999 V3000
M  V30 BEGIN CTAB
M  V30 COUNTS 60 62 0 0 0
M  V30 BEGIN ATOM
M  V30 1 C 0.957947 0.328425 3.045827 0
M  V30 2 C 1.388345 -1.124072 3.026162 0
M  V30 3 C 2.143711 -1.303015 4.356301 0
M  V30 4 C 2.264829 -1.431447 1.881054 0
M  V30 5 C 1.831684 -2.515339 0.961831 0 CFG=2
M  V30 6 N 2.402871 -2.352260 -0.358808 0
M  V30 7 C 2.134096 -1.299900 -1.270772 0
M  V30 8 C 1.250833 -0.259851 -1.081995 0
M  V30 9 C 1.063247 0.731455 -2.017047 0
M  V30 10 N 0.131247 1.762335 -1.796897 0
M  V30 11 C -1.151337 2.412518 -1.871976 0
M  V30 12 C -2.240344 1.634027 -1.247470 0
M  V30 13 C -2.578655 1.954096 0.072532 0
M  V30 14 N -3.525016 1.337400 0.803437 0
M  V30 15 C -4.250813 0.321814 0.301579 0
M  V30 16 C -3.927547 -0.002286 -0.996932 0
M  V30 17 C -2.953985 0.608695 -1.796354 0
M  V30 18 C -2.707974 0.203276 -3.177674 0
M  V30 19 F -3.610042 -0.839916 -3.453418 0
M  V30 20 F -3.016645 1.206418 -4.089914 0
M  V30 21 F -1.475534 -0.329873 -3.428248 0
M  V30 22 N 1.736879 0.740471 -3.175540 0
M  V30 23 C 2.620803 -0.240552 -3.441387 0
M  V30 24 C 2.780199 -1.212545 -2.483739 0
M  V30 25 C 3.739218 -2.234815 -2.832538 0
M  V30 26 N 4.507617 -3.073963 -3.101575 0
M  V30 27 C 0.398870 -2.875639 0.910515 0
M  V30 28 C -0.530559 -2.363483 1.925784 0
M  V30 29 C -1.490131 -1.311387 1.410818 0
M  V30 30 C -1.454493 -3.529185 2.343453 0
M  V30 31 C 0.173881 -1.971891 3.164440 0 CFG=2
M  V30 32 O -0.749600 -1.366018 4.032861 0
M  V30 33 H 1.701685 0.964102 3.590777 0
M  V30 34 H 0.978790 0.720920 2.008600 0
M  V30 35 H -0.068196 0.485070 3.429552 0
M  V30 36 H 2.297625 -2.381317 4.564790 0
M  V30 37 H 3.126521 -0.818824 4.320318 0
M  V30 38 H 1.499139 -0.919502 5.196792 0
M  V30 39 H 3.298737 -1.672489 2.288737 0
M  V30 40 H 2.463909 -0.515331 1.298871 0
M  V30 41 H 2.326759 -3.456782 1.371756 0
M  V30 42 H 3.099890 -3.071510 -0.724774 0
M  V30 43 H 0.676244 -0.218034 -0.172836 0
M  V30 44 H 0.843793 2.369618 -1.277526 0
M  V30 45 H -1.131874 3.417571 -1.364014 0
M  V30 46 H -1.407471 2.674937 -2.935451 0
M  V30 47 H -2.083120 2.759592 0.635426 0
M  V30 48 H -5.021105 -0.225795 0.809339 0
M  V30 49 H -4.489678 -0.826390 -1.459962 0
M  V30 50 H 3.165752 -0.238126 -4.372583 0
M  V30 51 H 0.241209 -3.994104 0.804437 0
M  V30 52 H 0.013337 -2.508047 -0.092607 0
M  V30 53 H -2.418466 -1.372738 2.019684 0
M  V30 54 H -1.781246 -1.665226 0.385511 0
M  V30 55 H -1.102642 -0.294241 1.413108 0
M  V30 56 H -2.417665 -3.187974 2.716880 0
M  V30 57 H -0.956252 -4.111286 3.145957 0
M  V30 58 H -1.573178 -4.235485 1.477158 0
M  V30 59 H 0.458599 -2.924716 3.692340 0
M  V30 60 H -1.648027 -1.702346 3.880278 0
M  V30 END ATOM
M  V30 BEGIN BOND
M  V30 1 1 1 2
M  V30 2 1 2 3
M  V30 3 1 2 4
M  V30 4 1 4 5
M  V30 5 1 5 6
M  V30 6 1 6 7
M  V30 7 2 7 8
M  V30 8 1 8 9
M  V30 9 1 9 10
M  V30 10 1 10 11
M  V30 11 1 11 12
M  V30 12 2 12 13
M  V30 13 1 13 14
M  V30 14 2 14 15
M  V30 15 1 15 16
M  V30 16 2 16 17
M  V30 17 1 17 18
M  V30 18 1 18 19
M  V30 19 1 18 20
M  V30 20 1 18 21
M  V30 21 2 9 22
M  V30 22 1 22 23
M  V30 23 2 23 24
M  V30 24 1 24 25
M  V30 25 3 25 26
M  V30 26 1 5 27
M  V30 27 1 27 28
M  V30 28 1 28 29
M  V30 29 1 28 30
M  V30 30 1 28 31
M  V30 31 1 31 32
M  V30 32 1 31 2
M  V30 33 1 24 7
M  V30 34 1 17 12
M  V30 35 1 1 33
M  V30 36 1 1 34
M  V30 37 1 1 35
M  V30 38 1 3 36
M  V30 39 1 3 37
M  V30 40 1 3 38
M  V30 41 1 4 39
M  V30 42 1 4 40
M  V30 43 1 5 41 CFG=1
M  V30 44 1 6 42
M  V30 45 1 8 43
M  V30 46 1 10 44
M  V30 47 1 11 45
M  V30 48 1 11 46
M  V30 49 1 13 47
M  V30 50 1 15 48
M  V30 51 1 16 49
M  V30 52 1 23 50
M  V30 53 1 27 51
M  V30 54 1 27 52
M  V30 55 1 29 53
M  V30 56 1 29 54
M  V30 57 1 29 55
M  V30 58 1 30 56
M  V30 59 1 30 57
M  V30 60 1 30 58
M  V30 61 1 31 59 CFG=1
M  V30 62 1 32 60
M  V30 END BOND
M  V30 END CTAB
M  END
>  <Dataset>  (7) 
ChEMBL_Kinases

>  <Ligand_Instance>  (7) 
nan

>  <PDB_ID>  (7) 
nan

>  <Standardized_SMILES>  (7) 
CC1(C)C[C@H](Nc2cc(NCc3cnccc3C(F)(F)F)ncc2C#N)CC(C)(C)[C@@H]1O

>  <Name>  (7) 
nan

>  <Pocket>  (7) 
nan

>  <ATP_Site>  (7) 
nan

>  <Peripheral>  (7) 
nan

>  <Num_H_Atoms_ProtBoundConf>  (7) 
nan

>  <Num_Resolved_Atoms>  (7) 
nan

>  <Num_Not_Resolved_Atoms>  (7) 
nan

$$$$
CHEMBL4867616
     RDKit          3D

  0  0  0  0  0  0  0  0  0  0999 V3000
M  V30 BEGIN CTAB
M  V30 COUNTS 44 47 0 0 0
M  V30 BEGIN ATOM
M  V30 1 C 1.265684 -7.585367 -1.601943 0
M  V30 2 O 1.811276 -6.404810 -1.043969 0
M  V30 3 C 1.501980 -5.127998 -1.433997 0
M  V30 4 N 2.140057 -4.143367 -0.766629 0
M  V30 5 C 1.905204 -2.851708 -1.074802 0
M  V30 6 C 1.017969 -2.505913 -2.067580 0
M  V30 7 C 0.656463 -1.168686 -2.516168 0
M  V30 8 N 0.554807 -0.782706 -3.789114 0
M  V30 9 N 0.209454 0.490501 -3.878960 0
M  V30 10 C 0.089290 0.922453 -2.625834 0
M  V30 11 N -0.242928 2.141601 -2.166457 0
M  V30 12 C -0.309275 2.372227 -0.821850 0
M  V30 13 C -0.042665 1.381113 0.100763 0
M  V30 14 C -0.127960 1.670307 1.529795 0
M  V30 15 C -1.095804 2.629949 1.855299 0
M  V30 16 C -1.312524 3.026841 3.158605 0
M  V30 17 C -0.534588 2.441958 4.153810 0
M  V30 18 O -0.722730 2.815275 5.479307 0
M  V30 19 C -1.722529 3.793971 5.742611 0
M  V30 20 C 0.422827 1.495600 3.850637 0
M  V30 21 O 1.161343 0.949838 4.858850 0
M  V30 22 C 2.164382 -0.002690 4.807041 0
M  V30 23 C 0.629766 1.105600 2.534196 0
M  V30 24 C 0.302864 0.113886 -0.352122 0
M  V30 25 C 0.356777 -0.070887 -1.718361 0
M  V30 26 C 0.365726 -3.531832 -2.749135 0
M  V30 27 N 0.625226 -4.799878 -2.414660 0
M  V30 28 H 1.188758 -8.382697 -0.835407 0
M  V30 29 H 1.916431 -7.968936 -2.430438 0
M  V30 30 H 0.266963 -7.439428 -2.058011 0
M  V30 31 H 2.370194 -2.000975 -0.592940 0
M  V30 32 H 0.089993 0.937942 -4.809193 0
M  V30 33 H -0.584505 3.383409 -0.544558 0
M  V30 34 H -1.733331 3.121882 1.120467 0
M  V30 35 H -2.061600 3.770142 3.420661 0
M  V30 36 H -1.786415 4.049080 6.806254 0
M  V30 37 H -2.683524 3.378153 5.345610 0
M  V30 38 H -1.518074 4.707834 5.146943 0
M  V30 39 H 2.616955 0.038498 3.793627 0
M  V30 40 H 2.968984 0.141494 5.557248 0
M  V30 41 H 1.748486 -1.046805 4.900633 0
M  V30 42 H 1.359317 0.371835 2.226957 0
M  V30 43 H 0.521589 -0.697731 0.327294 0
M  V30 44 H -0.352425 -3.409795 -3.546894 0
M  V30 END ATOM
M  V30 BEGIN BOND
M  V30 1 1 1 2
M  V30 2 1 2 3
M  V30 3 2 3 4
M  V30 4 1 4 5
M  V30 5 2 5 6
M  V30 6 1 6 7
M  V30 7 2 7 8
M  V30 8 1 8 9
M  V30 9 1 9 10
M  V30 10 2 10 11
M  V30 11 1 11 12
M  V30 12 2 12 13
M  V30 13 1 13 14
M  V30 14 2 14 15
M  V30 15 1 15 16
M  V30 16 2 16 17
M  V30 17 1 17 18
M  V30 18 1 18 19
M  V30 19 1 17 20
M  V30 20 1 20 21
M  V30 21 1 21 22
M  V30 22 2 20 23
M  V30 23 1 13 24
M  V30 24 2 24 25
M  V30 25 1 6 26
M  V30 26 2 26 27
M  V30 27 1 27 3
M  V30 28 1 25 7
M  V30 29 1 25 10
M  V30 30 1 23 14
M  V30 31 1 1 28
M  V30 32 1 1 29
M  V30 33 1 1 30
M  V30 34 1 5 31
M  V30 35 1 9 32
M  V30 36 1 12 33
M  V30 37 1 15 34
M  V30 38 1 16 35
M  V30 39 1 19 36
M  V30 40 1 19 37
M  V30 41 1 19 38
M  V30 42 1 22 39
M  V30 43 1 22 40
M  V30 44 1 22 41
M  V30 45 1 23 42
M  V30 46 1 24 43
M  V30 47 1 26 44
M  V30 END BOND
M  V30 END CTAB
M  END
>  <Dataset>  (8) 
ChEMBL_Kinases

>  <Ligand_Instance>  (8) 
nan

>  <PDB_ID>  (8) 
nan

>  <Standardized_SMILES>  (8) 
COc1ncc(-c2n[nH]c3ncc(-c4ccc(OC)c(OC)c4)cc23)cn1

>  <Name>  (8) 
nan

>  <Pocket>  (8) 
nan

>  <ATP_Site>  (8) 
nan

>  <Peripheral>  (8) 
nan

>  <Num_H_Atoms_ProtBoundConf>  (8) 
nan

>  <Num_Resolved_Atoms>  (8) 
nan

>  <Num_Not_Resolved_Atoms>  (8) 
nan

$$$$
CHEMBL4867403
     RDKit          3D

  0  0  0  0  0  0  0  0  0  0999 V3000
M  V30 BEGIN CTAB
M  V30 COUNTS 46 49 0 0 0
M  V30 BEGIN ATOM
M  V30 1 O 1.339952 -2.785424 1.848262 0
M  V30 2 C 0.998277 -1.602989 2.020692 0
M  V30 3 C 1.450340 -0.550984 1.082744 0
M  V30 4 C 1.952891 -1.174106 -0.060270 0
M  V30 5 C 2.427883 -0.347749 -1.060874 0
M  V30 6 C 2.393245 1.023958 -0.907150 0
M  V30 7 C 2.899749 1.882875 -1.974502 0
M  V30 8 C 2.743732 1.385049 -3.270721 0
M  V30 9 C 3.162623 2.061872 -4.386842 0
M  V30 10 N 3.746842 3.254792 -4.209241 0
M  V30 11 C 3.911964 3.759392 -2.993022 0
M  V30 12 C 3.507307 3.115146 -1.847723 0
M  V30 13 C 1.897861 1.650269 0.220221 0
M  V30 14 C 1.418459 0.842025 1.231497 0
M  V30 15 O 0.909064 1.463152 2.389282 0
M  V30 16 C 0.965852 0.957714 3.723699 0
M  V30 17 C -0.091261 -0.115570 3.957747 0
M  V30 18 N 0.154970 -1.299068 3.155457 0
M  V30 19 C -0.634938 -2.442869 3.603284 0
M  V30 20 C -1.954075 -2.475270 2.890109 0
M  V30 21 C -3.054202 -1.809548 3.432639 0
M  V30 22 C -4.230554 -1.886918 2.716442 0
M  V30 23 C -4.372639 -2.568121 1.526277 0
M  V30 24 C -3.285400 -3.225939 0.990193 0
M  V30 25 C -3.313016 -3.982519 -0.266062 0
M  V30 26 F -4.469403 -3.738227 -0.990652 0
M  V30 27 F -2.272943 -3.515452 -1.061222 0
M  V30 28 F -3.252020 -5.348540 -0.070626 0
M  V30 29 C -2.088208 -3.165938 1.688315 0
M  V30 30 H 1.960081 -2.242723 -0.136722 0
M  V30 31 H 2.823230 -0.810405 -1.958346 0
M  V30 32 H 2.274523 0.414625 -3.498470 0
M  V30 33 H 3.050876 1.693345 -5.395391 0
M  V30 34 H 4.385263 4.723541 -2.865648 0
M  V30 35 H 3.608416 3.463324 -0.828960 0
M  V30 36 H 1.840267 2.697328 0.406464 0
M  V30 37 H 1.969380 0.543527 3.975818 0
M  V30 38 H 0.742737 1.797923 4.396920 0
M  V30 39 H -0.156322 -0.319614 5.023172 0
M  V30 40 H -1.037135 0.345411 3.565927 0
M  V30 41 H -0.782323 -2.432905 4.693941 0
M  V30 42 H -0.068712 -3.360927 3.348727 0
M  V30 43 H -2.945266 -1.276557 4.362747 0
M  V30 44 H -5.111578 -1.369486 3.125253 0
M  V30 45 H -5.315088 -2.603037 0.996725 0
M  V30 46 H -1.212405 -3.670854 1.297793 0
M  V30 END ATOM
M  V30 BEGIN BOND
M  V30 1 2 1 2
M  V30 2 1 2 3
M  V30 3 2 3 4
M  V30 4 1 4 5
M  V30 5 2 5 6
M  V30 6 1 6 7
M  V30 7 2 7 8
M  V30 8 1 8 9
M  V30 9 2 9 10
M  V30 10 1 10 11
M  V30 11 2 11 12
M  V30 12 1 6 13
M  V30 13 2 13 14
M  V30 14 1 14 15
M  V30 15 1 15 16
M  V30 16 1 16 17
M  V30 17 1 17 18
M  V30 18 1 18 19
M  V30 19 1 19 20
M  V30 20 2 20 21
M  V30 21 1 21 22
M  V30 22 2 22 23
M  V30 23 1 23 24
M  V30 24 1 24 25
M  V30 25 1 25 26
M  V30 26 1 25 27
M  V30 27 1 25 28
M  V30 28 2 24 29
M  V30 29 1 18 2
M  V30 30 1 29 20
M  V30 31 1 14 3
M  V30 32 1 12 7
M  V30 33 1 4 30
M  V30 34 1 5 31
M  V30 35 1 8 32
M  V30 36 1 9 33
M  V30 37 1 11 34
M  V30 38 1 12 35
M  V30 39 1 13 36
M  V30 40 1 16 37
M  V30 41 1 16 38
M  V30 42 1 17 39
M  V30 43 1 17 40
M  V30 44 1 19 41
M  V30 45 1 19 42
M  V30 46 1 21 43
M  V30 47 1 22 44
M  V30 48 1 23 45
M  V30 49 1 29 46
M  V30 END BOND
M  V30 END CTAB
M  END
>  <Dataset>  (9) 
ChEMBL_Kinases

>  <Ligand_Instance>  (9) 
nan

>  <PDB_ID>  (9) 
nan

>  <Standardized_SMILES>  (9) 
O=C1c2ccc(-c3ccncc3)cc2OCCN1Cc1cccc(C(F)(F)F)c1

>  <Name>  (9) 
nan

>  <Pocket>  (9) 
nan

>  <ATP_Site>  (9) 
nan

>  <Peripheral>  (9) 
nan

>  <Num_H_Atoms_ProtBoundConf>  (9) 
nan

>  <Num_Resolved_Atoms>  (9) 
nan

>  <Num_Not_Resolved_Atoms>  (9) 
nan

$$$$
CHEMBL4856089
     RDKit          3D

  0  0  0  0  0  0  0  0  0  0999 V3000
M  V30 BEGIN CTAB
M  V30 COUNTS 36 39 0 0 0
M  V30 BEGIN ATOM
M  V30 1 O 0.941256 -5.131199 4.571246 0
M  V30 2 C 1.249698 -4.219914 3.579525 0
M  V30 3 C 0.235748 -3.777344 2.768617 0
M  V30 4 C 0.533025 -2.875593 1.785179 0
M  V30 5 C 1.807369 -2.374843 1.552898 0
M  V30 6 C 2.034890 -1.401907 0.465305 0
M  V30 7 C 3.254120 -1.396111 -0.179742 0
M  V30 8 N 3.406022 -0.487256 -1.164669 0
M  V30 9 C 2.437940 0.375687 -1.516525 0
M  V30 10 N 2.335815 1.361762 -2.445484 0
M  V30 11 N 1.142170 1.927394 -2.383222 0
M  V30 12 C 0.376195 1.370475 -1.426605 0
M  V30 13 C -0.990343 1.703480 -1.042477 0
M  V30 14 C -1.298769 1.815716 0.298294 0
M  V30 15 C -2.597517 2.132266 0.702600 0
M  V30 16 C -3.580969 2.334686 -0.245070 0
M  V30 17 O -4.873257 2.649071 0.132766 0
M  V30 18 C -3.218023 2.210543 -1.556615 0
M  V30 19 C -1.940582 1.897214 -2.020356 0
M  V30 20 C 1.207554 0.404502 -0.900059 0
M  V30 21 C 1.024356 -0.526604 0.123386 0
M  V30 22 C 2.824560 -2.822592 2.370743 0
M  V30 23 C 2.528888 -3.744093 3.378099 0
M  V30 24 H 0.356447 -5.936201 4.398148 0
M  V30 25 H -0.771951 -4.151586 2.926004 0
M  V30 26 H -0.270158 -2.541061 1.162190 0
M  V30 27 H 4.016194 -2.101285 0.123129 0
M  V30 28 H 3.095809 1.637730 -3.118924 0
M  V30 29 H -0.595568 1.675757 1.107660 0
M  V30 30 H -2.856683 2.224523 1.761191 0
M  V30 31 H -5.146382 2.562264 1.099961 0
M  V30 32 H -3.979376 2.366396 -2.313258 0
M  V30 33 H -1.746270 1.820081 -3.076938 0
M  V30 34 H 0.104076 -0.570397 0.649333 0
M  V30 35 H 3.827190 -2.438245 2.199309 0
M  V30 36 H 3.340192 -4.100183 4.029347 0
M  V30 END ATOM
M  V30 BEGIN BOND
M  V30 1 1 1 2
M  V30 2 2 2 3
M  V30 3 1 3 4
M  V30 4 2 4 5
M  V30 5 1 5 6
M  V30 6 2 6 7
M  V30 7 1 7 8
M  V30 8 2 8 9
M  V30 9 1 9 10
M  V30 10 1 10 11
M  V30 11 2 11 12
M  V30 12 1 12 13
M  V30 13 2 13 14
M  V30 14 1 14 15
M  V30 15 2 15 16
M  V30 16 1 16 17
M  V30 17 1 16 18
M  V30 18 2 18 19
M  V30 19 1 12 20
M  V30 20 2 20 21
M  V30 21 1 5 22
M  V30 22 2 22 23
M  V30 23 1 23 2
M  V30 24 1 21 6
M  V30 25 1 20 9
M  V30 26 1 19 13
M  V30 27 1 1 24
M  V30 28 1 3 25
M  V30 29 1 4 26
M  V30 30 1 7 27
M  V30 31 1 10 28
M  V30 32 1 14 29
M  V30 33 1 15 30
M  V30 34 1 17 31
M  V30 35 1 18 32
M  V30 36 1 19 33
M  V30 37 1 21 34
M  V30 38 1 22 35
M  V30 39 1 23 36
M  V30 END BOND
M  V30 END CTAB
M  END
>  <Dataset>  (10) 
ChEMBL_Kinases

>  <Ligand_Instance>  (10) 
nan

>  <PDB_ID>  (10) 
nan

>  <Standardized_SMILES>  (10) 
Oc1ccc(-c2cnc3[nH]nc(-c4ccc(O)cc4)c3c2)cc1

>  <Name>  (10) 
nan

>  <Pocket>  (10) 
nan

>  <ATP_Site>  (10) 
nan

>  <Peripheral>  (10) 
nan

>  <Num_H_Atoms_ProtBoundConf>  (10) 
nan

>  <Num_Resolved_Atoms>  (10) 
nan

>  <Num_Not_Resolved_Atoms>  (10) 
nan

$$$$
CHEMBL4856178
     RDKit          3D

  0  0  0  0  0  0  0  0  0  0999 V3000
M  V30 BEGIN CTAB
M  V30 COUNTS 54 57 0 0 0
M  V30 BEGIN ATOM
M  V30 1 N 1.174827 -5.399642 1.395872 0
M  V30 2 C 1.161974 -4.279913 1.685349 0
M  V30 3 C 1.171305 -2.892695 2.043119 0
M  V30 4 C 1.991754 -2.552629 3.103267 0
M  V30 5 N 2.010142 -1.255496 3.411957 0
M  V30 6 C 1.303023 -0.312802 2.771098 0
M  V30 7 N 1.370166 1.047518 3.153635 0
M  V30 8 C 2.364194 1.969730 2.640230 0
M  V30 9 C 2.344974 2.111282 1.193602 0
M  V30 10 C 3.338016 1.480550 0.435263 0
M  V30 11 N 3.393338 1.542003 -0.906495 0
M  V30 12 C 2.447442 2.244376 -1.551801 0
M  V30 13 N 1.482157 2.860209 -0.850354 0
M  V30 14 C 1.391438 2.822422 0.509023 0
M  V30 15 C 0.280579 3.515699 1.129215 0
M  V30 16 C 0.152942 4.429632 2.149729 0
M  V30 17 C -1.079669 4.900140 2.541894 0
M  V30 18 C -2.252786 4.505481 1.959652 0
M  V30 19 C -2.167352 3.590707 0.932351 0
M  V30 20 C -0.933347 3.120592 0.541403 0
M  V30 21 C 0.505518 -0.698023 1.729570 0
M  V30 22 C 0.406702 -2.004412 1.323001 0
M  V30 23 N -0.456406 -2.335042 0.257005 0
M  V30 24 C -0.984212 -3.418290 -0.493652 0 CFG=1
M  V30 25 C -1.982766 -4.278422 0.198704 0
M  V30 26 C -2.744031 -5.066644 -0.868032 0
M  V30 27 C -1.856118 -5.457666 -2.028056 0 CFG=1
M  V30 28 O -2.700057 -6.148361 -2.924378 0
M  V30 29 C -1.312200 -4.269408 -2.759763 0
M  V30 30 C -1.492213 -3.065916 -1.871516 0
M  V30 31 H 2.576584 -3.278774 3.644439 0
M  V30 32 H 0.575557 1.120896 3.825115 0
M  V30 33 H 3.348983 1.501019 2.964505 0
M  V30 34 H 2.316605 2.883987 3.244272 0
M  V30 35 H 4.100249 0.912459 0.973141 0
M  V30 36 H 2.438688 2.331613 -2.651409 0
M  V30 37 H 1.108161 4.712643 2.557432 0
M  V30 38 H -1.030172 5.612185 3.354468 0
M  V30 39 H -3.191141 4.891787 2.290823 0
M  V30 40 H -3.109766 3.296588 0.491587 0
M  V30 41 H -1.040410 2.400751 -0.286616 0
M  V30 42 H -0.056454 0.109522 1.233724 0
M  V30 43 H -0.924741 -1.508025 -0.192919 0
M  V30 44 H -0.091170 -4.101951 -0.690907 0
M  V30 45 H -1.486288 -4.992459 0.860334 0
M  V30 46 H -2.715411 -3.669787 0.805774 0
M  V30 47 H -3.101994 -6.041963 -0.434820 0
M  V30 48 H -3.564950 -4.447843 -1.229655 0
M  V30 49 H -1.088042 -6.192371 -1.739890 0
M  V30 50 H -2.192554 -6.224658 -3.764731 0
M  V30 51 H -0.198278 -4.396651 -2.873697 0
M  V30 52 H -1.717762 -4.115718 -3.772300 0
M  V30 53 H -2.550335 -2.798980 -1.829728 0
M  V30 54 H -0.843733 -2.232698 -2.221133 0
M  V30 END ATOM
M  V30 BEGIN BOND
M  V30 1 3 1 2
M  V30 2 1 2 3
M  V30 3 2 3 4
M  V30 4 1 4 5
M  V30 5 2 5 6
M  V30 6 1 6 7
M  V30 7 1 7 8
M  V30 8 1 8 9
M  V30 9 2 9 10
M  V30 10 1 10 11
M  V30 11 2 11 12
M  V30 12 1 12 13
M  V30 13 2 13 14
M  V30 14 1 14 15
M  V30 15 2 15 16
M  V30 16 1 16 17
M  V30 17 2 17 18
M  V30 18 1 18 19
M  V30 19 2 19 20
M  V30 20 1 6 21
M  V30 21 2 21 22
M  V30 22 1 22 23
M  V30 23 1 23 24
M  V30 24 1 24 25
M  V30 25 1 25 26
M  V30 26 1 26 27
M  V30 27 1 27 28
M  V30 28 1 27 29
M  V30 29 1 29 30
M  V30 30 1 22 3
M  V30 31 1 30 24
M  V30 32 1 14 9
M  V30 33 1 20 15
M  V30 34 1 4 31
M  V30 35 1 7 32
M  V30 36 1 8 33
M  V30 37 1 8 34
M  V30 38 1 10 35
M  V30 39 1 12 36
M  V30 40 1 16 37
M  V30 41 1 17 38
M  V30 42 1 18 39
M  V30 43 1 19 40
M  V30 44 1 20 41
M  V30 45 1 21 42
M  V30 46 1 23 43
M  V30 47 1 24 44 CFG=3
M  V30 48 1 25 45
M  V30 49 1 25 46
M  V30 50 1 26 47
M  V30 51 1 26 48
M  V30 52 1 27 49 CFG=1
M  V30 53 1 28 50
M  V30 54 1 29 51
M  V30 55 1 29 52
M  V30 56 1 30 53
M  V30 57 1 30 54
M  V30 END BOND
M  V30 END CTAB
M  END
>  <Dataset>  (11) 
ChEMBL_Kinases

>  <Ligand_Instance>  (11) 
nan

>  <PDB_ID>  (11) 
nan

>  <Standardized_SMILES>  (11) 
N#Cc1cnc(NCc2cncnc2-c2ccccc2)cc1N[C@H]1CC[C@@H](O)CC1

>  <Name>  (11) 
nan

>  <Pocket>  (11) 
nan

>  <ATP_Site>  (11) 
nan

>  <Peripheral>  (11) 
nan

>  <Num_H_Atoms_ProtBoundConf>  (11) 
nan

>  <Num_Resolved_Atoms>  (11) 
nan

>  <Num_Not_Resolved_Atoms>  (11) 
nan

$$$$
CHEMBL4868638
     RDKit          3D

  0  0  0  0  0  0  0  0  0  0999 V3000
M  V30 BEGIN CTAB
M  V30 COUNTS 58 63 0 0 0
M  V30 BEGIN ATOM
M  V30 1 C 3.938303 -5.454803 4.600557 0
M  V30 2 N 4.102719 -4.434261 3.594533 0
M  V30 3 C 3.392379 -3.276110 3.480553 0
M  V30 4 C 3.850851 -2.560775 2.381908 0
M  V30 5 N 3.380238 -1.302237 1.912753 0
M  V30 6 C 3.876370 -0.112961 2.284394 0
M  V30 7 N 3.173818 0.825509 1.629960 0
M  V30 8 C 2.251246 0.257066 0.858595 0
M  V30 9 C 1.281422 0.781196 -0.007047 0
M  V30 10 N 1.178392 2.166824 -0.178493 0
M  V30 11 C 0.370079 3.064079 -0.927141 0
M  V30 12 C -1.076776 3.052515 -0.586235 0
M  V30 13 N -1.468417 3.852806 0.452626 0
M  V30 14 C -2.786398 3.761147 0.649833 0
M  V30 15 C -3.677503 4.329871 1.530481 0
M  V30 16 C -5.029779 4.003582 1.457676 0
M  V30 17 Cl -6.121213 4.748144 2.593075 0
M  V30 18 C -5.463391 3.101985 0.490030 0
M  V30 19 Cl -7.170477 2.711989 0.423840 0
M  V30 20 C -4.589912 2.507626 -0.416901 0
M  V30 21 C -3.255830 2.879914 -0.285375 0
M  V30 22 N -2.211188 2.470224 -1.013460 0
M  V30 23 N 0.510495 -0.110742 -0.630647 0
M  V30 24 C 0.626658 -1.439914 -0.465302 0
M  V30 25 N -0.144720 -2.474611 -1.081163 0
M  V30 26 C 0.170376 -3.900046 -0.902413 0
M  V30 27 C -0.990480 -4.510398 -0.156764 0
M  V30 28 O -2.029470 -3.612422 -0.009910 0
M  V30 29 C -2.452246 -3.080518 -1.220437 0
M  V30 30 C -1.307018 -2.405199 -1.940453 0 CFG=1
M  V30 31 C -1.689160 -0.988342 -2.314477 0
M  V30 32 O -0.685540 -0.322108 -2.995664 0
M  V30 33 N 1.565250 -1.916083 0.370660 0
M  V30 34 C 2.381901 -1.095125 1.037852 0
M  V30 35 C 4.857651 -3.367198 1.874287 0
M  V30 36 N 4.993565 -4.484011 2.613467 0
M  V30 37 H 3.180918 -6.212271 4.370660 0
M  V30 38 H 3.662992 -4.921555 5.556542 0
M  V30 39 H 4.927056 -5.934400 4.858959 0
M  V30 40 H 2.592099 -2.958033 4.142858 0
M  V30 41 H 4.678513 0.147101 2.966456 0
M  V30 42 H 1.878104 2.736627 0.393676 0
M  V30 43 H 0.459651 2.741768 -2.001964 0
M  V30 44 H 0.752176 4.100212 -0.927581 0
M  V30 45 H -3.280236 5.026632 2.263946 0
M  V30 46 H -4.903234 1.811330 -1.169166 0
M  V30 47 H -2.085361 1.826574 -1.815339 0
M  V30 48 H 1.128713 -4.016742 -0.350171 0
M  V30 49 H 0.238890 -4.381384 -1.896084 0
M  V30 50 H -0.640971 -4.803247 0.851463 0
M  V30 51 H -1.332449 -5.463944 -0.632397 0
M  V30 52 H -2.857467 -3.861035 -1.897504 0
M  V30 53 H -3.202110 -2.300367 -0.982335 0
M  V30 54 H -1.067155 -2.928509 -2.903381 0
M  V30 55 H -2.021517 -0.492275 -1.379605 0
M  V30 56 H -2.564473 -1.002375 -2.993946 0
M  V30 57 H -1.013942 0.315134 -3.667421 0
M  V30 58 H 5.462218 -3.133704 0.994404 0
M  V30 END ATOM
M  V30 BEGIN BOND
M  V30 1 1 1 2
M  V30 2 1 2 3
M  V30 3 2 3 4
M  V30 4 1 4 5
M  V30 5 1 5 6
M  V30 6 2 6 7
M  V30 7 1 7 8
M  V30 8 2 8 9
M  V30 9 1 9 10
M  V30 10 1 10 11
M  V30 11 1 11 12
M  V30 12 2 12 13
M  V30 13 1 13 14
M  V30 14 2 14 15
M  V30 15 1 15 16
M  V30 16 1 16 17
M  V30 17 2 16 18
M  V30 18 1 18 19
M  V30 19 1 18 20
M  V30 20 2 20 21
M  V30 21 1 21 22
M  V30 22 1 9 23
M  V30 23 2 23 24
M  V30 24 1 24 25
M  V30 25 1 25 26
M  V30 26 1 26 27
M  V30 27 1 27 28
M  V30 28 1 28 29
M  V30 29 1 29 30
M  V30 30 1 30 31
M  V30 31 1 31 32
M  V30 32 1 24 33
M  V30 33 2 33 34
M  V30 34 1 4 35
M  V30 35 2 35 36
M  V30 36 1 36 2
M  V30 37 1 34 5
M  V30 38 1 34 8
M  V30 39 1 22 12
M  V30 40 1 30 25
M  V30 41 1 21 14
M  V30 42 1 1 37
M  V30 43 1 1 38
M  V30 44 1 1 39
M  V30 45 1 3 40
M  V30 46 1 6 41
M  V30 47 1 10 42
M  V30 48 1 11 43
M  V30 49 1 11 44
M  V30 50 1 15 45
M  V30 51 1 20 46
M  V30 52 1 22 47
M  V30 53 1 26 48
M  V30 54 1 26 49
M  V30 55 1 27 50
M  V30 56 1 27 51
M  V30 57 1 29 52
M  V30 58 1 29 53
M  V30 59 1 30 54 CFG=3
M  V30 60 1 31 55
M  V30 61 1 31 56
M  V30 62 1 32 57
M  V30 63 1 35 58
M  V30 END BOND
M  V30 END CTAB
M  END
>  <Dataset>  (12) 
ChEMBL_Kinases

>  <Ligand_Instance>  (12) 
nan

>  <PDB_ID>  (12) 
nan

>  <Standardized_SMILES>  (12) 
Cn1cc(-n2cnc3c(NCc4nc5cc(Cl)c(Cl)cc5[nH]4)nc(N4CCOC[C@H]4CO)nc32)cn1

>  <Name>  (12) 
nan

>  <Pocket>  (12) 
nan

>  <ATP_Site>  (12) 
nan

>  <Peripheral>  (12) 
nan

>  <Num_H_Atoms_ProtBoundConf>  (12) 
nan

>  <Num_Resolved_Atoms>  (12) 
nan

>  <Num_Not_Resolved_Atoms>  (12) 
nan

$$$$
CHEMBL1527391
     RDKit          3D

  0  0  0  0  0  0  0  0  0  0999 V3000
M  V30 BEGIN CTAB
M  V30 COUNTS 31 33 0 0 0
M  V30 BEGIN ATOM
M  V30 1 C -1.632980 -0.966877 3.631053 0
M  V30 2 N -0.890222 -0.821406 2.394200 0
M  V30 3 N -0.114578 -1.768293 1.890642 0
M  V30 4 C 0.570949 -1.626166 0.743453 0
M  V30 5 C 1.412896 -2.722487 0.246079 0
M  V30 6 C 1.491109 -3.895233 0.968108 0
M  V30 7 C 2.267207 -4.973133 0.558010 0
M  V30 8 C 2.944139 -4.763233 -0.624713 0
M  V30 9 C 2.914696 -3.621239 -1.399050 0
M  V30 10 C 2.114706 -2.572010 -0.931950 0
M  V30 11 N 0.492701 -0.479997 0.040720 0
M  V30 12 C -0.278495 0.564798 0.467273 0
M  V30 13 C -0.333317 1.723007 -0.279769 0
M  V30 14 O 0.298456 1.869783 -1.348342 0
M  V30 15 N -1.125060 2.717260 0.214413 0
M  V30 16 C -1.238914 3.969542 -0.510055 0
M  V30 17 C -1.789655 2.520110 1.369160 0
M  V30 18 O -2.529552 3.458591 1.824287 0
M  V30 19 N -1.750388 1.390823 2.119174 0
M  V30 20 C -0.989646 0.328139 1.721342 0
M  V30 21 H -1.836707 0.028056 4.059430 0
M  V30 22 H -2.536801 -1.539217 3.387055 0
M  V30 23 H -0.967546 -1.529077 4.334871 0
M  V30 24 H 0.934523 -4.011587 1.900233 0
M  V30 25 H 2.356680 -5.908335 1.092467 0
M  V30 26 H 3.564098 -5.599715 -0.969922 0
M  V30 27 H 3.495428 -3.597010 -2.301893 0
M  V30 28 H 2.072621 -1.672097 -1.513351 0
M  V30 29 H -1.505813 4.812071 0.149545 0
M  V30 30 H -0.265757 4.231540 -1.009434 0
M  V30 31 H -1.990142 3.929078 -1.307573 0
M  V30 END ATOM
M  V30 BEGIN BOND
M  V30 1 1 1 2
M  V30 2 1 2 3
M  V30 3 2 3 4
M  V30 4 1 4 5
M  V30 5 2 5 6
M  V30 6 1 6 7
M  V30 7 2 7 8
M  V30 8 1 8 9
M  V30 9 2 9 10
M  V30 10 1 4 11
M  V30 11 2 11 12
M  V30 12 1 12 13
M  V30 13 2 13 14
M  V30 14 1 13 15
M  V30 15 1 15 16
M  V30 16 1 15 17
M  V30 17 2 17 18
M  V30 18 1 17 19
M  V30 19 2 19 20
M  V30 20 1 20 2
M  V30 21 1 10 5
M  V30 22 1 20 12
M  V30 23 1 1 21
M  V30 24 1 1 22
M  V30 25 1 1 23
M  V30 26 1 6 24
M  V30 27 1 7 25
M  V30 28 1 8 26
M  V30 29 1 9 27
M  V30 30 1 10 28
M  V30 31 1 16 29
M  V30 32 1 16 30
M  V30 33 1 16 31
M  V30 END BOND
M  V30 END CTAB
M  END
>  <Dataset>  (13) 
ChEMBL_Kinases

>  <Ligand_Instance>  (13) 
nan

>  <PDB_ID>  (13) 
nan

>  <Standardized_SMILES>  (13) 
Cn1nc(-c2ccccc2)nc2c(=O)n(C)c(=O)nc1-2

>  <Name>  (13) 
nan

>  <Pocket>  (13) 
nan

>  <ATP_Site>  (13) 
nan

>  <Peripheral>  (13) 
nan

>  <Num_H_Atoms_ProtBoundConf>  (13) 
nan

>  <Num_Resolved_Atoms>  (13) 
nan

>  <Num_Not_Resolved_Atoms>  (13) 
nan

$$$$
CHEMBL4869745
     RDKit          3D

  0  0  0  0  0  0  0  0  0  0999 V3000
M  V30 BEGIN CTAB
M  V30 COUNTS 39 42 0 0 0
M  V30 BEGIN ATOM
M  V30 1 C 0.499338 -4.243265 1.801818 0
M  V30 2 O 0.259370 -3.238882 0.839981 0
M  V30 3 C 1.268099 -2.426675 0.410895 0
M  V30 4 C 2.604647 -2.437149 0.807262 0
M  V30 5 C 3.529031 -1.563413 0.299702 0
M  V30 6 C 3.182844 -0.618060 -0.639803 0
M  V30 7 C 1.861487 -0.556519 -1.077164 0
M  V30 8 C 0.957799 -1.452087 -0.543984 0
M  V30 9 C -0.419640 -1.328349 -1.064413 0
M  V30 10 C -1.026688 -0.162981 -1.274810 0
M  V30 11 N -0.439979 1.133206 -1.029034 0
M  V30 12 C -0.273689 1.481488 0.358378 0
M  V30 13 C 0.282656 2.693693 0.745162 0
M  V30 14 C 0.440078 3.027150 2.067978 0
M  V30 15 C 0.060753 2.189838 3.071870 0
M  V30 16 C -0.494981 0.978160 2.716675 0
M  V30 17 C -0.649548 0.651736 1.394606 0
M  V30 18 O -0.802676 0.295087 3.903423 0
M  V30 19 C -0.762899 1.230848 4.988351 0
M  V30 20 O 0.079712 2.222568 4.459560 0
M  V30 21 C -2.374033 -0.293418 -1.791235 0
M  V30 22 O -3.224935 0.553555 -2.099909 0
M  V30 23 N -2.588096 -1.708068 -1.899584 0
M  V30 24 C -1.395631 -2.342906 -1.456375 0
M  V30 25 O -1.113427 -3.575367 -1.370777 0
M  V30 26 H -0.218265 -5.092507 1.700531 0
M  V30 27 H 1.515883 -4.668151 1.781861 0
M  V30 28 H 0.327386 -3.841581 2.838646 0
M  V30 29 H 2.867455 -3.181832 1.545506 0
M  V30 30 H 4.550749 -1.615802 0.640645 0
M  V30 31 H 3.864494 0.096891 -1.077702 0
M  V30 32 H 1.584131 0.175455 -1.810033 0
M  V30 33 H -0.124838 1.844872 -1.721296 0
M  V30 34 H 0.590752 3.369874 -0.048614 0
M  V30 35 H 0.877027 3.979096 2.336524 0
M  V30 36 H -1.088974 -0.305958 1.166386 0
M  V30 37 H -0.394870 0.762958 5.922995 0
M  V30 38 H -1.801626 1.606738 5.081094 0
M  V30 39 H -3.421931 -2.281044 -2.229002 0
M  V30 END ATOM
M  V30 BEGIN BOND
M  V30 1 1 1 2
M  V30 2 1 2 3
M  V30 3 2 3 4
M  V30 4 1 4 5
M  V30 5 2 5 6
M  V30 6 1 6 7
M  V30 7 2 7 8
M  V30 8 1 8 9
M  V30 9 2 9 10
M  V30 10 1 10 11
M  V30 11 1 11 12
M  V30 12 2 12 13
M  V30 13 1 13 14
M  V30 14 2 14 15
M  V30 15 1 15 16
M  V30 16 2 16 17
M  V30 17 1 16 18
M  V30 18 1 18 19
M  V30 19 1 19 20
M  V30 20 1 10 21
M  V30 21 2 21 22
M  V30 22 1 21 23
M  V30 23 1 23 24
M  V30 24 2 24 25
M  V30 25 1 8 3
M  V30 26 1 24 9
M  V30 27 1 17 12
M  V30 28 1 20 15
M  V30 29 1 1 26
M  V30 30 1 1 27
M  V30 31 1 1 28
M  V30 32 1 4 29
M  V30 33 1 5 30
M  V30 34 1 6 31
M  V30 35 1 7 32
M  V30 36 1 11 33
M  V30 37 1 13 34
M  V30 38 1 14 35
M  V30 39 1 17 36
M  V30 40 1 19 37
M  V30 41 1 19 38
M  V30 42 1 23 39
M  V30 END BOND
M  V30 END CTAB
M  END
>  <Dataset>  (14) 
ChEMBL_Kinases

>  <Ligand_Instance>  (14) 
nan

>  <PDB_ID>  (14) 
nan

>  <Standardized_SMILES>  (14) 
COc1ccccc1C1=C(Nc2ccc3c(c2)OCO3)C(=O)NC1=O

>  <Name>  (14) 
nan

>  <Pocket>  (14) 
nan

>  <ATP_Site>  (14) 
nan

>  <Peripheral>  (14) 
nan

>  <Num_H_Atoms_ProtBoundConf>  (14) 
nan

>  <Num_Resolved_Atoms>  (14) 
nan

>  <Num_Not_Resolved_Atoms>  (14) 
nan

$$$$
CHEMBL4853274
     RDKit          3D

  0  0  0  0  0  0  0  0  0  0999 V3000
M  V30 BEGIN CTAB
M  V30 COUNTS 39 42 0 0 0
M  V30 BEGIN ATOM
M  V30 1 O -3.033517 -3.061843 2.201343 0
M  V30 2 C -2.000285 -3.398201 1.576504 0
M  V30 3 O -2.015458 -4.763517 1.374706 0
M  V30 4 C -0.897645 -2.576405 1.091282 0
M  V30 5 C 0.116577 -3.210686 0.405075 0
M  V30 6 C 1.214461 -2.573900 -0.123209 0
M  V30 7 C 1.333972 -1.187439 0.032910 0
M  V30 8 C 2.525930 -0.613104 -0.569337 0
M  V30 9 N 2.790698 -1.002515 -1.814807 0
M  V30 10 C 3.827759 -0.607056 -2.556896 0
M  V30 11 N 4.675398 0.262602 -1.986523 0
M  V30 12 C 4.449585 0.694357 -0.708870 0
M  V30 13 S 5.370667 1.872236 0.426813 0
M  V30 14 C 4.190026 1.667466 1.806777 0
M  V30 15 C 3.252453 0.781857 1.331274 0
M  V30 16 C 3.347273 0.271237 0.074240 0
M  V30 17 C 0.315262 -0.563540 0.719976 0
M  V30 18 C -0.761095 -1.212232 1.234136 0
M  V30 19 C -1.810911 -0.467978 1.978768 0
M  V30 20 C -3.034659 -0.161906 1.195964 0
M  V30 21 C -2.659109 1.112247 0.476522 0
M  V30 22 C -1.773496 1.862046 1.442179 0
M  V30 23 C -1.359204 0.881420 2.468027 0
M  V30 24 H -2.395926 -5.366209 2.092361 0
M  V30 25 H 0.059987 -4.291769 0.262395 0
M  V30 26 H 1.964247 -3.156203 -0.648966 0
M  V30 27 H 4.126102 -0.852210 -3.543417 0
M  V30 28 H 4.358936 2.190513 2.682448 0
M  V30 29 H 2.480983 0.555714 2.045219 0
M  V30 30 H 0.473519 0.494851 0.797130 0
M  V30 31 H -2.100071 -1.120368 2.846711 0
M  V30 32 H -3.386239 -0.949407 0.506290 0
M  V30 33 H -3.844116 0.085478 1.911190 0
M  V30 34 H -3.546934 1.760544 0.279265 0
M  V30 35 H -2.183118 0.953363 -0.492663 0
M  V30 36 H -0.940251 2.371984 0.906463 0
M  V30 37 H -2.334202 2.704330 1.930833 0
M  V30 38 H -1.944106 1.072953 3.401533 0
M  V30 39 H -0.266531 0.900487 2.692465 0
M  V30 END ATOM
M  V30 BEGIN BOND
M  V30 1 2 1 2
M  V30 2 1 2 3
M  V30 3 1 2 4
M  V30 4 2 4 5
M  V30 5 1 5 6
M  V30 6 2 6 7
M  V30 7 1 7 8
M  V30 8 2 8 9
M  V30 9 1 9 10
M  V30 10 2 10 11
M  V30 11 1 11 12
M  V30 12 1 12 13
M  V30 13 1 13 14
M  V30 14 2 14 15
M  V30 15 1 15 16
M  V30 16 1 7 17
M  V30 17 2 17 18
M  V30 18 1 18 19
M  V30 19 1 19 20
M  V30 20 1 20 21
M  V30 21 1 21 22
M  V30 22 1 22 23
M  V30 23 1 18 4
M  V30 24 1 23 19
M  V30 25 1 16 8
M  V30 26 2 16 12
M  V30 27 1 3 24
M  V30 28 1 5 25
M  V30 29 1 6 26
M  V30 30 1 10 27
M  V30 31 1 14 28
M  V30 32 1 15 29
M  V30 33 1 17 30
M  V30 34 1 19 31
M  V30 35 1 20 32
M  V30 36 1 20 33
M  V30 37 1 21 34
M  V30 38 1 21 35
M  V30 39 1 22 36
M  V30 40 1 22 37
M  V30 41 1 23 38
M  V30 42 1 23 39
M  V30 END BOND
M  V30 END CTAB
M  END
>  <Dataset>  (15) 
ChEMBL_Kinases

>  <Ligand_Instance>  (15) 
nan

>  <PDB_ID>  (15) 
nan

>  <Standardized_SMILES>  (15) 
O=C(O)c1ccc(-c2ncnc3sccc23)cc1C1CCCC1

>  <Name>  (15) 
nan

>  <Pocket>  (15) 
nan

>  <ATP_Site>  (15) 
nan

>  <Peripheral>  (15) 
nan

>  <Num_H_Atoms_ProtBoundConf>  (15) 
nan

>  <Num_Resolved_Atoms>  (15) 
nan

>  <Num_Not_Resolved_Atoms>  (15) 
nan

$$$$
CHEMBL4853288
     RDKit          3D

  0  0  0  0  0  0  0  0  0  0999 V3000
M  V30 BEGIN CTAB
M  V30 COUNTS 36 39 0 0 0
M  V30 BEGIN ATOM
M  V30 1 N -1.714763 -3.048377 4.089326 0
M  V30 2 C -0.622200 -2.392652 3.459149 0
M  V30 3 N 0.381890 -2.118479 4.297397 0
M  V30 4 C 1.514138 -1.492865 3.875827 0
M  V30 5 C 1.593337 -1.148047 2.544791 0
M  V30 6 C 0.568996 -1.421873 1.665640 0
M  V30 7 C 0.461368 -1.138259 0.245081 0
M  V30 8 C 0.404563 0.143302 -0.264185 0
M  V30 9 C 0.428132 1.465498 0.346706 0
M  V30 10 C -0.795400 2.113552 0.133159 0
M  V30 11 C -1.019181 3.401192 0.622860 0
M  V30 12 C -0.028562 4.062664 1.332311 0
M  V30 13 F -0.163170 5.316238 1.842890 0
M  V30 14 C 1.162697 3.397876 1.524948 0
M  V30 15 C 1.405556 2.127488 1.050858 0
M  V30 16 N 0.309916 -0.012707 -1.616744 0
M  V30 17 C 0.308880 -1.333512 -1.922571 0
M  V30 18 C 0.229191 -1.944728 -3.168948 0
M  V30 19 N 0.130902 -1.213522 -4.379619 0
M  V30 20 N 0.249345 -3.299596 -3.186012 0
M  V30 21 C 0.343546 -4.005455 -2.026529 0
M  V30 22 C 0.420523 -3.357608 -0.810220 0
M  V30 23 N 0.402355 -2.018461 -0.769537 0
M  V30 24 N -0.528672 -2.049501 2.165611 0
M  V30 25 H -1.700946 -4.094044 4.009925 0
M  V30 26 H -2.293184 -2.258400 4.500388 0
M  V30 27 H 2.382695 -1.225373 4.468546 0
M  V30 28 H 2.430469 -0.652353 2.077725 0
M  V30 29 H -1.668092 1.724957 -0.403847 0
M  V30 30 H -1.941725 3.942581 0.485829 0
M  V30 31 H 2.001106 3.840653 2.072055 0
M  V30 32 H 2.291381 1.541188 1.149899 0
M  V30 33 H 0.976261 -1.481464 -4.964626 0
M  V30 34 H -0.564595 -0.526078 -4.750839 0
M  V30 35 H 0.360231 -5.091478 -2.036219 0
M  V30 36 H 0.496679 -3.879228 0.133961 0
M  V30 END ATOM
M  V30 BEGIN BOND
M  V30 1 1 1 2
M  V30 2 2 2 3
M  V30 3 1 3 4
M  V30 4 2 4 5
M  V30 5 1 5 6
M  V30 6 1 6 7
M  V30 7 2 7 8
M  V30 8 1 8 9
M  V30 9 2 9 10
M  V30 10 1 10 11
M  V30 11 2 11 12
M  V30 12 1 12 13
M  V30 13 1 12 14
M  V30 14 2 14 15
M  V30 15 1 8 16
M  V30 16 2 16 17
M  V30 17 1 17 18
M  V30 18 1 18 19
M  V30 19 2 18 20
M  V30 20 1 20 21
M  V30 21 2 21 22
M  V30 22 1 22 23
M  V30 23 2 6 24
M  V30 24 1 24 2
M  V30 25 1 23 7
M  V30 26 1 15 9
M  V30 27 1 23 17
M  V30 28 1 1 25
M  V30 29 1 1 26
M  V30 30 1 4 27
M  V30 31 1 5 28
M  V30 32 1 10 29
M  V30 33 1 11 30
M  V30 34 1 14 31
M  V30 35 1 15 32
M  V30 36 1 19 33
M  V30 37 1 19 34
M  V30 38 1 21 35
M  V30 39 1 22 36
M  V30 END BOND
M  V30 END CTAB
M  END
>  <Dataset>  (16) 
ChEMBL_Kinases

>  <Ligand_Instance>  (16) 
nan

>  <PDB_ID>  (16) 
nan

>  <Standardized_SMILES>  (16) 
Nc1nccc(-c2c(-c3ccc(F)cc3)nc3c(N)nccn23)n1

>  <Name>  (16) 
nan

>  <Pocket>  (16) 
nan

>  <ATP_Site>  (16) 
nan

>  <Peripheral>  (16) 
nan

>  <Num_H_Atoms_ProtBoundConf>  (16) 
nan

>  <Num_Resolved_Atoms>  (16) 
nan

>  <Num_Not_Resolved_Atoms>  (16) 
nan

$$$$
CHEMBL4853353
     RDKit          3D

  0  0  0  0  0  0  0  0  0  0999 V3000
M  V30 BEGIN CTAB
M  V30 COUNTS 51 53 0 0 0
M  V30 BEGIN ATOM
M  V30 1 C 3.407636 -2.128755 -0.624523 0
M  V30 2 C 3.085972 -0.854566 0.086443 0
M  V30 3 C 3.816487 0.357394 -0.472587 0
M  V30 4 C 3.333049 -0.969373 1.596143 0 CFG=1
M  V30 5 C 4.470345 -0.149666 2.084918 0
M  V30 6 N 4.785342 1.213759 2.098377 0
M  V30 7 O 5.415602 -0.804045 2.636988 0
M  V30 8 C 2.007410 -0.248066 1.808731 0
M  V30 9 C 1.627990 -0.599458 0.404861 0 CFG=1
M  V30 10 N 1.022940 0.483798 -0.327511 0
M  V30 11 C -0.282687 0.962629 -0.120125 0
M  V30 12 C -1.137313 0.448933 0.831643 0
M  V30 13 C -2.424015 0.890197 1.084473 0
M  V30 14 N -3.175405 0.243050 2.094585 0
M  V30 15 C -4.209338 -0.664452 1.683984 0
M  V30 16 C -3.759201 -1.778383 0.833870 0
M  V30 17 C -3.985276 -1.739331 -0.541268 0
M  V30 18 N -3.600981 -2.735018 -1.386216 0
M  V30 19 C -2.974257 -3.820433 -0.925980 0
M  V30 20 C -2.754310 -3.850166 0.435132 0
M  V30 21 C -3.120225 -2.869180 1.357576 0
M  V30 22 C -2.816290 -3.025370 2.795962 0
M  V30 23 F -2.187501 -4.262401 2.990205 0
M  V30 24 F -1.908397 -2.054713 3.139783 0
M  V30 25 F -3.903738 -2.989081 3.611295 0
M  V30 26 N -2.882771 1.920674 0.326202 0
M  V30 27 C -2.087167 2.468810 -0.629045 0
M  V30 28 C -0.793296 2.004262 -0.863641 0
M  V30 29 C 0.006614 2.639887 -1.907882 0
M  V30 30 N 0.632620 3.133071 -2.742431 0
M  V30 31 H 3.481553 -2.999686 0.089457 0
M  V30 32 H 4.374786 -2.011553 -1.156031 0
M  V30 33 H 2.553182 -2.346896 -1.322923 0
M  V30 34 H 3.702383 0.329883 -1.590195 0
M  V30 35 H 4.895588 0.193429 -0.275686 0
M  V30 36 H 3.430008 1.295036 -0.022109 0
M  V30 37 H 3.347761 -1.991740 1.974842 0
M  V30 38 H 5.220743 1.936113 1.451919 0
M  V30 39 H 4.517637 1.669781 3.015197 0
M  V30 40 H 1.400824 -0.738171 2.614003 0
M  V30 41 H 2.146337 0.824911 2.045314 0
M  V30 42 H 0.987532 -1.510772 0.360748 0
M  V30 43 H 1.612258 0.932061 -1.063660 0
M  V30 44 H -0.702282 -0.379157 1.413299 0
M  V30 45 H -2.764121 0.611596 3.001853 0
M  V30 46 H -4.976849 -0.077458 1.114044 0
M  V30 47 H -4.687179 -1.086465 2.618437 0
M  V30 48 H -4.489728 -0.901082 -1.029209 0
M  V30 49 H -2.628074 -4.669300 -1.528112 0
M  V30 50 H -2.249847 -4.714863 0.840045 0
M  V30 51 H -2.534647 3.283620 -1.186535 0
M  V30 END ATOM
M  V30 BEGIN BOND
M  V30 1 1 1 2
M  V30 2 1 2 3
M  V30 3 1 2 4
M  V30 4 1 4 5
M  V30 5 1 5 6
M  V30 6 2 5 7
M  V30 7 1 4 8
M  V30 8 1 8 9
M  V30 9 1 9 10
M  V30 10 1 10 11
M  V30 11 2 11 12
M  V30 12 1 12 13
M  V30 13 1 13 14
M  V30 14 1 14 15
M  V30 15 1 15 16
M  V30 16 2 16 17
M  V30 17 1 17 18
M  V30 18 2 18 19
M  V30 19 1 19 20
M  V30 20 2 20 21
M  V30 21 1 21 22
M  V30 22 1 22 23
M  V30 23 1 22 24
M  V30 24 1 22 25
M  V30 25 2 13 26
M  V30 26 1 26 27
M  V30 27 2 27 28
M  V30 28 1 28 29
M  V30 29 3 29 30
M  V30 30 1 9 2
M  V30 31 1 28 11
M  V30 32 1 21 16
M  V30 33 1 1 31
M  V30 34 1 1 32
M  V30 35 1 1 33
M  V30 36 1 3 34
M  V30 37 1 3 35
M  V30 38 1 3 36
M  V30 39 1 4 37 CFG=1
M  V30 40 1 6 38
M  V30 41 1 6 39
M  V30 42 1 8 40
M  V30 43 1 8 41
M  V30 44 1 9 42 CFG=1
M  V30 45 1 10 43
M  V30 46 1 12 44
M  V30 47 1 14 45
M  V30 48 1 15 46
M  V30 49 1 15 47
M  V30 50 1 17 48
M  V30 51 1 19 49
M  V30 52 1 20 50
M  V30 53 1 27 51
M  V30 END BOND
M  V30 END CTAB
M  END
>  <Dataset>  (17) 
ChEMBL_Kinases

>  <Ligand_Instance>  (17) 
nan

>  <PDB_ID>  (17) 
nan

>  <Standardized_SMILES>  (17) 
CC1(C)[C@@H](C(N)=O)C[C@H]1Nc1cc(NCc2cnccc2C(F)(F)F)ncc1C#N

>  <Name>  (17) 
nan

>  <Pocket>  (17) 
nan

>  <ATP_Site>  (17) 
nan

>  <Peripheral>  (17) 
nan

>  <Num_H_Atoms_ProtBoundConf>  (17) 
nan

>  <Num_Resolved_Atoms>  (17) 
nan

>  <Num_Not_Resolved_Atoms>  (17) 
nan

$$$$
CHEMBL4853493
     RDKit          3D

  0  0  0  0  0  0  0  0  0  0999 V3000
M  V30 BEGIN CTAB
M  V30 COUNTS 54 56 0 0 0
M  V30 BEGIN ATOM
M  V30 1 C -2.191308 -2.212173 1.424756 0
M  V30 2 C -1.064135 -2.532522 2.396055 0
M  V30 3 C -1.526592 -2.083533 3.766853 0
M  V30 4 C 0.164028 -1.753813 2.005606 0
M  V30 5 C 1.224816 -2.569034 1.352008 0 CFG=2
M  V30 6 N 1.058585 -2.814679 -0.046943 0
M  V30 7 C 1.101083 -1.883046 -1.109905 0
M  V30 8 C 1.339582 -0.530525 -1.004681 0
M  V30 9 C 1.359373 0.303139 -2.091490 0
M  V30 10 N 1.577735 1.696068 -1.956674 0
M  V30 11 C 1.129255 3.052694 -1.799529 0
M  V30 12 C 0.303016 3.313184 -0.609288 0
M  V30 13 C 0.958694 3.796630 0.531557 0
M  V30 14 N 0.404988 4.074164 1.726642 0
M  V30 15 C -0.926232 3.885669 1.906179 0
M  V30 16 C -1.607578 3.416971 0.823810 0
M  V30 17 C -1.040291 3.126574 -0.420147 0
M  V30 18 C -1.844308 2.650289 -1.552737 0
M  V30 19 F -3.157264 2.582864 -1.103122 0
M  V30 20 F -1.842772 3.576050 -2.592504 0
M  V30 21 F -1.524815 1.397894 -1.969164 0
M  V30 22 N 1.139123 -0.194876 -3.339873 0
M  V30 23 C 0.895910 -1.516063 -3.538832 0
M  V30 24 C 0.889793 -2.294908 -2.405170 0
M  V30 25 C 0.629901 -3.690307 -2.629489 0
M  V30 26 N 0.417813 -4.821453 -2.791166 0
M  V30 27 C 1.579241 -3.804759 2.129329 0
M  V30 28 C 0.478533 -4.291047 3.044588 0
M  V30 29 C -0.839398 -4.007183 2.392356 0 CFG=1
M  V30 30 O -1.895392 -4.674345 3.008844 0
M  V30 31 H -2.015689 -1.145550 1.101426 0
M  V30 32 H -2.009013 -2.865839 0.544033 0
M  V30 33 H -3.188000 -2.345069 1.842006 0
M  V30 34 H -1.719822 -0.987365 3.785997 0
M  V30 35 H -2.476604 -2.567555 4.054018 0
M  V30 36 H -0.800815 -2.290800 4.569510 0
M  V30 37 H 0.624607 -1.330813 2.944070 0
M  V30 38 H -0.160153 -0.921989 1.392938 0
M  V30 39 H 2.161266 -1.922664 1.411944 0
M  V30 40 H 0.885575 -3.815170 -0.277000 0
M  V30 41 H 1.524700 -0.110188 -0.029831 0
M  V30 42 H 2.618975 1.565198 -2.013602 0
M  V30 43 H 0.622453 3.424497 -2.732074 0
M  V30 44 H 2.045224 3.706527 -1.736931 0
M  V30 45 H 2.033304 3.986437 0.506162 0
M  V30 46 H -1.468306 4.071021 2.803707 0
M  V30 47 H -2.687278 3.246272 0.910536 0
M  V30 48 H 0.719719 -1.925201 -4.523230 0
M  V30 49 H 1.912896 -4.638565 1.463342 0
M  V30 50 H 2.463680 -3.648081 2.812093 0
M  V30 51 H 0.554934 -3.841156 4.061218 0
M  V30 52 H 0.580712 -5.393755 3.122162 0
M  V30 53 H -0.795471 -4.409485 1.357706 0
M  V30 54 H -2.727320 -4.562082 2.490628 0
M  V30 END ATOM
M  V30 BEGIN BOND
M  V30 1 1 1 2
M  V30 2 1 2 3
M  V30 3 1 2 4
M  V30 4 1 4 5
M  V30 5 1 5 6
M  V30 6 1 6 7
M  V30 7 2 7 8
M  V30 8 1 8 9
M  V30 9 1 9 10
M  V30 10 1 10 11
M  V30 11 1 11 12
M  V30 12 2 12 13
M  V30 13 1 13 14
M  V30 14 2 14 15
M  V30 15 1 15 16
M  V30 16 2 16 17
M  V30 17 1 17 18
M  V30 18 1 18 19
M  V30 19 1 18 20
M  V30 20 1 18 21
M  V30 21 2 9 22
M  V30 22 1 22 23
M  V30 23 2 23 24
M  V30 24 1 24 25
M  V30 25 3 25 26
M  V30 26 1 5 27
M  V30 27 1 27 28
M  V30 28 1 28 29
M  V30 29 1 29 30
M  V30 30 1 29 2
M  V30 31 1 24 7
M  V30 32 1 17 12
M  V30 33 1 1 31
M  V30 34 1 1 32
M  V30 35 1 1 33
M  V30 36 1 3 34
M  V30 37 1 3 35
M  V30 38 1 3 36
M  V30 39 1 4 37
M  V30 40 1 4 38
M  V30 41 1 5 39 CFG=3
M  V30 42 1 6 40
M  V30 43 1 8 41
M  V30 44 1 10 42
M  V30 45 1 11 43
M  V30 46 1 11 44
M  V30 47 1 13 45
M  V30 48 1 15 46
M  V30 49 1 16 47
M  V30 50 1 23 48
M  V30 51 1 27 49
M  V30 52 1 27 50
M  V30 53 1 28 51
M  V30 54 1 28 52
M  V30 55 1 29 53 CFG=3
M  V30 56 1 30 54
M  V30 END BOND
M  V30 END CTAB
M  END
>  <Dataset>  (18) 
ChEMBL_Kinases

>  <Ligand_Instance>  (18) 
nan

>  <PDB_ID>  (18) 
nan

>  <Standardized_SMILES>  (18) 
CC1(C)C[C@H](Nc2cc(NCc3cnccc3C(F)(F)F)ncc2C#N)CC[C@H]1O

>  <Name>  (18) 
nan

>  <Pocket>  (18) 
nan

>  <ATP_Site>  (18) 
nan

>  <Peripheral>  (18) 
nan

>  <Num_H_Atoms_ProtBoundConf>  (18) 
nan

>  <Num_Resolved_Atoms>  (18) 
nan

>  <Num_Not_Resolved_Atoms>  (18) 
nan

$$$$
CHEMBL4853591
     RDKit          3D

  0  0  0  0  0  0  0  0  0  0999 V3000
M  V30 BEGIN CTAB
M  V30 COUNTS 54 58 0 0 0
M  V30 BEGIN ATOM
M  V30 1 C 4.057054 -7.334316 -3.131624 0
M  V30 2 S 3.237789 -6.241549 -4.265398 0
M  V30 3 O 1.929137 -6.833128 -4.735465 0
M  V30 4 O 4.172443 -5.966431 -5.397518 0
M  V30 5 C 2.795732 -4.754357 -3.424268 0
M  V30 6 C 1.576407 -4.610759 -2.786572 0
M  V30 7 C 1.318580 -3.400424 -2.149081 0
M  V30 8 C 2.252458 -2.361474 -2.148149 0
M  V30 9 C 1.863848 -1.141923 -1.444882 0
M  V30 10 C 1.035264 -1.287038 -0.340980 0
M  V30 11 C 0.660174 -0.155649 0.330316 0
M  V30 12 C 1.110103 1.069734 -0.105396 0
M  V30 13 C 0.681227 2.147933 0.638849 0
M  V30 14 N -0.158659 2.160763 1.781829 0
M  V30 15 C -1.498834 1.741128 1.897974 0
M  V30 16 C -2.287329 1.360574 0.840514 0
M  V30 17 C -3.592826 0.954820 0.987939 0
M  V30 18 N -4.095213 0.939109 2.232601 0
M  V30 19 C -3.382855 1.299026 3.323891 0
M  V30 20 C -4.012053 1.250358 4.635029 0
M  V30 21 C -3.401325 1.588471 5.822370 0
M  V30 22 C -4.084261 1.511768 7.034287 0
M  V30 23 C -5.390763 1.099000 7.111539 0
M  V30 24 F -6.058935 1.021568 8.276016 0
M  V30 25 C -6.028726 0.751791 5.921723 0
M  V30 26 C -5.321760 0.841447 4.753849 0
M  V30 27 C -2.080769 1.697435 3.124515 0
M  V30 28 C 1.125034 3.409955 0.227472 0
M  V30 29 C 1.954997 3.576591 -0.873900 0
M  V30 30 N 2.339703 2.472607 -1.563395 0
M  V30 31 C 1.933956 1.239033 -1.198868 0
M  V30 32 C 2.322945 0.099146 -1.890091 0
M  V30 33 C 3.461619 -2.550430 -2.800358 0
M  V30 34 C 3.741798 -3.741557 -3.440267 0
M  V30 35 H 3.483771 -8.259447 -2.925514 0
M  V30 36 H 5.072852 -7.642036 -3.518683 0
M  V30 37 H 4.274898 -6.863094 -2.147564 0
M  V30 38 H 0.879187 -5.435159 -2.808387 0
M  V30 39 H 0.332815 -3.384926 -1.676202 0
M  V30 40 H 0.689525 -2.258955 -0.010408 0
M  V30 41 H 0.021032 -0.279964 1.192576 0
M  V30 42 H 0.355931 2.542954 2.598286 0
M  V30 43 H -1.855188 1.383262 -0.158945 0
M  V30 44 H -4.191723 0.658840 0.126792 0
M  V30 45 H -2.372896 1.918029 5.800661 0
M  V30 46 H -3.599344 1.779007 7.964671 0
M  V30 47 H -7.070754 0.411062 5.889190 0
M  V30 48 H -5.847082 0.561872 3.828243 0
M  V30 49 H -1.480008 1.994022 3.984932 0
M  V30 50 H 0.876064 4.348015 0.708170 0
M  V30 51 H 2.308251 4.542967 -1.206653 0
M  V30 52 H 2.969660 0.177105 -2.756836 0
M  V30 53 H 4.172181 -1.715577 -2.780439 0
M  V30 54 H 4.695826 -3.854651 -3.939694 0
M  V30 END ATOM
M  V30 BEGIN BOND
M  V30 1 1 1 2
M  V30 2 2 2 3
M  V30 3 2 2 4
M  V30 4 1 2 5
M  V30 5 2 5 6
M  V30 6 1 6 7
M  V30 7 2 7 8
M  V30 8 1 8 9
M  V30 9 2 9 10
M  V30 10 1 10 11
M  V30 11 2 11 12
M  V30 12 1 12 13
M  V30 13 1 13 14
M  V30 14 1 14 15
M  V30 15 2 15 16
M  V30 16 1 16 17
M  V30 17 2 17 18
M  V30 18 1 18 19
M  V30 19 1 19 20
M  V30 20 2 20 21
M  V30 21 1 21 22
M  V30 22 2 22 23
M  V30 23 1 23 24
M  V30 24 1 23 25
M  V30 25 2 25 26
M  V30 26 2 19 27
M  V30 27 2 13 28
M  V30 28 1 28 29
M  V30 29 2 29 30
M  V30 30 1 30 31
M  V30 31 2 31 32
M  V30 32 1 8 33
M  V30 33 2 33 34
M  V30 34 1 34 5
M  V30 35 1 32 9
M  V30 36 1 31 12
M  V30 37 1 27 15
M  V30 38 1 26 20
M  V30 39 1 1 35
M  V30 40 1 1 36
M  V30 41 1 1 37
M  V30 42 1 6 38
M  V30 43 1 7 39
M  V30 44 1 10 40
M  V30 45 1 11 41
M  V30 46 1 14 42
M  V30 47 1 16 43
M  V30 48 1 17 44
M  V30 49 1 21 45
M  V30 50 1 22 46
M  V30 51 1 25 47
M  V30 52 1 26 48
M  V30 53 1 27 49
M  V30 54 1 28 50
M  V30 55 1 29 51
M  V30 56 1 32 52
M  V30 57 1 33 53
M  V30 58 1 34 54
M  V30 END BOND
M  V30 END CTAB
M  END
>  <Dataset>  (19) 
ChEMBL_Kinases

>  <Ligand_Instance>  (19) 
nan

>  <PDB_ID>  (19) 
nan

>  <Standardized_SMILES>  (19) 
CS(=O)(=O)c1ccc(-c2ccc3c(Nc4ccnc(-c5ccc(F)cc5)c4)ccnc3c2)cc1

>  <Name>  (19) 
nan

>  <Pocket>  (19) 
nan

>  <ATP_Site>  (19) 
nan

>  <Peripheral>  (19) 
nan

>  <Num_H_Atoms_ProtBoundConf>  (19) 
nan

>  <Num_Resolved_Atoms>  (19) 
nan

>  <Num_Not_Resolved_Atoms>  (19) 
nan

$$$$
CHEMBL4869672
     RDKit          3D

  0  0  0  0  0  0  0  0  0  0999 V3000
M  V30 BEGIN CTAB
M  V30 COUNTS 56 61 0 0 0
M  V30 BEGIN ATOM
M  V30 1 O -0.876377 -5.788689 0.797591 0
M  V30 2 C -0.714302 -4.915295 -0.121951 0
M  V30 3 C 0.253410 -3.836684 -0.016893 0
M  V30 4 C -0.278835 -2.547919 -0.002199 0
M  V30 5 C 0.580165 -1.452322 0.097108 0
M  V30 6 C 1.962280 -1.608620 0.182438 0
M  V30 7 C 2.775929 -0.385245 0.285293 0
M  V30 8 C 4.061906 -0.283871 -0.230236 0
M  V30 9 C 4.770315 0.916734 -0.089196 0
M  V30 10 C 4.177194 1.978652 0.560234 0
M  V30 11 N 4.657505 3.211301 0.813086 0
M  V30 12 C 3.690655 3.900494 1.486075 0
M  V30 13 C 2.594952 3.066841 1.646569 0
M  V30 14 C 1.354968 3.435066 2.319751 0
M  V30 15 C 1.367344 4.092441 3.535056 0
M  V30 16 N 0.190435 4.423516 4.136895 0
M  V30 17 C -0.993914 4.116787 3.559687 0
M  V30 18 C -2.215183 4.446300 4.158164 0
M  V30 19 C -3.434663 4.140613 3.582507 0
M  V30 20 C -3.458993 3.483286 2.366999 0
M  V30 21 C -2.274669 3.140235 1.743317 0
M  V30 22 C -1.053848 3.460509 2.346108 0
M  V30 23 C 0.144164 3.110935 1.710124 0
M  V30 24 N 2.950774 1.892398 1.055670 0
M  V30 25 C 2.271654 0.739508 0.919804 0
M  V30 26 C 2.471597 -2.889671 0.166458 0
M  V30 27 C 1.622146 -3.973499 0.068283 0
M  V30 28 N -1.582743 -5.152361 -1.204403 0
M  V30 29 C -2.469299 -6.292606 -1.096013 0
M  V30 30 C -2.921258 -6.669494 -2.503676 0
M  V30 31 N -3.786668 -5.623349 -2.993776 0
M  V30 32 C -3.191142 -4.318291 -2.855219 0
M  V30 33 C -1.728928 -4.412198 -2.438795 0
M  V30 34 H -1.366789 -2.392621 -0.068295 0
M  V30 35 H 0.075979 -0.479576 0.100922 0
M  V30 36 H 4.481599 -1.145744 -0.730826 0
M  V30 37 H 5.781681 0.989753 -0.497232 0
M  V30 38 H 3.840761 4.919449 1.801624 0
M  V30 39 H 2.315896 4.344715 4.009847 0
M  V30 40 H -2.206810 4.963921 5.114595 0
M  V30 41 H -4.372067 4.396706 4.048813 0
M  V30 42 H -4.369651 3.200550 1.836959 0
M  V30 43 H -2.290326 2.622291 0.784982 0
M  V30 44 H 0.040863 2.607328 0.774673 0
M  V30 45 H 1.274641 0.635297 1.311840 0
M  V30 46 H 3.533760 -3.002287 0.231643 0
M  V30 47 H 1.991309 -4.977246 0.053257 0
M  V30 48 H -1.919289 -7.116358 -0.600189 0
M  V30 49 H -3.365575 -5.961630 -0.535071 0
M  V30 50 H -3.543069 -7.602304 -2.424819 0
M  V30 51 H -2.083114 -6.803712 -3.195876 0
M  V30 52 H -4.662881 -5.642434 -2.445024 0
M  V30 53 H -3.716738 -3.708848 -2.088096 0
M  V30 54 H -3.242525 -3.811492 -3.825949 0
M  V30 55 H -1.367654 -3.381064 -2.270275 0
M  V30 56 H -1.123065 -4.866059 -3.249521 0
M  V30 END ATOM
M  V30 BEGIN BOND
M  V30 1 2 1 2
M  V30 2 1 2 3
M  V30 3 2 3 4
M  V30 4 1 4 5
M  V30 5 2 5 6
M  V30 6 1 6 7
M  V30 7 1 7 8
M  V30 8 2 8 9
M  V30 9 1 9 10
M  V30 10 2 10 11
M  V30 11 1 11 12
M  V30 12 2 12 13
M  V30 13 1 13 14
M  V30 14 2 14 15
M  V30 15 1 15 16
M  V30 16 2 16 17
M  V30 17 1 17 18
M  V30 18 2 18 19
M  V30 19 1 19 20
M  V30 20 2 20 21
M  V30 21 1 21 22
M  V30 22 2 22 23
M  V30 23 1 13 24
M  V30 24 1 24 25
M  V30 25 1 6 26
M  V30 26 2 26 27
M  V30 27 1 2 28
M  V30 28 1 28 29
M  V30 29 1 29 30
M  V30 30 1 30 31
M  V30 31 1 31 32
M  V30 32 1 32 33
M  V30 33 1 27 3
M  V30 34 1 33 28
M  V30 35 2 25 7
M  V30 36 1 24 10
M  V30 37 1 23 14
M  V30 38 1 22 17
M  V30 39 1 4 34
M  V30 40 1 5 35
M  V30 41 1 8 36
M  V30 42 1 9 37
M  V30 43 1 12 38
M  V30 44 1 15 39
M  V30 45 1 18 40
M  V30 46 1 19 41
M  V30 47 1 20 42
M  V30 48 1 21 43
M  V30 49 1 23 44
M  V30 50 1 25 45
M  V30 51 1 26 46
M  V30 52 1 27 47
M  V30 53 1 29 48
M  V30 54 1 29 49
M  V30 55 1 30 50
M  V30 56 1 30 51
M  V30 57 1 31 52
M  V30 58 1 32 53
M  V30 59 1 32 54
M  V30 60 1 33 55
M  V30 61 1 33 56
M  V30 END BOND
M  V30 END CTAB
M  END
>  <Dataset>  (20) 
ChEMBL_Kinases

>  <Ligand_Instance>  (20) 
nan

>  <PDB_ID>  (20) 
nan

>  <Standardized_SMILES>  (20) 
O=C(c1ccc(-c2ccc3ncc(-c4cnc5ccccc5c4)n3c2)cc1)N1CCNCC1

>  <Name>  (20) 
nan

>  <Pocket>  (20) 
nan

>  <ATP_Site>  (20) 
nan

>  <Peripheral>  (20) 
nan

>  <Num_H_Atoms_ProtBoundConf>  (20) 
nan

>  <Num_Resolved_Atoms>  (20) 
nan

>  <Num_Not_Resolved_Atoms>  (20) 
nan

$$$$
CHEMBL4854104
     RDKit          3D

  0  0  0  0  0  0  0  0  0  0999 V3000
M  V30 BEGIN CTAB
M  V30 COUNTS 52 54 0 0 0
M  V30 BEGIN ATOM
M  V30 1 C 4.372424 -2.826755 0.430226 0
M  V30 2 C 3.578105 -1.583893 0.906760 0
M  V30 3 C 2.154681 -1.958318 1.070168 0
M  V30 4 F 3.666645 -0.711627 -0.139719 0
M  V30 5 C 4.231541 -0.971282 2.058693 0
M  V30 6 N 5.332615 -1.579930 2.546828 0
M  V30 7 C 6.042327 -1.161620 3.601014 0
M  V30 8 N 5.645444 -0.026140 4.261957 0
M  V30 9 C 4.526448 0.556756 3.732517 0
M  V30 10 C 3.746453 0.157629 2.628168 0
M  V30 11 C 2.609168 0.977083 2.287789 0
M  V30 12 N 1.303701 0.676362 2.720637 0
M  V30 13 C 0.102091 -0.088799 2.784007 0
M  V30 14 N -0.407341 -0.979460 3.639556 0
M  V30 15 C -1.576113 -1.593707 3.426819 0
M  V30 16 C -2.231507 -1.259342 2.274963 0
M  V30 17 C -3.490818 -1.909320 2.062638 0
M  V30 18 N -4.523818 -2.425603 1.888075 0
M  V30 19 C -1.791732 -0.358917 1.335224 0
M  V30 20 N -2.434758 -0.024944 0.143676 0
M  V30 21 C -3.559603 -0.315745 -0.660928 0 CFG=2
M  V30 22 C -3.688350 -1.726608 -1.193554 0
M  V30 23 C -3.312855 -1.212226 -2.571627 0 CFG=2
M  V30 24 O -1.963926 -1.518555 -2.822951 0
M  V30 25 C -3.558815 0.173396 -2.086714 0
M  V30 26 C -2.376664 1.070314 -2.419592 0
M  V30 27 C -4.882186 0.806175 -2.470816 0
M  V30 28 N -0.612144 0.174386 1.682984 0
M  V30 29 H 4.363010 -3.636093 1.159475 0
M  V30 30 H 3.787686 -3.192616 -0.443799 0
M  V30 31 H 5.337943 -2.509223 0.044225 0
M  V30 32 H 1.504200 -1.265966 0.558875 0
M  V30 33 H 1.986071 -2.941064 0.534414 0
M  V30 34 H 1.880426 -2.233778 2.112134 0
M  V30 35 H 6.909524 -1.652986 3.976606 0
M  V30 36 H 4.235739 1.463693 4.287162 0
M  V30 37 H 2.830220 2.019740 2.688956 0
M  V30 38 H 2.611466 1.255617 1.169932 0
M  V30 39 H 0.879931 1.360816 3.431430 0
M  V30 40 H -1.872001 -2.285340 4.185274 0
M  V30 41 H -1.918109 0.734612 -0.367892 0
M  V30 42 H -4.513227 -0.057109 -0.132694 0
M  V30 43 H -4.729876 -2.119879 -1.211340 0
M  V30 44 H -2.971699 -2.431009 -0.736175 0
M  V30 45 H -4.010918 -1.529244 -3.382397 0
M  V30 46 H -1.928101 -1.905292 -3.722012 0
M  V30 47 H -2.458471 1.992887 -1.840811 0
M  V30 48 H -2.450113 1.276040 -3.525467 0
M  V30 49 H -1.452744 0.491380 -2.295139 0
M  V30 50 H -4.695091 1.588821 -3.240094 0
M  V30 51 H -5.294056 1.297769 -1.580801 0
M  V30 52 H -5.568484 0.022371 -2.802974 0
M  V30 END ATOM
M  V30 BEGIN BOND
M  V30 1 1 1 2
M  V30 2 1 2 3
M  V30 3 1 2 4
M  V30 4 1 2 5
M  V30 5 2 5 6
M  V30 6 1 6 7
M  V30 7 2 7 8
M  V30 8 1 8 9
M  V30 9 2 9 10
M  V30 10 1 10 11
M  V30 11 1 11 12
M  V30 12 1 12 13
M  V30 13 2 13 14
M  V30 14 1 14 15
M  V30 15 2 15 16
M  V30 16 1 16 17
M  V30 17 3 17 18
M  V30 18 1 16 19
M  V30 19 1 19 20
M  V30 20 1 20 21
M  V30 21 1 21 22
M  V30 22 1 22 23
M  V30 23 1 23 24
M  V30 24 1 23 25
M  V30 25 1 25 26
M  V30 26 1 25 27
M  V30 27 2 19 28
M  V30 28 1 10 5
M  V30 29 1 28 13
M  V30 30 1 25 21
M  V30 31 1 1 29
M  V30 32 1 1 30
M  V30 33 1 1 31
M  V30 34 1 3 32
M  V30 35 1 3 33
M  V30 36 1 3 34
M  V30 37 1 7 35
M  V30 38 1 9 36
M  V30 39 1 11 37
M  V30 40 1 11 38
M  V30 41 1 12 39
M  V30 42 1 15 40
M  V30 43 1 20 41
M  V30 44 1 21 42 CFG=1
M  V30 45 1 22 43
M  V30 46 1 22 44
M  V30 47 1 23 45 CFG=3
M  V30 48 1 24 46
M  V30 49 1 26 47
M  V30 50 1 26 48
M  V30 51 1 26 49
M  V30 52 1 27 50
M  V30 53 1 27 51
M  V30 54 1 27 52
M  V30 END BOND
M  V30 END CTAB
M  END
>  <Dataset>  (21) 
ChEMBL_Kinases

>  <Ligand_Instance>  (21) 
nan

>  <PDB_ID>  (21) 
nan

>  <Standardized_SMILES>  (21) 
CC(C)(F)c1ncncc1CNc1ncc(C#N)c(N[C@@H]2C[C@H](O)C2(C)C)n1

>  <Name>  (21) 
nan

>  <Pocket>  (21) 
nan

>  <ATP_Site>  (21) 
nan

>  <Peripheral>  (21) 
nan

>  <Num_H_Atoms_ProtBoundConf>  (21) 
nan

>  <Num_Resolved_Atoms>  (21) 
nan

>  <Num_Not_Resolved_Atoms>  (21) 
nan

$$$$
CHEMBL4855347
     RDKit          3D

  0  0  0  0  0  0  0  0  0  0999 V3000
M  V30 BEGIN CTAB
M  V30 COUNTS 69 73 0 0 0
M  V30 BEGIN ATOM
M  V30 1 C 4.108332 -1.324184 5.483216 0
M  V30 2 C 3.417825 -1.644256 4.152692 0
M  V30 3 C 2.726708 -2.977826 4.370518 0
M  V30 4 N 2.494032 -0.578071 3.843106 0
M  V30 5 C 2.376513 0.614700 4.459252 0
M  V30 6 O 3.040221 1.045969 5.424088 0
M  V30 7 C 1.368207 1.325615 3.840585 0
M  V30 8 C 0.793055 2.565753 4.005231 0
M  V30 9 N -0.202537 2.936303 3.188871 0
M  V30 10 C -0.686553 2.164030 2.201409 0
M  V30 11 N -1.745079 2.641605 1.385311 0
M  V30 12 C -2.387425 1.991523 0.307717 0
M  V30 13 C -3.419268 2.626240 -0.383232 0
M  V30 14 C -4.077588 2.056054 -1.428019 0
M  V30 15 C -3.744284 0.790601 -1.861605 0
M  V30 16 C -2.736857 0.124159 -1.215948 0
M  V30 17 C -2.110627 0.750453 -0.170134 0
M  V30 18 C -2.383673 -1.237365 -1.687849 0
M  V30 19 C -3.702446 -1.860696 -2.155801 0
M  V30 20 N -4.203025 -1.122383 -3.279372 0
M  V30 21 C -4.514924 0.256162 -3.002435 0
M  V30 22 C -5.960221 0.540785 -2.761806 0
M  V30 23 C -4.076983 1.050028 -4.231036 0
M  V30 24 N -0.094761 0.968826 2.082107 0
M  V30 25 C 0.899372 0.509704 2.842005 0
M  V30 26 N 1.605676 -0.653127 2.863103 0
M  V30 27 C 1.320065 -1.700042 1.913727 0
M  V30 28 C 0.433234 -2.753080 2.013218 0
M  V30 29 C 0.353442 -3.623196 0.947047 0
M  V30 30 C 1.138362 -3.430495 -0.166162 0
M  V30 31 F 1.011687 -4.325673 -1.184615 0
M  V30 32 C 2.026205 -2.367189 -0.253200 0
M  V30 33 C 2.859406 -2.190172 -1.473050 0
M  V30 34 C 3.623475 -0.875765 -1.271646 0
M  V30 35 C 3.842852 -3.320108 -1.664530 0
M  V30 36 O 2.093813 -2.020967 -2.629481 0
M  V30 37 N 2.071457 -1.547425 0.803900 0
M  V30 38 H 3.302175 -1.153664 6.236608 0
M  V30 39 H 4.649683 -2.241974 5.833748 0
M  V30 40 H 4.806196 -0.487956 5.379369 0
M  V30 41 H 4.222606 -1.744163 3.394062 0
M  V30 42 H 1.664608 -2.808670 4.639496 0
M  V30 43 H 3.164530 -3.541480 5.245673 0
M  V30 44 H 2.772852 -3.635500 3.482267 0
M  V30 45 H 1.144964 3.224555 4.783528 0
M  V30 46 H -2.104170 3.616678 1.612231 0
M  V30 47 H -3.727733 3.639128 -0.079972 0
M  V30 48 H -4.880115 2.620305 -1.921688 0
M  V30 49 H -1.331398 0.165508 0.286243 0
M  V30 50 H -1.708363 -1.228664 -2.556371 0
M  V30 51 H -1.952967 -1.846431 -0.868499 0
M  V30 52 H -3.456649 -2.871822 -2.511602 0
M  V30 53 H -4.415904 -1.937905 -1.313865 0
M  V30 54 H -4.914621 -1.610014 -3.829134 0
M  V30 55 H -6.211370 1.549991 -3.198919 0
M  V30 56 H -6.656622 -0.194588 -3.169200 0
M  V30 57 H -6.179575 0.648985 -1.675744 0
M  V30 58 H -3.808546 2.092161 -3.960222 0
M  V30 59 H -3.163586 0.562007 -4.620939 0
M  V30 60 H -4.884790 0.964376 -4.975536 0
M  V30 61 H -0.101400 -2.752642 2.954055 0
M  V30 62 H -0.362244 -4.428365 1.089247 0
M  V30 63 H 4.186902 -0.675403 -2.205921 0
M  V30 64 H 4.308903 -0.926615 -0.417016 0
M  V30 65 H 2.861949 -0.067216 -1.175140 0
M  V30 66 H 3.585777 -4.182077 -1.022340 0
M  V30 67 H 4.883938 -2.971513 -1.486804 0
M  V30 68 H 3.830827 -3.657359 -2.729089 0
M  V30 69 H 2.525292 -1.331940 -3.221385 0
M  V30 END ATOM
M  V30 BEGIN BOND
M  V30 1 1 1 2
M  V30 2 1 2 3
M  V30 3 1 2 4
M  V30 4 1 4 5
M  V30 5 2 5 6
M  V30 6 1 5 7
M  V30 7 2 7 8
M  V30 8 1 8 9
M  V30 9 2 9 10
M  V30 10 1 10 11
M  V30 11 1 11 12
M  V30 12 2 12 13
M  V30 13 1 13 14
M  V30 14 2 14 15
M  V30 15 1 15 16
M  V30 16 2 16 17
M  V30 17 1 16 18
M  V30 18 1 18 19
M  V30 19 1 19 20
M  V30 20 1 20 21
M  V30 21 1 21 22
M  V30 22 1 21 23
M  V30 23 1 10 24
M  V30 24 2 24 25
M  V30 25 1 25 26
M  V30 26 1 26 27
M  V30 27 2 27 28
M  V30 28 1 28 29
M  V30 29 2 29 30
M  V30 30 1 30 31
M  V30 31 1 30 32
M  V30 32 1 32 33
M  V30 33 1 33 34
M  V30 34 1 33 35
M  V30 35 1 33 36
M  V30 36 2 32 37
M  V30 37 1 26 4
M  V30 38 1 37 27
M  V30 39 1 25 7
M  V30 40 1 17 12
M  V30 41 1 21 15
M  V30 42 1 1 38
M  V30 43 1 1 39
M  V30 44 1 1 40
M  V30 45 1 2 41
M  V30 46 1 3 42
M  V30 47 1 3 43
M  V30 48 1 3 44
M  V30 49 1 8 45
M  V30 50 1 11 46
M  V30 51 1 13 47
M  V30 52 1 14 48
M  V30 53 1 17 49
M  V30 54 1 18 50
M  V30 55 1 18 51
M  V30 56 1 19 52
M  V30 57 1 19 53
M  V30 58 1 20 54
M  V30 59 1 22 55
M  V30 60 1 22 56
M  V30 61 1 22 57
M  V30 62 1 23 58
M  V30 63 1 23 59
M  V30 64 1 23 60
M  V30 65 1 28 61
M  V30 66 1 29 62
M  V30 67 1 34 63
M  V30 68 1 34 64
M  V30 69 1 34 65
M  V30 70 1 35 66
M  V30 71 1 35 67
M  V30 72 1 35 68
M  V30 73 1 36 69
M  V30 END BOND
M  V30 END CTAB
M  END
>  <Dataset>  (22) 
ChEMBL_Kinases

>  <Ligand_Instance>  (22) 
nan

>  <PDB_ID>  (22) 
nan

>  <Standardized_SMILES>  (22) 
CC(C)n1c(=O)c2cnc(Nc3ccc4c(c3)CCNC4(C)C)nc2n1-c1ccc(F)c(C(C)(C)O)n1

>  <Name>  (22) 
nan

>  <Pocket>  (22) 
nan

>  <ATP_Site>  (22) 
nan

>  <Peripheral>  (22) 
nan

>  <Num_H_Atoms_ProtBoundConf>  (22) 
nan

>  <Num_Resolved_Atoms>  (22) 
nan

>  <Num_Not_Resolved_Atoms>  (22) 
nan

$$$$
CHEMBL4854253
     RDKit          3D

  0  0  0  0  0  0  0  0  0  0999 V3000
M  V30 BEGIN CTAB
M  V30 COUNTS 58 63 0 0 0
M  V30 BEGIN ATOM
M  V30 1 N 0.286785 1.543683 3.069320 0
M  V30 2 C 1.216031 0.971978 2.675531 0
M  V30 3 C 2.368620 0.239740 2.166896 0
M  V30 4 C 2.816601 0.518600 0.762174 0
M  V30 5 C 4.090117 0.978255 0.548444 0
M  V30 6 C 4.425715 1.210540 -0.765584 0
M  V30 7 C 3.482906 0.969832 -1.733067 0
M  V30 8 C 2.212357 0.513284 -1.544761 0
M  V30 9 N 1.165827 0.240404 -2.447693 0
M  V30 10 C 0.206875 -0.700250 -2.194315 0
M  V30 11 N 0.040667 -1.558660 -1.145920 0
M  V30 12 C -0.992143 -2.419538 -1.091689 0
M  V30 13 N -0.999545 -3.232239 0.073480 0
M  V30 14 C -1.603467 -3.005694 1.338555 0
M  V30 15 C -1.421496 -3.999152 2.267753 0
M  V30 16 C -1.982261 -3.840462 3.514661 0
M  V30 17 C -2.698163 -2.690544 3.765013 0
M  V30 18 C -2.877857 -1.684250 2.811641 0
M  V30 19 C -2.305966 -1.850665 1.546565 0
M  V30 20 C -3.659765 -0.504618 3.193224 0
M  V30 21 N -4.846026 -0.768424 3.946030 0
M  V30 22 C -4.826903 -2.034809 4.644095 0
M  V30 23 C -3.391319 -2.313319 5.047956 0
M  V30 24 N -1.905526 -2.457092 -2.089064 0
M  V30 25 C -1.750962 -1.606128 -3.140142 0
M  V30 26 C -0.702353 -0.711967 -3.224279 0
M  V30 27 C -0.271193 0.246886 -4.114174 0
M  V30 28 O -0.927228 0.449901 -5.161937 0
M  V30 29 N 0.849966 0.782513 -3.598921 0
M  V30 30 C 1.458896 1.838063 -4.369625 0
M  V30 31 C 2.316478 1.357983 -5.484364 0
M  V30 32 F 3.371260 0.568664 -5.185544 0
M  V30 33 F 1.537726 0.810111 -6.524044 0
M  V30 34 F 2.858473 2.514436 -6.078971 0
M  V30 35 N 1.943703 0.303194 -0.219990 0
M  V30 36 C 2.617257 -1.164647 2.669308 0
M  V30 37 C 3.422845 -0.048411 3.188741 0
M  V30 38 H 4.814862 1.160517 1.324492 0
M  V30 39 H 5.403270 1.573375 -1.045578 0
M  V30 40 H 3.781315 1.168857 -2.742082 0
M  V30 41 H -0.452270 -4.059668 -0.196213 0
M  V30 42 H -0.865212 -4.899411 2.082711 0
M  V30 43 H -1.924432 -4.530238 4.339736 0
M  V30 44 H -2.439782 -1.071714 0.795156 0
M  V30 45 H -3.010121 0.198334 3.788594 0
M  V30 46 H -3.969242 0.026109 2.262380 0
M  V30 47 H -5.111183 -0.003045 4.579459 0
M  V30 48 H -5.173817 -2.821489 3.949838 0
M  V30 49 H -5.503561 -1.961105 5.518284 0
M  V30 50 H -3.296497 -3.088250 5.809531 0
M  V30 51 H -2.986245 -1.332842 5.403243 0
M  V30 52 H -2.469045 -1.617185 -3.950935 0
M  V30 53 H 2.077010 2.511041 -3.736277 0
M  V30 54 H 0.700296 2.536701 -4.831551 0
M  V30 55 H 3.083178 -1.875032 1.940164 0
M  V30 56 H 1.828394 -1.632688 3.280357 0
M  V30 57 H 4.492052 -0.052207 2.943304 0
M  V30 58 H 3.238703 0.264893 4.257347 0
M  V30 END ATOM
M  V30 BEGIN BOND
M  V30 1 3 1 2
M  V30 2 1 2 3
M  V30 3 1 3 4
M  V30 4 2 4 5
M  V30 5 1 5 6
M  V30 6 2 6 7
M  V30 7 1 7 8
M  V30 8 1 8 9
M  V30 9 1 9 10
M  V30 10 2 10 11
M  V30 11 1 11 12
M  V30 12 1 12 13
M  V30 13 1 13 14
M  V30 14 2 14 15
M  V30 15 1 15 16
M  V30 16 2 16 17
M  V30 17 1 17 18
M  V30 18 2 18 19
M  V30 19 1 18 20
M  V30 20 1 20 21
M  V30 21 1 21 22
M  V30 22 1 22 23
M  V30 23 2 12 24
M  V30 24 1 24 25
M  V30 25 2 25 26
M  V30 26 1 26 27
M  V30 27 2 27 28
M  V30 28 1 27 29
M  V30 29 1 29 30
M  V30 30 1 30 31
M  V30 31 1 31 32
M  V30 32 1 31 33
M  V30 33 1 31 34
M  V30 34 2 8 35
M  V30 35 1 3 36
M  V30 36 1 36 37
M  V30 37 1 37 3
M  V30 38 1 35 4
M  V30 39 1 29 9
M  V30 40 1 26 10
M  V30 41 1 19 14
M  V30 42 1 23 17
M  V30 43 1 5 38
M  V30 44 1 6 39
M  V30 45 1 7 40
M  V30 46 1 13 41
M  V30 47 1 15 42
M  V30 48 1 16 43
M  V30 49 1 19 44
M  V30 50 1 20 45
M  V30 51 1 20 46
M  V30 52 1 21 47
M  V30 53 1 22 48
M  V30 54 1 22 49
M  V30 55 1 23 50
M  V30 56 1 23 51
M  V30 57 1 25 52
M  V30 58 1 30 53
M  V30 59 1 30 54
M  V30 60 1 36 55
M  V30 61 1 36 56
M  V30 62 1 37 57
M  V30 63 1 37 58
M  V30 END BOND
M  V30 END CTAB
M  END
>  <Dataset>  (23) 
ChEMBL_Kinases

>  <Ligand_Instance>  (23) 
nan

>  <PDB_ID>  (23) 
nan

>  <Standardized_SMILES>  (23) 
N#CC1(c2cccc(-n3c4nc(Nc5ccc6c(c5)CNCC6)ncc4c(=O)n3CC(F)(F)F)n2)CC1

>  <Name>  (23) 
nan

>  <Pocket>  (23) 
nan

>  <ATP_Site>  (23) 
nan

>  <Peripheral>  (23) 
nan

>  <Num_H_Atoms_ProtBoundConf>  (23) 
nan

>  <Num_Resolved_Atoms>  (23) 
nan

>  <Num_Not_Resolved_Atoms>  (23) 
nan

$$$$
CHEMBL4854271
     RDKit          3D

  0  0  0  0  0  0  0  0  0  0999 V3000
M  V30 BEGIN CTAB
M  V30 COUNTS 49 52 0 0 0
M  V30 BEGIN ATOM
M  V30 1 C 2.762441 -3.850612 1.725376 0
M  V30 2 O 2.632318 -2.955566 0.674543 0
M  V30 3 C 3.117759 -1.688952 0.545847 0
M  V30 4 C 3.884445 -1.064849 1.532994 0
M  V30 5 C 4.350146 0.223187 1.345871 0
M  V30 6 C 4.069604 0.923014 0.181293 0
M  V30 7 C 3.303354 0.276583 -0.785057 0
M  V30 8 C 2.817606 -1.005548 -0.642824 0
M  V30 9 C 2.017350 -1.680355 -1.658747 0
M  V30 10 C 1.053203 -1.040979 -2.296249 0
M  V30 11 N 0.377601 0.229935 -2.409851 0
M  V30 12 C -0.419714 0.373940 -1.250521 0
M  V30 13 C -0.099080 1.097445 -0.122989 0
M  V30 14 C -0.872947 1.227661 1.012320 0
M  V30 15 C -2.083831 0.576114 1.032804 0
M  V30 16 N -2.925467 0.668530 2.171864 0
M  V30 17 C -2.579066 1.306659 3.427048 0
M  V30 18 C -3.146236 0.688961 4.646990 0
M  V30 19 O -4.097589 -0.263198 4.526172 0
M  V30 20 C -4.180314 -0.919473 3.323475 0
M  V30 21 C -4.277114 0.147880 2.260142 0
M  V30 22 C -2.486481 -0.170788 -0.050512 0
M  V30 23 C -1.662365 -0.270292 -1.179605 0
M  V30 24 C 0.418834 -1.964628 -3.261022 0
M  V30 25 O -0.514641 -1.971668 -4.130738 0
M  V30 26 N 1.085475 -3.241033 -3.159393 0
M  V30 27 C 2.083231 -3.064040 -2.159618 0
M  V30 28 O 2.904967 -3.921061 -1.744049 0
M  V30 29 H 3.756227 -4.282693 1.892307 0
M  V30 30 H 2.487026 -3.313454 2.681342 0
M  V30 31 H 1.961758 -4.651449 1.664405 0
M  V30 32 H 4.112480 -1.609080 2.459135 0
M  V30 33 H 4.938142 0.663319 2.136127 0
M  V30 34 H 4.433251 1.942192 0.023020 0
M  V30 35 H 3.051572 0.781076 -1.724261 0
M  V30 36 H 0.509618 0.870150 -3.236659 0
M  V30 37 H 0.852240 1.619976 -0.126046 0
M  V30 38 H -0.488455 1.842100 1.841286 0
M  V30 39 H -2.985126 2.357722 3.327385 0
M  V30 40 H -1.484751 1.478729 3.548724 0
M  V30 41 H -2.295389 0.197221 5.211917 0
M  V30 42 H -3.502001 1.463112 5.358127 0
M  V30 43 H -3.223343 -1.511415 3.211115 0
M  V30 44 H -5.024384 -1.608233 3.321600 0
M  V30 45 H -4.699078 -0.216341 1.316646 0
M  V30 46 H -4.964605 0.953331 2.614236 0
M  V30 47 H -3.391809 -0.708798 -0.135392 0
M  V30 48 H -1.962572 -0.861158 -2.056119 0
M  V30 49 H 0.978609 -4.180624 -3.638857 0
M  V30 END ATOM
M  V30 BEGIN BOND
M  V30 1 1 1 2
M  V30 2 1 2 3
M  V30 3 2 3 4
M  V30 4 1 4 5
M  V30 5 2 5 6
M  V30 6 1 6 7
M  V30 7 2 7 8
M  V30 8 1 8 9
M  V30 9 2 9 10
M  V30 10 1 10 11
M  V30 11 1 11 12
M  V30 12 2 12 13
M  V30 13 1 13 14
M  V30 14 2 14 15
M  V30 15 1 15 16
M  V30 16 1 16 17
M  V30 17 1 17 18
M  V30 18 1 18 19
M  V30 19 1 19 20
M  V30 20 1 20 21
M  V30 21 1 15 22
M  V30 22 2 22 23
M  V30 23 1 10 24
M  V30 24 2 24 25
M  V30 25 1 24 26
M  V30 26 1 26 27
M  V30 27 2 27 28
M  V30 28 1 8 3
M  V30 29 1 27 9
M  V30 30 1 23 12
M  V30 31 1 21 16
M  V30 32 1 1 29
M  V30 33 1 1 30
M  V30 34 1 1 31
M  V30 35 1 4 32
M  V30 36 1 5 33
M  V30 37 1 6 34
M  V30 38 1 7 35
M  V30 39 1 11 36
M  V30 40 1 13 37
M  V30 41 1 14 38
M  V30 42 1 17 39
M  V30 43 1 17 40
M  V30 44 1 18 41
M  V30 45 1 18 42
M  V30 46 1 20 43
M  V30 47 1 20 44
M  V30 48 1 21 45
M  V30 49 1 21 46
M  V30 50 1 22 47
M  V30 51 1 23 48
M  V30 52 1 26 49
M  V30 END BOND
M  V30 END CTAB
M  END
>  <Dataset>  (24) 
ChEMBL_Kinases

>  <Ligand_Instance>  (24) 
nan

>  <PDB_ID>  (24) 
nan

>  <Standardized_SMILES>  (24) 
COc1ccccc1C1=C(Nc2ccc(N3CCOCC3)cc2)C(=O)NC1=O

>  <Name>  (24) 
nan

>  <Pocket>  (24) 
nan

>  <ATP_Site>  (24) 
nan

>  <Peripheral>  (24) 
nan

>  <Num_H_Atoms_ProtBoundConf>  (24) 
nan

>  <Num_Resolved_Atoms>  (24) 
nan

>  <Num_Not_Resolved_Atoms>  (24) 
nan

$$$$
CHEMBL4854297
     RDKit          3D

  0  0  0  0  0  0  0  0  0  0999 V3000
M  V30 BEGIN CTAB
M  V30 COUNTS 51 55 0 0 0
M  V30 BEGIN ATOM
M  V30 1 C 2.735237 0.784155 6.829793 0
M  V30 2 O 2.416481 -0.538315 6.531439 0
M  V30 3 C 2.602990 -1.170549 5.309834 0
M  V30 4 C 2.197048 -2.490950 5.291472 0
M  V30 5 C 2.363587 -3.174654 4.082075 0
M  V30 6 C 2.896637 -2.616774 2.938621 0
M  V30 7 C 3.292242 -1.278068 3.008373 0
M  V30 8 C 3.882167 -0.608062 1.795184 0
M  V30 9 N 2.805985 0.002699 1.001344 0
M  V30 10 C 2.538119 1.349202 1.396510 0
M  V30 11 C 1.591737 2.113700 0.544091 0
M  V30 12 O 0.323365 1.514901 0.370443 0
M  V30 13 C -0.012170 0.362936 -0.330376 0
M  V30 14 C -1.286525 0.272440 -0.900512 0
M  V30 15 C -1.606333 -0.875062 -1.592964 0
M  V30 16 C -2.957626 -0.857851 -2.143287 0
M  V30 17 C -3.984875 -0.188368 -1.497409 0
M  V30 18 C -5.290615 -0.128534 -1.958194 0
M  V30 19 C -5.568541 -0.783947 -3.139013 0
M  V30 20 N -6.736559 -0.887374 -3.805075 0
M  V30 21 N -6.492571 -1.620458 -4.888256 0
M  V30 22 C -5.202442 -1.988488 -4.933931 0
M  V30 23 C -4.595792 -1.462262 -3.822581 0
M  V30 24 C -3.292530 -1.499432 -3.325938 0
M  V30 25 C -0.730036 -1.930433 -1.746916 0
M  V30 26 C 0.532400 -1.863352 -1.193101 0
M  V30 27 C 0.861627 -0.702199 -0.489959 0
M  V30 28 C 2.247242 -0.872518 -0.000995 0
M  V30 29 O 2.987478 -1.773047 -0.430095 0
M  V30 30 C 3.142658 -0.560918 4.196830 0
M  V30 31 H 2.033702 1.532621 6.410258 0
M  V30 32 H 3.750681 1.004443 6.420523 0
M  V30 33 H 2.807259 0.887534 7.937253 0
M  V30 34 H 1.762993 -3.022649 6.144129 0
M  V30 35 H 2.052120 -4.209737 4.044904 0
M  V30 36 H 2.995960 -3.196564 2.046312 0
M  V30 37 H 4.619065 0.119928 2.138688 0
M  V30 38 H 4.335488 -1.389675 1.183660 0
M  V30 39 H 3.522245 1.898682 1.326250 0
M  V30 40 H 2.241202 1.470706 2.457323 0
M  V30 41 H 1.986707 2.348027 -0.459780 0
M  V30 42 H 1.443975 3.106653 1.034445 0
M  V30 43 H -1.903664 1.135870 -0.733361 0
M  V30 44 H -3.793660 0.336505 -0.565292 0
M  V30 45 H -6.047281 0.416895 -1.396388 0
M  V30 46 H -7.650910 -0.460874 -3.504781 0
M  V30 47 H -4.650751 -2.578496 -5.653111 0
M  V30 48 H -2.534913 -2.036737 -3.872011 0
M  V30 49 H -1.057519 -2.805765 -2.309395 0
M  V30 50 H 1.237019 -2.677901 -1.300404 0
M  V30 51 H 3.437601 0.465407 4.278031 0
M  V30 END ATOM
M  V30 BEGIN BOND
M  V30 1 1 1 2
M  V30 2 1 2 3
M  V30 3 2 3 4
M  V30 4 1 4 5
M  V30 5 2 5 6
M  V30 6 1 6 7
M  V30 7 1 7 8
M  V30 8 1 8 9
M  V30 9 1 9 10
M  V30 10 1 10 11
M  V30 11 1 11 12
M  V30 12 1 12 13
M  V30 13 2 13 14
M  V30 14 1 14 15
M  V30 15 1 15 16
M  V30 16 2 16 17
M  V30 17 1 17 18
M  V30 18 2 18 19
M  V30 19 1 19 20
M  V30 20 1 20 21
M  V30 21 2 21 22
M  V30 22 1 22 23
M  V30 23 2 23 24
M  V30 24 2 15 25
M  V30 25 1 25 26
M  V30 26 2 26 27
M  V30 27 1 27 28
M  V30 28 2 28 29
M  V30 29 2 7 30
M  V30 30 1 30 3
M  V30 31 1 28 9
M  V30 32 1 27 13
M  V30 33 1 24 16
M  V30 34 1 23 19
M  V30 35 1 1 31
M  V30 36 1 1 32
M  V30 37 1 1 33
M  V30 38 1 4 34
M  V30 39 1 5 35
M  V30 40 1 6 36
M  V30 41 1 8 37
M  V30 42 1 8 38
M  V30 43 1 10 39
M  V30 44 1 10 40
M  V30 45 1 11 41
M  V30 46 1 11 42
M  V30 47 1 14 43
M  V30 48 1 17 44
M  V30 49 1 18 45
M  V30 50 1 20 46
M  V30 51 1 22 47
M  V30 52 1 24 48
M  V30 53 1 25 49
M  V30 54 1 26 50
M  V30 55 1 30 51
M  V30 END BOND
M  V30 END CTAB
M  END
>  <Dataset>  (25) 
ChEMBL_Kinases

>  <Ligand_Instance>  (25) 
nan

>  <PDB_ID>  (25) 
nan

>  <Standardized_SMILES>  (25) 
COc1cccc(CN2CCOc3cc(-c4ccc5[nH]ncc5c4)ccc3C2=O)c1

>  <Name>  (25) 
nan

>  <Pocket>  (25) 
nan

>  <ATP_Site>  (25) 
nan

>  <Peripheral>  (25) 
nan

>  <Num_H_Atoms_ProtBoundConf>  (25) 
nan

>  <Num_Resolved_Atoms>  (25) 
nan

>  <Num_Not_Resolved_Atoms>  (25) 
nan

$$$$
CHEMBL4869534
     RDKit          3D

  0  0  0  0  0  0  0  0  0  0999 V3000
M  V30 BEGIN CTAB
M  V30 COUNTS 66 71 0 0 0
M  V30 BEGIN ATOM
M  V30 1 C 3.925356 2.681486 6.625494 0
M  V30 2 C 4.394583 2.170604 5.283482 0
M  V30 3 C 5.073962 0.831914 5.514553 0
M  V30 4 F 5.339145 3.012028 4.722873 0
M  V30 5 C 3.251013 2.048236 4.353394 0
M  V30 6 N 2.920596 0.864270 3.822206 0
M  V30 7 C 1.873587 0.686352 2.961973 0
M  V30 8 N 1.698149 -0.669087 2.521598 0
M  V30 9 C 1.344156 -1.115137 1.305778 0
M  V30 10 N 1.052217 -0.435061 0.167016 0
M  V30 11 C 0.724940 -1.159812 -0.929688 0
M  V30 12 N 0.360187 -0.803124 -2.255950 0
M  V30 13 C -0.932088 -1.062141 -2.794783 0
M  V30 14 C -1.945651 -1.635651 -2.060321 0
M  V30 15 C -3.174225 -1.880643 -2.665222 0
M  V30 16 C -3.437526 -1.568799 -4.005062 0
M  V30 17 C -2.380231 -0.993567 -4.692551 0
M  V30 18 C -1.159407 -0.742009 -4.118556 0
M  V30 19 C -2.742395 -0.692362 -6.125203 0
M  V30 20 C -4.160804 -0.147499 -6.068112 0
M  V30 21 N -5.073903 -1.235644 -5.746023 0
M  V30 22 C -4.791499 -1.895178 -4.511042 0
M  V30 23 C -4.808978 -3.412999 -4.753600 0
M  V30 24 C -5.854365 -1.658788 -3.460750 0
M  V30 25 N 0.689536 -2.521377 -0.892227 0
M  V30 26 C 0.980827 -3.219024 0.247202 0
M  V30 27 C 1.314202 -2.515117 1.366665 0
M  V30 28 C 1.664556 -2.875652 2.672285 0
M  V30 29 O 1.719376 -4.074813 3.019048 0
M  V30 30 N 1.883305 -1.717621 3.316486 0
M  V30 31 C 2.269747 -1.812931 4.710544 0
M  V30 32 C 1.375644 -1.077624 5.728315 0
M  V30 33 C 1.378094 -2.558547 5.655937 0
M  V30 34 C 1.113689 1.752334 2.612894 0
M  V30 35 C 1.443477 2.986619 3.155427 0
M  V30 36 C 2.515316 3.169118 4.035973 0
M  V30 37 F 2.762445 4.401419 4.511925 0
M  V30 38 H 3.493371 3.692381 6.563971 0
M  V30 39 H 4.815345 2.674280 7.308362 0
M  V30 40 H 3.227449 1.930040 7.046835 0
M  V30 41 H 5.906978 1.033689 6.253729 0
M  V30 42 H 5.574481 0.449222 4.604525 0
M  V30 43 H 4.416791 0.125127 6.023965 0
M  V30 44 H 1.113616 -0.337670 -2.789269 0
M  V30 45 H -1.750495 -1.880438 -1.020718 0
M  V30 46 H -3.925716 -2.339571 -2.006751 0
M  V30 47 H -0.405695 -0.288079 -4.746640 0
M  V30 48 H -2.827114 -1.637933 -6.717308 0
M  V30 49 H -2.085910 0.063016 -6.570993 0
M  V30 50 H -4.475325 0.246761 -7.059688 0
M  V30 51 H -4.263148 0.603804 -5.245834 0
M  V30 52 H -5.000243 -1.907430 -6.565547 0
M  V30 53 H -4.506575 -3.646857 -5.787222 0
M  V30 54 H -5.860525 -3.805779 -4.632400 0
M  V30 55 H -4.204634 -3.892219 -3.978283 0
M  V30 56 H -5.770015 -0.672293 -2.958043 0
M  V30 57 H -5.834664 -2.510108 -2.753474 0
M  V30 58 H -6.829138 -1.641335 -4.031276 0
M  V30 59 H 0.961992 -4.308861 0.319273 0
M  V30 60 H 3.363092 -1.806174 4.935927 0
M  V30 61 H 0.484246 -0.546761 5.362685 0
M  V30 62 H 1.898060 -0.546518 6.553550 0
M  V30 63 H 1.819555 -3.140664 6.490460 0
M  V30 64 H 0.465351 -3.070098 5.253569 0
M  V30 65 H 0.298108 1.591729 1.935550 0
M  V30 66 H 0.850506 3.870268 2.896306 0
M  V30 END ATOM
M  V30 BEGIN BOND
M  V30 1 1 1 2
M  V30 2 1 2 3
M  V30 3 1 2 4
M  V30 4 1 2 5
M  V30 5 2 5 6
M  V30 6 1 6 7
M  V30 7 1 7 8
M  V30 8 1 8 9
M  V30 9 2 9 10
M  V30 10 1 10 11
M  V30 11 1 11 12
M  V30 12 1 12 13
M  V30 13 2 13 14
M  V30 14 1 14 15
M  V30 15 2 15 16
M  V30 16 1 16 17
M  V30 17 2 17 18
M  V30 18 1 17 19
M  V30 19 1 19 20
M  V30 20 1 20 21
M  V30 21 1 21 22
M  V30 22 1 22 23
M  V30 23 1 22 24
M  V30 24 2 11 25
M  V30 25 1 25 26
M  V30 26 2 26 27
M  V30 27 1 27 28
M  V30 28 2 28 29
M  V30 29 1 28 30
M  V30 30 1 30 31
M  V30 31 1 31 32
M  V30 32 1 32 33
M  V30 33 2 7 34
M  V30 34 1 34 35
M  V30 35 2 35 36
M  V30 36 1 36 37
M  V30 37 1 36 5
M  V30 38 1 30 8
M  V30 39 1 33 31
M  V30 40 1 27 9
M  V30 41 1 18 13
M  V30 42 1 22 16
M  V30 43 1 1 38
M  V30 44 1 1 39
M  V30 45 1 1 40
M  V30 46 1 3 41
M  V30 47 1 3 42
M  V30 48 1 3 43
M  V30 49 1 12 44
M  V30 50 1 14 45
M  V30 51 1 15 46
M  V30 52 1 18 47
M  V30 53 1 19 48
M  V30 54 1 19 49
M  V30 55 1 20 50
M  V30 56 1 20 51
M  V30 57 1 21 52
M  V30 58 1 23 53
M  V30 59 1 23 54
M  V30 60 1 23 55
M  V30 61 1 24 56
M  V30 62 1 24 57
M  V30 63 1 24 58
M  V30 64 1 26 59
M  V30 65 1 31 60
M  V30 66 1 32 61
M  V30 67 1 32 62
M  V30 68 1 33 63
M  V30 69 1 33 64
M  V30 70 1 34 65
M  V30 71 1 35 66
M  V30 END BOND
M  V30 END CTAB
M  END
>  <Dataset>  (26) 
ChEMBL_Kinases

>  <Ligand_Instance>  (26) 
nan

>  <PDB_ID>  (26) 
nan

>  <Standardized_SMILES>  (26) 
CC(C)(F)c1nc(-n2c3nc(Nc4ccc5c(c4)CCNC5(C)C)ncc3c(=O)n2C2CC2)ccc1F

>  <Name>  (26) 
nan

>  <Pocket>  (26) 
nan

>  <ATP_Site>  (26) 
nan

>  <Peripheral>  (26) 
nan

>  <Num_H_Atoms_ProtBoundConf>  (26) 
nan

>  <Num_Resolved_Atoms>  (26) 
nan

>  <Num_Not_Resolved_Atoms>  (26) 
nan

$$$$
CHEMBL4854400
     RDKit          3D

  0  0  0  0  0  0  0  0  0  0999 V3000
M  V30 BEGIN CTAB
M  V30 COUNTS 57 61 0 0 0
M  V30 BEGIN ATOM
M  V30 1 C 2.610037 1.804725 5.716314 0
M  V30 2 O 2.752610 0.404346 5.592115 0
M  V30 3 C 2.996277 -0.157471 4.346633 0
M  V30 4 C 3.124744 -1.542394 4.304728 0
M  V30 5 C 3.366024 -2.119226 3.083442 0
M  V30 6 C 3.468562 -1.309794 1.968398 0
M  V30 7 C 3.342867 0.069705 1.994538 0
M  V30 8 C 3.486476 0.776068 0.701495 0
M  V30 9 N 2.173303 0.843896 0.086839 0
M  V30 10 C 1.381010 1.985321 0.377214 0
M  V30 11 C -0.044670 2.018075 0.106049 0
M  V30 12 C -0.748777 2.979724 1.080566 0
M  V30 13 C -0.255189 2.680271 -1.264829 0
M  V30 14 O -0.818787 0.871377 0.134724 0
M  V30 15 C -0.724926 -0.355551 -0.551921 0
M  V30 16 C -1.884307 -1.041287 -0.827674 0
M  V30 17 C -1.772977 -2.242231 -1.501540 0
M  V30 18 C -3.033305 -2.932894 -1.771189 0
M  V30 19 C -4.221881 -2.263486 -1.997935 0
M  V30 20 C -5.311631 -3.069659 -2.236140 0
M  V30 21 C -5.253327 -4.444582 -2.253769 0
M  V30 22 N -6.137201 -5.439436 -2.454162 0
M  V30 23 N -5.542718 -6.623133 -2.358936 0
M  V30 24 C -4.230335 -6.453608 -2.089328 0
M  V30 25 C -4.046878 -5.071065 -2.022527 0
M  V30 26 C -2.913175 -4.319962 -1.776512 0
M  V30 27 C -0.551179 -2.753688 -1.893053 0
M  V30 28 C 0.607160 -2.059990 -1.612818 0
M  V30 29 C 0.523443 -0.862015 -0.943119 0
M  V30 30 C 1.881958 -0.298763 -0.751699 0
M  V30 31 O 2.844831 -0.821802 -1.335976 0
M  V30 32 C 3.101166 0.617699 3.235670 0
M  V30 33 H 3.624774 2.277664 5.579165 0
M  V30 34 H 1.951417 2.233840 4.920057 0
M  V30 35 H 2.164917 2.086890 6.686869 0
M  V30 36 H 3.040389 -2.159725 5.193222 0
M  V30 37 H 3.463648 -3.187876 3.065280 0
M  V30 38 H 3.660833 -1.884697 1.060946 0
M  V30 39 H 3.770650 1.834352 0.968624 0
M  V30 40 H 4.236583 0.317083 0.043120 0
M  V30 41 H 1.904314 2.843213 -0.148772 0
M  V30 42 H 1.548522 2.245420 1.456734 0
M  V30 43 H -0.697289 2.481230 2.070369 0
M  V30 44 H -0.301313 3.981959 1.042345 0
M  V30 45 H -1.812443 3.079117 0.718099 0
M  V30 46 H -0.310609 3.765176 -1.218071 0
M  V30 47 H 0.597107 2.397326 -1.930878 0
M  V30 48 H -1.156118 2.283162 -1.768317 0
M  V30 49 H -2.773491 -0.556734 -0.480754 0
M  V30 50 H -4.243400 -1.185889 -1.979340 0
M  V30 51 H -6.259119 -2.581868 -2.417641 0
M  V30 52 H -7.136816 -5.192828 -2.651571 0
M  V30 53 H -3.459972 -7.207225 -1.949677 0
M  V30 54 H -2.002818 -4.841975 -1.603253 0
M  V30 55 H -0.502237 -3.683654 -2.411182 0
M  V30 56 H 1.580340 -2.420877 -1.899053 0
M  V30 57 H 3.004937 1.693995 3.259172 0
M  V30 END ATOM
M  V30 BEGIN BOND
M  V30 1 1 1 2
M  V30 2 1 2 3
M  V30 3 2 3 4
M  V30 4 1 4 5
M  V30 5 2 5 6
M  V30 6 1 6 7
M  V30 7 1 7 8
M  V30 8 1 8 9
M  V30 9 1 9 10
M  V30 10 1 10 11
M  V30 11 1 11 12
M  V30 12 1 11 13
M  V30 13 1 11 14
M  V30 14 1 14 15
M  V30 15 2 15 16
M  V30 16 1 16 17
M  V30 17 1 17 18
M  V30 18 2 18 19
M  V30 19 1 19 20
M  V30 20 2 20 21
M  V30 21 1 21 22
M  V30 22 1 22 23
M  V30 23 2 23 24
M  V30 24 1 24 25
M  V30 25 2 25 26
M  V30 26 2 17 27
M  V30 27 1 27 28
M  V30 28 2 28 29
M  V30 29 1 29 30
M  V30 30 2 30 31
M  V30 31 2 7 32
M  V30 32 1 32 3
M  V30 33 1 30 9
M  V30 34 1 29 15
M  V30 35 1 26 18
M  V30 36 1 25 21
M  V30 37 1 1 33
M  V30 38 1 1 34
M  V30 39 1 1 35
M  V30 40 1 4 36
M  V30 41 1 5 37
M  V30 42 1 6 38
M  V30 43 1 8 39
M  V30 44 1 8 40
M  V30 45 1 10 41
M  V30 46 1 10 42
M  V30 47 1 12 43
M  V30 48 1 12 44
M  V30 49 1 12 45
M  V30 50 1 13 46
M  V30 51 1 13 47
M  V30 52 1 13 48
M  V30 53 1 16 49
M  V30 54 1 19 50
M  V30 55 1 20 51
M  V30 56 1 22 52
M  V30 57 1 24 53
M  V30 58 1 26 54
M  V30 59 1 27 55
M  V30 60 1 28 56
M  V30 61 1 32 57
M  V30 END BOND
M  V30 END CTAB
M  END
>  <Dataset>  (27) 
ChEMBL_Kinases

>  <Ligand_Instance>  (27) 
nan

>  <PDB_ID>  (27) 
nan

>  <Standardized_SMILES>  (27) 
COc1cccc(CN2CC(C)(C)Oc3cc(-c4ccc5[nH]ncc5c4)ccc3C2=O)c1

>  <Name>  (27) 
nan

>  <Pocket>  (27) 
nan

>  <ATP_Site>  (27) 
nan

>  <Peripheral>  (27) 
nan

>  <Num_H_Atoms_ProtBoundConf>  (27) 
nan

>  <Num_Resolved_Atoms>  (27) 
nan

>  <Num_Not_Resolved_Atoms>  (27) 
nan

$$$$
CHEMBL4869281
     RDKit          3D

  0  0  0  0  0  0  0  0  0  0999 V3000
M  V30 BEGIN CTAB
M  V30 COUNTS 47 50 0 0 0
M  V30 BEGIN ATOM
M  V30 1 C -2.181734 2.417481 0.584184 0
M  V30 2 O -1.377240 1.438958 1.195608 0
M  V30 3 C -0.049970 1.308440 0.871573 0
M  V30 4 C 0.689895 2.038372 -0.024090 0
M  V30 5 C 2.022149 1.893814 -0.335621 0
M  V30 6 C 2.653437 0.865427 0.373398 0
M  V30 7 C 4.060667 0.632246 0.089086 0
M  V30 8 C 4.515986 -0.679920 0.203549 0
M  V30 9 C 5.823291 -1.078462 -0.037216 0
M  V30 10 C 6.739765 -0.123384 -0.414447 0
M  V30 11 C 6.321794 1.201140 -0.538835 0
M  V30 12 C 5.016566 1.563449 -0.292303 0
M  V30 13 C 1.974132 0.093492 1.287736 0
M  V30 14 C 0.619921 0.286116 1.562413 0
M  V30 15 C 0.090928 -0.673173 2.511873 0
M  V30 16 C -0.977009 -1.347355 2.142480 0
M  V30 17 N -1.680807 -1.257914 0.924133 0
M  V30 18 C -2.980294 -1.790970 0.719884 0
M  V30 19 C -4.017649 -1.045987 1.232817 0
M  V30 20 C -5.302251 -1.541007 1.025036 0
M  V30 21 C -5.457913 -2.734088 0.325990 0
M  V30 22 C -4.415019 -3.474001 -0.184187 0
M  V30 23 C -4.557005 -4.696949 -0.913005 0
M  V30 24 N -4.653890 -5.679170 -1.508150 0
M  V30 25 C -3.143995 -2.973959 0.028337 0
M  V30 26 C -1.369265 -2.254848 3.207717 0
M  V30 27 O -2.336350 -3.057092 3.224083 0
M  V30 28 N -0.410643 -2.030572 4.230146 0
M  V30 29 C 0.550427 -1.033515 3.849886 0
M  V30 30 O 1.539367 -0.541637 4.431118 0
M  V30 31 H -1.821258 2.566295 -0.450853 0
M  V30 32 H -1.989826 3.376711 1.120600 0
M  V30 33 H -3.261596 2.153264 0.610272 0
M  V30 34 H 0.164375 2.829712 -0.554504 0
M  V30 35 H 2.477536 2.532235 -1.058339 0
M  V30 36 H 3.879844 -1.493587 0.486004 0
M  V30 37 H 6.149972 -2.102514 0.057150 0
M  V30 38 H 7.776013 -0.354932 -0.621780 0
M  V30 39 H 6.976408 2.015759 -0.831284 0
M  V30 40 H 4.595733 2.563415 -0.359443 0
M  V30 41 H 2.566239 -0.670799 1.782024 0
M  V30 42 H -1.528425 -0.881271 -0.034506 0
M  V30 43 H -3.908002 -0.120367 1.777881 0
M  V30 44 H -6.152715 -1.006270 1.400839 0
M  V30 45 H -6.462066 -3.114223 0.165919 0
M  V30 46 H -2.225415 -3.455029 -0.321613 0
M  V30 47 H -0.354022 -2.507605 5.180034 0
M  V30 END ATOM
M  V30 BEGIN BOND
M  V30 1 1 1 2
M  V30 2 1 2 3
M  V30 3 2 3 4
M  V30 4 1 4 5
M  V30 5 2 5 6
M  V30 6 1 6 7
M  V30 7 2 7 8
M  V30 8 1 8 9
M  V30 9 2 9 10
M  V30 10 1 10 11
M  V30 11 2 11 12
M  V30 12 1 6 13
M  V30 13 2 13 14
M  V30 14 1 14 15
M  V30 15 2 15 16
M  V30 16 1 16 17
M  V30 17 1 17 18
M  V30 18 2 18 19
M  V30 19 1 19 20
M  V30 20 2 20 21
M  V30 21 1 21 22
M  V30 22 1 22 23
M  V30 23 3 23 24
M  V30 24 2 22 25
M  V30 25 1 16 26
M  V30 26 2 26 27
M  V30 27 1 26 28
M  V30 28 1 28 29
M  V30 29 2 29 30
M  V30 30 1 14 3
M  V30 31 1 29 15
M  V30 32 1 12 7
M  V30 33 1 25 18
M  V30 34 1 1 31
M  V30 35 1 1 32
M  V30 36 1 1 33
M  V30 37 1 4 34
M  V30 38 1 5 35
M  V30 39 1 8 36
M  V30 40 1 9 37
M  V30 41 1 10 38
M  V30 42 1 11 39
M  V30 43 1 12 40
M  V30 44 1 13 41
M  V30 45 1 17 42
M  V30 46 1 19 43
M  V30 47 1 20 44
M  V30 48 1 21 45
M  V30 49 1 25 46
M  V30 50 1 28 47
M  V30 END BOND
M  V30 END CTAB
M  END
>  <Dataset>  (28) 
ChEMBL_Kinases

>  <Ligand_Instance>  (28) 
nan

>  <PDB_ID>  (28) 
nan

>  <Standardized_SMILES>  (28) 
COc1ccc(-c2ccccc2)cc1C1=C(Nc2cccc(C#N)c2)C(=O)NC1=O

>  <Name>  (28) 
nan

>  <Pocket>  (28) 
nan

>  <ATP_Site>  (28) 
nan

>  <Peripheral>  (28) 
nan

>  <Num_H_Atoms_ProtBoundConf>  (28) 
nan

>  <Num_Resolved_Atoms>  (28) 
nan

>  <Num_Not_Resolved_Atoms>  (28) 
nan

$$$$
CHEMBL4855005
     RDKit          3D

  0  0  0  0  0  0  0  0  0  0999 V3000
M  V30 BEGIN CTAB
M  V30 COUNTS 53 57 0 0 0
M  V30 BEGIN ATOM
M  V30 1 C 0.855889 -2.978067 1.243222 0
M  V30 2 O -0.293804 -2.194061 1.427269 0
M  V30 3 C -0.182264 -0.827023 1.518878 0
M  V30 4 C 0.983536 -0.093476 1.446537 0
M  V30 5 C 0.959590 1.288199 1.554527 0
M  V30 6 C 2.291268 1.875011 1.456770 0
M  V30 7 C 3.370104 1.465050 2.238063 0
M  V30 8 C 4.570852 2.097418 2.059250 0
M  V30 9 C 4.766886 3.131020 1.134701 0
M  V30 10 C 3.635767 3.497591 0.376570 0
M  V30 11 C 2.369111 2.895827 0.502167 0
M  V30 12 O 1.339171 3.320509 -0.274796 0
M  V30 13 C 1.467146 4.213299 -1.336705 0
M  V30 14 C 2.934453 4.271285 -1.771788 0
M  V30 15 O 3.704106 4.528367 -0.593114 0
M  V30 16 C -0.266953 1.919964 1.739863 0
M  V30 17 C -1.432028 1.186405 1.812388 0
M  V30 18 C -1.406562 -0.216650 1.700711 0
M  V30 19 C -2.702811 -0.909841 1.751729 0
M  V30 20 C -3.090918 -1.833706 0.890343 0
M  V30 21 N -2.644475 -2.516904 -0.257289 0
M  V30 22 C -2.226444 -3.831116 -0.555942 0
M  V30 23 C -1.902073 -4.082240 -1.872996 0
M  V30 24 C -1.479447 -5.328596 -2.262355 0
M  V30 25 C -1.395187 -6.307492 -1.284377 0
M  V30 26 C -1.718188 -6.055194 0.021947 0
M  V30 27 C -1.608553 -7.111077 0.976225 0
M  V30 28 N -1.539382 -7.958659 1.750072 0
M  V30 29 C -2.136367 -4.816106 0.396659 0
M  V30 30 C -4.419493 -2.286197 1.272872 0
M  V30 31 O -5.305589 -3.119833 0.874684 0
M  V30 32 N -4.871494 -1.588352 2.450744 0
M  V30 33 C -3.766811 -0.707530 2.752523 0
M  V30 34 O -3.686046 0.114031 3.706678 0
M  V30 35 H 1.593125 -2.695670 2.032907 0
M  V30 36 H 1.330649 -2.765081 0.245989 0
M  V30 37 H 0.626099 -4.061581 1.321944 0
M  V30 38 H 1.824430 -0.764578 1.302370 0
M  V30 39 H 3.212664 0.673910 2.942684 0
M  V30 40 H 5.426856 1.804855 2.650197 0
M  V30 41 H 5.700295 3.641074 0.975523 0
M  V30 42 H 1.122479 5.217256 -1.100290 0
M  V30 43 H 0.852087 3.801387 -2.164164 0
M  V30 44 H 3.195375 3.330617 -2.272615 0
M  V30 45 H 3.056704 5.129459 -2.435666 0
M  V30 46 H -0.160980 2.982604 1.809312 0
M  V30 47 H -2.340694 1.737417 1.955588 0
M  V30 48 H -2.680849 -1.744221 -0.985023 0
M  V30 49 H -1.964137 -3.317476 -2.664267 0
M  V30 50 H -1.224709 -5.526742 -3.283296 0
M  V30 51 H -1.058813 -7.303067 -1.593123 0
M  V30 52 H -2.384922 -4.627921 1.411396 0
M  V30 53 H -5.712582 -1.568079 3.072106 0
M  V30 END ATOM
M  V30 BEGIN BOND
M  V30 1 1 1 2
M  V30 2 1 2 3
M  V30 3 2 3 4
M  V30 4 1 4 5
M  V30 5 1 5 6
M  V30 6 2 6 7
M  V30 7 1 7 8
M  V30 8 2 8 9
M  V30 9 1 9 10
M  V30 10 2 10 11
M  V30 11 1 11 12
M  V30 12 1 12 13
M  V30 13 1 13 14
M  V30 14 1 14 15
M  V30 15 2 5 16
M  V30 16 1 16 17
M  V30 17 2 17 18
M  V30 18 1 18 19
M  V30 19 2 19 20
M  V30 20 1 20 21
M  V30 21 1 21 22
M  V30 22 2 22 23
M  V30 23 1 23 24
M  V30 24 2 24 25
M  V30 25 1 25 26
M  V30 26 1 26 27
M  V30 27 3 27 28
M  V30 28 2 26 29
M  V30 29 1 20 30
M  V30 30 2 30 31
M  V30 31 1 30 32
M  V30 32 1 32 33
M  V30 33 2 33 34
M  V30 34 1 18 3
M  V30 35 1 33 19
M  V30 36 1 11 6
M  V30 37 1 29 22
M  V30 38 1 15 10
M  V30 39 1 1 35
M  V30 40 1 1 36
M  V30 41 1 1 37
M  V30 42 1 4 38
M  V30 43 1 7 39
M  V30 44 1 8 40
M  V30 45 1 9 41
M  V30 46 1 13 42
M  V30 47 1 13 43
M  V30 48 1 14 44
M  V30 49 1 14 45
M  V30 50 1 16 46
M  V30 51 1 17 47
M  V30 52 1 21 48
M  V30 53 1 23 49
M  V30 54 1 24 50
M  V30 55 1 25 51
M  V30 56 1 29 52
M  V30 57 1 32 53
M  V30 END BOND
M  V30 END CTAB
M  END
>  <Dataset>  (29) 
ChEMBL_Kinases

>  <Ligand_Instance>  (29) 
nan

>  <PDB_ID>  (29) 
nan

>  <Standardized_SMILES>  (29) 
COc1cc(-c2cccc3c2OCCO3)ccc1C1=C(Nc2cccc(C#N)c2)C(=O)NC1=O

>  <Name>  (29) 
nan

>  <Pocket>  (29) 
nan

>  <ATP_Site>  (29) 
nan

>  <Peripheral>  (29) 
nan

>  <Num_H_Atoms_ProtBoundConf>  (29) 
nan

>  <Num_Resolved_Atoms>  (29) 
nan

>  <Num_Not_Resolved_Atoms>  (29) 
nan

$$$$
CHEMBL4855151
     RDKit          3D

  0  0  0  0  0  0  0  0  0  0999 V3000
M  V30 BEGIN CTAB
M  V30 COUNTS 61 66 0 0 0
M  V30 BEGIN ATOM
M  V30 1 C 2.390874 -3.256813 3.910630 0
M  V30 2 C 3.575263 -2.574039 3.244994 0
M  V30 3 C 4.224641 -3.481509 2.252834 0
M  V30 4 N 3.185459 -1.280308 2.670105 0
M  V30 5 C 3.825750 -0.095945 2.892316 0
M  V30 6 O 4.841000 0.086372 3.614627 0
M  V30 7 C 3.163833 0.858709 2.187156 0
M  V30 8 C 3.336362 2.196826 2.024702 0
M  V30 9 N 2.484598 2.865859 1.239355 0
M  V30 10 C 1.449226 2.325222 0.580121 0
M  V30 11 N 0.625925 3.147109 -0.217207 0
M  V30 12 C -0.501368 2.773297 -0.981713 0
M  V30 13 C -1.202789 3.722687 -1.715467 0
M  V30 14 C -2.305868 3.420265 -2.477356 0
M  V30 15 C -2.779511 2.130797 -2.551301 0
M  V30 16 C -2.119375 1.151097 -1.841915 0
M  V30 17 C -1.020697 1.522341 -1.098355 0
M  V30 18 C -2.618038 -0.244788 -1.911397 0
M  V30 19 C -3.313813 -0.406384 -3.248448 0
M  V30 20 N -4.426809 0.530947 -3.249404 0
M  V30 21 C -3.968904 1.898950 -3.393381 0
M  V30 22 N 1.306806 1.008094 0.760599 0
M  V30 23 C 2.112761 0.263623 1.528019 0
M  V30 24 N 2.171874 -1.046402 1.858228 0
M  V30 25 C 1.262696 -2.039540 1.392452 0
M  V30 26 C 1.778248 -2.771875 0.316997 0
M  V30 27 C 1.043740 -3.780650 -0.272753 0
M  V30 28 N -0.182937 -4.061739 0.193711 0
M  V30 29 C -0.686734 -3.376740 1.212964 0
M  V30 30 C -2.029368 -3.677996 1.730135 0
M  V30 31 C -2.087252 -3.770057 3.191947 0
M  V30 32 N -2.150357 -3.854270 4.355353 0
M  V30 33 C -3.134126 -2.863016 1.033788 0
M  V30 34 C -3.063494 -4.338937 0.924539 0
M  V30 35 C 0.014421 -2.361473 1.830012 0
M  V30 36 H 1.692300 -2.430218 4.196472 0
M  V30 37 H 2.695450 -3.713176 4.892178 0
M  V30 38 H 1.914333 -4.017963 3.264008 0
M  V30 39 H 4.313012 -2.378131 4.064200 0
M  V30 40 H 3.516780 -4.321288 2.045306 0
M  V30 41 H 4.600058 -2.980797 1.340979 0
M  V30 42 H 5.117241 -3.981395 2.698127 0
M  V30 43 H 4.149586 2.718601 2.521304 0
M  V30 44 H 0.875744 4.173819 -0.253803 0
M  V30 45 H -0.875721 4.773117 -1.699341 0
M  V30 46 H -2.800615 4.221825 -3.023711 0
M  V30 47 H -0.564883 0.698915 -0.576445 0
M  V30 48 H -1.822926 -0.988480 -1.734086 0
M  V30 49 H -3.417448 -0.306498 -1.116611 0
M  V30 50 H -3.748895 -1.414325 -3.279808 0
M  V30 51 H -2.625213 -0.251532 -4.083542 0
M  V30 52 H -5.124107 0.299487 -3.990936 0
M  V30 53 H -4.775736 2.560884 -3.021708 0
M  V30 54 H -3.809058 2.163471 -4.468858 0
M  V30 55 H 2.755379 -2.647774 -0.157770 0
M  V30 56 H 1.387402 -4.381010 -1.105656 0
M  V30 57 H -3.785814 -2.322815 1.721141 0
M  V30 58 H -2.879828 -2.313087 0.107307 0
M  V30 59 H -3.844626 -4.889661 1.494792 0
M  V30 60 H -2.857435 -4.803701 -0.051960 0
M  V30 61 H -0.314834 -1.748593 2.666966 0
M  V30 END ATOM
M  V30 BEGIN BOND
M  V30 1 1 1 2
M  V30 2 1 2 3
M  V30 3 1 2 4
M  V30 4 1 4 5
M  V30 5 2 5 6
M  V30 6 1 5 7
M  V30 7 2 7 8
M  V30 8 1 8 9
M  V30 9 2 9 10
M  V30 10 1 10 11
M  V30 11 1 11 12
M  V30 12 2 12 13
M  V30 13 1 13 14
M  V30 14 2 14 15
M  V30 15 1 15 16
M  V30 16 2 16 17
M  V30 17 1 16 18
M  V30 18 1 18 19
M  V30 19 1 19 20
M  V30 20 1 20 21
M  V30 21 1 10 22
M  V30 22 2 22 23
M  V30 23 1 23 24
M  V30 24 1 24 25
M  V30 25 2 25 26
M  V30 26 1 26 27
M  V30 27 2 27 28
M  V30 28 1 28 29
M  V30 29 1 29 30
M  V30 30 1 30 31
M  V30 31 3 31 32
M  V30 32 1 30 33
M  V30 33 1 33 34
M  V30 34 2 29 35
M  V30 35 1 24 4
M  V30 36 1 35 25
M  V30 37 1 23 7
M  V30 38 1 34 30
M  V30 39 1 17 12
M  V30 40 1 21 15
M  V30 41 1 1 36
M  V30 42 1 1 37
M  V30 43 1 1 38
M  V30 44 1 2 39
M  V30 45 1 3 40
M  V30 46 1 3 41
M  V30 47 1 3 42
M  V30 48 1 8 43
M  V30 49 1 11 44
M  V30 50 1 13 45
M  V30 51 1 14 46
M  V30 52 1 17 47
M  V30 53 1 18 48
M  V30 54 1 18 49
M  V30 55 1 19 50
M  V30 56 1 19 51
M  V30 57 1 20 52
M  V30 58 1 21 53
M  V30 59 1 21 54
M  V30 60 1 26 55
M  V30 61 1 27 56
M  V30 62 1 33 57
M  V30 63 1 33 58
M  V30 64 1 34 59
M  V30 65 1 34 60
M  V30 66 1 35 61
M  V30 END BOND
M  V30 END CTAB
M  END
>  <Dataset>  (30) 
ChEMBL_Kinases

>  <Ligand_Instance>  (30) 
nan

>  <PDB_ID>  (30) 
nan

>  <Standardized_SMILES>  (30) 
CC(C)n1c(=O)c2cnc(Nc3ccc4c(c3)CCNC4)nc2n1-c1ccnc(C2(C#N)CC2)c1

>  <Name>  (30) 
nan

>  <Pocket>  (30) 
nan

>  <ATP_Site>  (30) 
nan

>  <Peripheral>  (30) 
nan

>  <Num_H_Atoms_ProtBoundConf>  (30) 
nan

>  <Num_Resolved_Atoms>  (30) 
nan

>  <Num_Not_Resolved_Atoms>  (30) 
nan

$$$$
CHEMBL4855321
     RDKit          3D

  0  0  0  0  0  0  0  0  0  0999 V3000
M  V30 BEGIN CTAB
M  V30 COUNTS 35 37 0 0 0
M  V30 BEGIN ATOM
M  V30 1 O 0.274576 0.853274 4.856134 0
M  V30 2 C 0.987547 0.329046 3.962310 0
M  V30 3 N 2.146769 -0.525432 4.053053 0
M  V30 4 C 2.491228 -0.772866 2.689346 0
M  V30 5 O 3.512159 -1.522413 2.513020 0
M  V30 6 C 1.557875 -0.080531 1.784364 0
M  V30 7 C 1.845502 -0.249593 0.361841 0
M  V30 8 C 2.110001 -1.525723 -0.159928 0
M  V30 9 C 2.397758 -1.676647 -1.511047 0
M  V30 10 C 2.422922 -0.575811 -2.335929 0
M  V30 11 C 2.168148 0.691309 -1.856457 0
M  V30 12 C 1.886193 0.813426 -0.514613 0
M  V30 13 Cl 1.599205 2.455045 0.013048 0
M  V30 14 C 0.694592 0.551174 2.568557 0
M  V30 15 N -0.346737 1.302922 1.959524 0
M  V30 16 C -1.305885 0.626843 1.132028 0
M  V30 17 C -2.310296 1.281735 0.433799 0
M  V30 18 C -3.230929 0.643963 -0.344092 0
M  V30 19 C -3.186782 -0.731429 -0.462202 0
M  V30 20 C -2.206826 -1.417954 0.215146 0
M  V30 21 C -2.250752 -2.885096 0.023770 0
M  V30 22 F -3.516680 -3.300675 0.404013 0
M  V30 23 F -2.133582 -3.183129 -1.327888 0
M  V30 24 F -1.256884 -3.539482 0.697291 0
M  V30 25 C -1.273508 -0.760099 1.003987 0
M  V30 26 H 2.552841 -0.829587 4.954516 0
M  V30 27 H 2.073018 -2.353074 0.536601 0
M  V30 28 H 2.600661 -2.680555 -1.897689 0
M  V30 29 H 2.654726 -0.786055 -3.370007 0
M  V30 30 H 2.200714 1.526811 -2.544428 0
M  V30 31 H -0.512163 2.333004 2.053273 0
M  V30 32 H -2.314822 2.373241 0.550428 0
M  V30 33 H -3.951277 1.287108 -0.827200 0
M  V30 34 H -3.949884 -1.181702 -1.097004 0
M  V30 35 H -0.535264 -1.362505 1.511724 0
M  V30 END ATOM
M  V30 BEGIN BOND
M  V30 1 2 1 2
M  V30 2 1 2 3
M  V30 3 1 3 4
M  V30 4 2 4 5
M  V30 5 1 4 6
M  V30 6 1 6 7
M  V30 7 2 7 8
M  V30 8 1 8 9
M  V30 9 2 9 10
M  V30 10 1 10 11
M  V30 11 2 11 12
M  V30 12 1 12 13
M  V30 13 2 6 14
M  V30 14 1 14 15
M  V30 15 1 15 16
M  V30 16 2 16 17
M  V30 17 1 17 18
M  V30 18 2 18 19
M  V30 19 1 19 20
M  V30 20 1 20 21
M  V30 21 1 21 22
M  V30 22 1 21 23
M  V30 23 1 21 24
M  V30 24 2 20 25
M  V30 25 1 14 2
M  V30 26 1 25 16
M  V30 27 1 12 7
M  V30 28 1 3 26
M  V30 29 1 8 27
M  V30 30 1 9 28
M  V30 31 1 10 29
M  V30 32 1 11 30
M  V30 33 1 15 31
M  V30 34 1 17 32
M  V30 35 1 18 33
M  V30 36 1 19 34
M  V30 37 1 25 35
M  V30 END BOND
M  V30 END CTAB
M  END
>  <Dataset>  (31) 
ChEMBL_Kinases

>  <Ligand_Instance>  (31) 
nan

>  <PDB_ID>  (31) 
nan

>  <Standardized_SMILES>  (31) 
O=C1NC(=O)C(c2ccccc2Cl)=C1Nc1cccc(C(F)(F)F)c1

>  <Name>  (31) 
nan

>  <Pocket>  (31) 
nan

>  <ATP_Site>  (31) 
nan

>  <Peripheral>  (31) 
nan

>  <Num_H_Atoms_ProtBoundConf>  (31) 
nan

>  <Num_Resolved_Atoms>  (31) 
nan

>  <Num_Not_Resolved_Atoms>  (31) 
nan

$$$$
CHEMBL4869099
     RDKit          3D

  0  0  0  0  0  0  0  0  0  0999 V3000
M  V30 BEGIN CTAB
M  V30 COUNTS 39 41 0 0 0
M  V30 BEGIN ATOM
M  V30 1 C 2.084774 -4.810029 5.618788 0
M  V30 2 S 0.389001 -4.886308 4.934259 0
M  V30 3 C 0.205625 -3.488069 3.811914 0
M  V30 4 C 0.567864 -3.683081 2.494299 0
M  V30 5 C 0.413371 -2.586300 1.633338 0
M  V30 6 C -0.081309 -1.382254 2.118263 0
M  V30 7 N -0.124310 -0.469308 1.061477 0
M  V30 8 C -0.992651 -0.362757 -0.055855 0
M  V30 9 C -0.918752 0.595038 -0.950823 0
M  V30 10 C -0.060645 1.742744 -1.136474 0
M  V30 11 C -0.718329 2.923944 -0.859010 0
M  V30 12 C -0.095441 4.161167 -0.981223 0
M  V30 13 C 1.224333 4.186824 -1.396250 0
M  V30 14 C 1.837026 2.984592 -1.662291 0
M  V30 15 C 1.246270 1.719949 -1.552545 0
M  V30 16 C 1.963967 0.485910 -1.898449 0
M  V30 17 F 2.115691 -0.422567 -0.904861 0
M  V30 18 F 3.223651 0.856071 -2.392401 0
M  V30 19 F 1.359646 -0.157187 -2.990682 0
M  V30 20 C -2.003216 0.277717 -1.889139 0
M  V30 21 O -2.351022 0.911227 -2.943621 0
M  V30 22 N -2.705143 -0.894841 -1.506519 0
M  V30 23 C -2.054491 -1.324691 -0.305239 0
M  V30 24 O -2.336887 -2.334117 0.400838 0
M  V30 25 C -0.430307 -1.229137 3.439887 0
M  V30 26 C -0.290895 -2.287940 4.309834 0
M  V30 27 H 2.745287 -5.217210 4.802530 0
M  V30 28 H 2.182542 -5.342807 6.561311 0
M  V30 29 H 2.340595 -3.729994 5.686571 0
M  V30 30 H 0.953135 -4.657483 2.170186 0
M  V30 31 H 0.723115 -2.835994 0.604612 0
M  V30 32 H 0.658152 0.202927 1.235212 0
M  V30 33 H -1.761049 3.016073 -0.522511 0
M  V30 34 H -0.543348 5.119138 -0.779921 0
M  V30 35 H 1.820178 5.077600 -1.529221 0
M  V30 36 H 2.874838 2.975860 -1.987337 0
M  V30 37 H -3.502663 -1.413469 -1.898813 0
M  V30 38 H -0.799156 -0.231543 3.678194 0
M  V30 39 H -0.572482 -2.130500 5.327785 0
M  V30 END ATOM
M  V30 BEGIN BOND
M  V30 1 1 1 2
M  V30 2 1 2 3
M  V30 3 2 3 4
M  V30 4 1 4 5
M  V30 5 2 5 6
M  V30 6 1 6 7
M  V30 7 1 7 8
M  V30 8 2 8 9
M  V30 9 1 9 10
M  V30 10 2 10 11
M  V30 11 1 11 12
M  V30 12 2 12 13
M  V30 13 1 13 14
M  V30 14 2 14 15
M  V30 15 1 15 16
M  V30 16 1 16 17
M  V30 17 1 16 18
M  V30 18 1 16 19
M  V30 19 1 9 20
M  V30 20 2 20 21
M  V30 21 1 20 22
M  V30 22 1 22 23
M  V30 23 2 23 24
M  V30 24 1 6 25
M  V30 25 2 25 26
M  V30 26 1 26 3
M  V30 27 1 23 8
M  V30 28 1 15 10
M  V30 29 1 1 27
M  V30 30 1 1 28
M  V30 31 1 1 29
M  V30 32 1 4 30
M  V30 33 1 5 31
M  V30 34 1 7 32
M  V30 35 1 11 33
M  V30 36 1 12 34
M  V30 37 1 13 35
M  V30 38 1 14 36
M  V30 39 1 22 37
M  V30 40 1 25 38
M  V30 41 1 26 39
M  V30 END BOND
M  V30 END CTAB
M  END
>  <Dataset>  (32) 
ChEMBL_Kinases

>  <Ligand_Instance>  (32) 
nan

>  <PDB_ID>  (32) 
nan

>  <Standardized_SMILES>  (32) 
CSc1ccc(NC2=C(c3ccccc3C(F)(F)F)C(=O)NC2=O)cc1

>  <Name>  (32) 
nan

>  <Pocket>  (32) 
nan

>  <ATP_Site>  (32) 
nan

>  <Peripheral>  (32) 
nan

>  <Num_H_Atoms_ProtBoundConf>  (32) 
nan

>  <Num_Resolved_Atoms>  (32) 
nan

>  <Num_Not_Resolved_Atoms>  (32) 
nan

$$$$
CHEMBL4854224
     RDKit          3D

  0  0  0  0  0  0  0  0  0  0999 V3000
M  V30 BEGIN CTAB
M  V30 COUNTS 67 71 0 0 0
M  V30 BEGIN ATOM
M  V30 1 C 4.654894 -1.778010 4.895839 0
M  V30 2 C 5.376044 -1.642432 3.577130 0
M  V30 3 N 4.696467 -0.756219 2.666086 0
M  V30 4 C 4.784211 0.594921 3.198394 0
M  V30 5 C 4.369385 1.619376 2.159533 0
M  V30 6 C 3.632383 0.898298 1.022981 0
M  V30 7 O 3.163817 1.803686 0.077205 0
M  V30 8 C 1.852601 2.024740 -0.287885 0
M  V30 9 C 0.765066 1.357240 0.274660 0
M  V30 10 C -0.531129 1.644887 -0.158731 0
M  V30 11 C -0.776167 2.590944 -1.149511 0
M  V30 12 N -2.128492 2.834105 -1.551089 0
M  V30 13 C -3.123070 2.142154 -0.812737 0
M  V30 14 N -3.690546 2.877290 0.164961 0
M  V30 15 C -4.649754 2.421557 0.992298 0
M  V30 16 C -5.066331 1.099205 0.805577 0
M  V30 17 C -6.005392 0.329059 1.462553 0
M  V30 18 F -6.789411 0.719048 2.508769 0
M  V30 19 C -6.002174 -0.930331 0.851504 0
M  V30 20 N -5.083908 -0.876579 -0.128521 0
M  V30 21 C -4.763240 -1.984772 -0.995412 0
M  V30 22 C -5.445663 -2.551760 -2.051923 0
M  V30 23 C -4.851865 -3.623459 -2.678158 0
M  V30 24 C -3.631441 -4.123719 -2.283505 0
M  V30 25 C -2.969819 -3.538882 -1.224592 0
M  V30 26 C -1.633410 -4.062454 -0.766182 0
M  V30 27 C -1.220540 -5.230236 -1.588263 0
M  V30 28 C -1.669504 -4.282664 0.707923 0
M  V30 29 O -0.739697 -3.015137 -1.037799 0
M  V30 30 N -3.559440 -2.498615 -0.626622 0
M  V30 31 C -4.497467 0.330016 -0.189608 0
M  V30 32 N -3.551515 0.861064 -0.966425 0
M  V30 33 C 0.304208 3.246512 -1.700068 0
M  V30 34 C 1.578874 2.956086 -1.266046 0
M  V30 35 C 4.698071 0.034503 0.350283 0
M  V30 36 C 5.348391 -0.875767 1.367650 0
M  V30 37 H 3.602151 -2.074338 4.714051 0
M  V30 38 H 4.738029 -0.872710 5.524431 0
M  V30 39 H 5.132157 -2.647016 5.428765 0
M  V30 40 H 5.321762 -2.665548 3.105042 0
M  V30 41 H 6.420817 -1.327037 3.723810 0
M  V30 42 H 5.794578 0.855807 3.566678 0
M  V30 43 H 4.042814 0.632435 4.027636 0
M  V30 44 H 3.735147 2.427042 2.591345 0
M  V30 45 H 5.257222 2.118895 1.711089 0
M  V30 46 H 2.867144 0.285326 1.512351 0
M  V30 47 H 0.928832 0.624114 1.039304 0
M  V30 48 H -1.320698 1.085418 0.325118 0
M  V30 49 H -2.313102 3.485676 -2.339590 0
M  V30 50 H -5.076811 3.050006 1.763623 0
M  V30 51 H -6.626328 -1.776541 1.127193 0
M  V30 52 H -6.374378 -2.041605 -2.224093 0
M  V30 53 H -5.452720 -4.017071 -3.504329 0
M  V30 54 H -3.220045 -4.970575 -2.820091 0
M  V30 55 H -1.159312 -4.894961 -2.641926 0
M  V30 56 H -0.157001 -5.466321 -1.303345 0
M  V30 57 H -1.861548 -6.113999 -1.486287 0
M  V30 58 H -2.247671 -5.201409 0.938575 0
M  V30 59 H -0.646699 -4.267232 1.099241 0
M  V30 60 H -2.219032 -3.409221 1.161830 0
M  V30 61 H 0.036645 -3.070279 -0.418732 0
M  V30 62 H 0.116812 3.993565 -2.481012 0
M  V30 63 H 2.399696 3.508816 -1.739420 0
M  V30 64 H 4.260568 -0.510803 -0.502588 0
M  V30 65 H 5.477866 0.719485 -0.039069 0
M  V30 66 H 6.434843 -0.624022 1.530177 0
M  V30 67 H 5.274587 -1.949767 1.094727 0
M  V30 END ATOM
M  V30 BEGIN BOND
M  V30 1 1 1 2
M  V30 2 1 2 3
M  V30 3 1 3 4
M  V30 4 1 4 5
M  V30 5 1 5 6
M  V30 6 1 6 7
M  V30 7 1 7 8
M  V30 8 2 8 9
M  V30 9 1 9 10
M  V30 10 2 10 11
M  V30 11 1 11 12
M  V30 12 1 12 13
M  V30 13 2 13 14
M  V30 14 1 14 15
M  V30 15 2 15 16
M  V30 16 1 16 17
M  V30 17 1 17 18
M  V30 18 2 17 19
M  V30 19 1 19 20
M  V30 20 1 20 21
M  V30 21 2 21 22
M  V30 22 1 22 23
M  V30 23 2 23 24
M  V30 24 1 24 25
M  V30 25 1 25 26
M  V30 26 1 26 27
M  V30 27 1 26 28
M  V30 28 1 26 29
M  V30 29 2 25 30
M  V30 30 1 20 31
M  V30 31 2 31 32
M  V30 32 1 11 33
M  V30 33 2 33 34
M  V30 34 1 6 35
M  V30 35 1 35 36
M  V30 36 1 36 3
M  V30 37 1 34 8
M  V30 38 1 32 13
M  V30 39 1 31 16
M  V30 40 1 30 21
M  V30 41 1 1 37
M  V30 42 1 1 38
M  V30 43 1 1 39
M  V30 44 1 2 40
M  V30 45 1 2 41
M  V30 46 1 4 42
M  V30 47 1 4 43
M  V30 48 1 5 44
M  V30 49 1 5 45
M  V30 50 1 6 46
M  V30 51 1 9 47
M  V30 52 1 10 48
M  V30 53 1 12 49
M  V30 54 1 15 50
M  V30 55 1 19 51
M  V30 56 1 22 52
M  V30 57 1 23 53
M  V30 58 1 24 54
M  V30 59 1 27 55
M  V30 60 1 27 56
M  V30 61 1 27 57
M  V30 62 1 28 58
M  V30 63 1 28 59
M  V30 64 1 28 60
M  V30 65 1 29 61
M  V30 66 1 33 62
M  V30 67 1 34 63
M  V30 68 1 35 64
M  V30 69 1 35 65
M  V30 70 1 36 66
M  V30 71 1 36 67
M  V30 END BOND
M  V30 END CTAB
M  END
>  <Dataset>  (33) 
ChEMBL_Kinases

>  <Ligand_Instance>  (33) 
nan

>  <PDB_ID>  (33) 
nan

>  <Standardized_SMILES>  (33) 
CCN1CCC(Oc2ccc(Nc3ncc4c(F)cn(-c5cccc(C(C)(C)O)n5)c4n3)cc2)CC1

>  <Name>  (33) 
nan

>  <Pocket>  (33) 
nan

>  <ATP_Site>  (33) 
nan

>  <Peripheral>  (33) 
nan

>  <Num_H_Atoms_ProtBoundConf>  (33) 
nan

>  <Num_Resolved_Atoms>  (33) 
nan

>  <Num_Not_Resolved_Atoms>  (33) 
nan

$$$$
CHEMBL4780798
     RDKit          3D

  0  0  0  0  0  0  0  0  0  0999 V3000
M  V30 BEGIN CTAB
M  V30 COUNTS 75 81 0 0 0
M  V30 BEGIN ATOM
M  V30 1 C 1.034000 -1.657173 -5.790114 0
M  V30 2 C 1.493816 -0.410072 -6.470188 0
M  V30 3 C 2.909422 -0.045433 -6.097561 0
M  V30 4 O 1.490543 -0.611169 -7.875525 0
M  V30 5 C 0.627958 0.314221 -8.431113 0
M  V30 6 O 0.391222 0.418987 -9.683643 0
M  V30 7 C -0.009316 1.183191 -7.466557 0
M  V30 8 C -0.906958 2.224125 -7.384246 0
M  V30 9 C -1.305707 2.836627 -6.212015 0
M  V30 10 C -0.696655 2.281901 -5.124598 0
M  V30 11 N -1.100066 2.909031 -3.872842 0
M  V30 12 C -0.762675 2.218686 -2.624451 0
M  V30 13 N 0.458954 2.681668 -2.320253 0
M  V30 14 C 1.064914 2.190173 -1.197202 0
M  V30 15 C 0.266698 1.292727 -0.595236 0
M  V30 16 C 0.580273 0.433925 0.620567 0
M  V30 17 N 0.315158 -0.475093 1.527916 0
M  V30 18 C 1.235408 -0.758915 2.422782 0
M  V30 19 C 1.402702 -1.640590 3.586595 0
M  V30 20 C 1.279750 -3.111081 3.194572 0
M  V30 21 C 1.753110 -3.915577 4.382292 0
M  V30 22 N 1.928590 -3.133271 5.584236 0
M  V30 23 C 3.065409 -2.224688 5.383936 0
M  V30 24 C 2.858020 -1.534271 4.087945 0
M  V30 25 C 0.807836 -2.284362 5.882000 0
M  V30 26 C 0.437738 -1.396533 4.714692 0
M  V30 27 N 2.187977 0.075007 2.027978 0
M  V30 28 O 1.779511 0.732502 1.005206 0
M  V30 29 C -0.907127 0.678689 -0.653307 0
M  V30 30 N -2.141814 0.035876 -0.719818 0
M  V30 31 C -2.634836 -0.794390 0.355156 0 CFG=2
M  V30 32 C -3.873958 -1.557841 -0.028424 0
M  V30 33 O -4.921033 -0.758232 -0.405370 0
M  V30 34 C -2.898161 -0.004587 1.601440 0
M  V30 35 C -3.376025 1.271368 1.430522 0
M  V30 36 C -3.696192 2.171432 2.446010 0
M  V30 37 C -3.491500 1.677693 3.743231 0
M  V30 38 C -3.013049 0.399852 3.914739 0
M  V30 39 C -2.710697 -0.455153 2.890694 0
M  V30 40 N -1.324810 1.317718 -1.833825 0
M  V30 41 C 0.214705 1.256331 -4.990685 0
M  V30 42 C 0.533155 0.722342 -6.257854 0
M  V30 43 H 0.323601 -1.385250 -4.995103 0
M  V30 44 H 0.509342 -2.294381 -6.541348 0
M  V30 45 H 1.887760 -2.196313 -5.352225 0
M  V30 46 H 3.176604 0.887418 -6.665436 0
M  V30 47 H 3.544656 -0.894603 -6.451786 0
M  V30 48 H 3.072385 0.094602 -5.026751 0
M  V30 49 H -1.287393 2.528431 -8.361329 0
M  V30 50 H -2.011379 3.640030 -6.218603 0
M  V30 51 H -1.605632 3.802594 -3.754648 0
M  V30 52 H 1.997576 2.380222 -0.734708 0
M  V30 53 H 1.797845 -3.366785 2.264258 0
M  V30 54 H 0.173599 -3.350529 3.119060 0
M  V30 55 H 1.096559 -4.782365 4.619125 0
M  V30 56 H 2.780415 -4.295555 4.093434 0
M  V30 57 H 4.019599 -2.816388 5.353095 0
M  V30 58 H 3.089965 -1.444858 6.198632 0
M  V30 59 H 3.146821 -0.466356 4.047386 0
M  V30 60 H 3.446457 -2.025135 3.286141 0
M  V30 61 H -0.045036 -2.880533 6.243951 0
M  V30 62 H 1.149015 -1.596007 6.707246 0
M  V30 63 H -0.563108 -1.730863 4.387479 0
M  V30 64 H 0.380729 -0.323858 4.999829 0
M  V30 65 H -2.979879 -0.140646 -1.271413 0
M  V30 66 H -1.894971 -1.575270 0.630034 0
M  V30 67 H -4.117467 -2.296079 0.767441 0
M  V30 68 H -3.593952 -2.195661 -0.903631 0
M  V30 69 H -4.979514 -0.616004 -1.385368 0
M  V30 70 H -3.553432 1.712207 0.447933 0
M  V30 71 H -4.071104 3.168864 2.370180 0
M  V30 72 H -3.714616 2.320659 4.594131 0
M  V30 73 H -2.856951 0.011645 4.925425 0
M  V30 74 H -2.345658 -1.465571 2.921846 0
M  V30 75 H 0.609918 0.929860 -4.055435 0
M  V30 END ATOM
M  V30 BEGIN BOND
M  V30 1 1 1 2
M  V30 2 1 2 3
M  V30 3 1 2 4
M  V30 4 1 4 5
M  V30 5 2 5 6
M  V30 6 1 5 7
M  V30 7 2 7 8
M  V30 8 1 8 9
M  V30 9 2 9 10
M  V30 10 1 10 11
M  V30 11 1 11 12
M  V30 12 2 12 13
M  V30 13 1 13 14
M  V30 14 2 14 15
M  V30 15 1 15 16
M  V30 16 2 16 17
M  V30 17 1 17 18
M  V30 18 1 18 19
M  V30 19 1 19 20
M  V30 20 1 20 21
M  V30 21 1 21 22
M  V30 22 1 22 23
M  V30 23 1 23 24
M  V30 24 1 22 25
M  V30 25 1 25 26
M  V30 26 2 18 27
M  V30 27 1 27 28
M  V30 28 1 15 29
M  V30 29 1 29 30
M  V30 30 1 30 31
M  V30 31 1 31 32
M  V30 32 1 32 33
M  V30 33 1 31 34
M  V30 34 2 34 35
M  V30 35 1 35 36
M  V30 36 2 36 37
M  V30 37 1 37 38
M  V30 38 2 38 39
M  V30 39 2 29 40
M  V30 40 1 10 41
M  V30 41 2 41 42
M  V30 42 1 42 2
M  V30 43 1 42 7
M  V30 44 1 40 12
M  V30 45 1 28 16
M  V30 46 1 39 34
M  V30 47 1 24 19
M  V30 48 1 26 19
M  V30 49 1 1 43
M  V30 50 1 1 44
M  V30 51 1 1 45
M  V30 52 1 3 46
M  V30 53 1 3 47
M  V30 54 1 3 48
M  V30 55 1 8 49
M  V30 56 1 9 50
M  V30 57 1 11 51
M  V30 58 1 14 52
M  V30 59 1 20 53
M  V30 60 1 20 54
M  V30 61 1 21 55
M  V30 62 1 21 56
M  V30 63 1 23 57
M  V30 64 1 23 58
M  V30 65 1 24 59
M  V30 66 1 24 60
M  V30 67 1 25 61
M  V30 68 1 25 62
M  V30 69 1 26 63
M  V30 70 1 26 64
M  V30 71 1 30 65
M  V30 72 1 31 66 CFG=1
M  V30 73 1 32 67
M  V30 74 1 32 68
M  V30 75 1 33 69
M  V30 76 1 35 70
M  V30 77 1 36 71
M  V30 78 1 37 72
M  V30 79 1 38 73
M  V30 80 1 39 74
M  V30 81 1 41 75
M  V30 END BOND
M  V30 END CTAB
M  END
>  <Dataset>  (34) 
ChEMBL_Kinases

>  <Ligand_Instance>  (34) 
nan

>  <PDB_ID>  (34) 
nan

>  <Standardized_SMILES>  (34) 
CC1(C)OC(=O)c2ccc(Nc3ncc(-c4nc(C56CCN(CC5)CC6)no4)c(N[C@H](CO)c4ccccc4)n3)cc21

>  <Name>  (34) 
nan

>  <Pocket>  (34) 
nan

>  <ATP_Site>  (34) 
nan

>  <Peripheral>  (34) 
nan

>  <Num_H_Atoms_ProtBoundConf>  (34) 
nan

>  <Num_Resolved_Atoms>  (34) 
nan

>  <Num_Not_Resolved_Atoms>  (34) 
nan

$$$$
CHEMBL1782505
     RDKit          3D

  0  0  0  0  0  0  0  0  0  0999 V3000
M  V30 BEGIN CTAB
M  V30 COUNTS 21 22 0 0 0
M  V30 BEGIN ATOM
M  V30 1 O 1.161079 -2.899845 4.189968 0
M  V30 2 C 0.874075 -1.678988 4.140444 0
M  V30 3 O 0.673066 -1.032747 5.352451 0
M  V30 4 C 0.752697 -0.954681 2.877496 0
M  V30 5 C 0.935556 -1.518512 1.631163 0
M  V30 6 C 0.725730 -0.478986 0.717411 0
M  V30 7 C 0.757483 -0.382657 -0.658671 0
M  V30 8 C 0.490657 0.843069 -1.246300 0
M  V30 9 C 0.506946 1.021311 -2.721709 0
M  V30 10 F 0.826822 -0.179723 -3.324846 0
M  V30 11 F 1.462346 1.965675 -3.037987 0
M  V30 12 F -0.722686 1.392286 -3.181638 0
M  V30 13 C 0.193544 1.969983 -0.479939 0
M  V30 14 C 0.160650 1.880618 0.883378 0
M  V30 15 C 0.427955 0.651953 1.476468 0
M  V30 16 O 0.460129 0.301638 2.756537 0
M  V30 17 H 0.267930 -1.494807 6.176600 0
M  V30 18 H 1.188553 -2.540076 1.348609 0
M  V30 19 H 0.987420 -1.253300 -1.260460 0
M  V30 20 H -0.010105 2.910223 -0.956119 0
M  V30 21 H -0.072009 2.762729 1.485701 0
M  V30 END ATOM
M  V30 BEGIN BOND
M  V30 1 2 1 2
M  V30 2 1 2 3
M  V30 3 1 2 4
M  V30 4 2 4 5
M  V30 5 1 5 6
M  V30 6 2 6 7
M  V30 7 1 7 8
M  V30 8 1 8 9
M  V30 9 1 9 10
M  V30 10 1 9 11
M  V30 11 1 9 12
M  V30 12 2 8 13
M  V30 13 1 13 14
M  V30 14 2 14 15
M  V30 15 1 15 16
M  V30 16 1 16 4
M  V30 17 1 15 6
M  V30 18 1 3 17
M  V30 19 1 5 18
M  V30 20 1 7 19
M  V30 21 1 13 20
M  V30 22 1 14 21
M  V30 END BOND
M  V30 END CTAB
M  END
>  <Dataset>  (35) 
ChEMBL_Kinases

>  <Ligand_Instance>  (35) 
nan

>  <PDB_ID>  (35) 
nan

>  <Standardized_SMILES>  (35) 
O=C(O)c1cc2cc(C(F)(F)F)ccc2o1

>  <Name>  (35) 
nan

>  <Pocket>  (35) 
nan

>  <ATP_Site>  (35) 
nan

>  <Peripheral>  (35) 
nan

>  <Num_H_Atoms_ProtBoundConf>  (35) 
nan

>  <Num_Resolved_Atoms>  (35) 
nan

>  <Num_Not_Resolved_Atoms>  (35) 
nan

$$$$
CHEMBL4781062
     RDKit          3D

  0  0  0  0  0  0  0  0  0  0999 V3000
M  V30 BEGIN CTAB
M  V30 COUNTS 66 68 0 0 0
M  V30 BEGIN ATOM
M  V30 1 C 6.733470 -1.742616 2.478487 0
M  V30 2 C 6.484478 -0.794424 3.634709 0
M  V30 3 N 5.837522 0.409188 3.072988 0
M  V30 4 C 5.598057 1.349639 4.158638 0
M  V30 5 C 7.002938 1.801413 4.616511 0
M  V30 6 C 4.594225 0.069677 2.459802 0
M  V30 7 C 3.977592 1.240291 1.784636 0
M  V30 8 N 2.716361 0.789650 1.175513 0
M  V30 9 C 1.917322 1.708255 0.451878 0
M  V30 10 O 2.481695 2.833322 0.459223 0
M  V30 11 C 0.649700 1.497403 -0.220983 0
M  V30 12 C 0.070317 2.537350 -0.913464 0
M  V30 13 C 0.565872 3.946962 -1.106952 0
M  V30 14 N -1.071779 2.107870 -1.431979 0
M  V30 15 C -1.337832 0.825202 -1.148390 0
M  V30 16 C -2.388755 -0.149351 -1.395118 0
M  V30 17 C -3.693174 -0.032430 -1.263936 0
M  V30 18 C -4.372089 1.150119 -0.822059 0
M  V30 19 O -3.825370 2.223592 -0.491560 0
M  V30 20 N -5.748976 0.891252 -0.824856 0
M  V30 21 C -5.936236 -0.457431 -1.268008 0
M  V30 22 C -7.072366 -1.233888 -1.456900 0
M  V30 23 C -7.030204 -2.546191 -1.898737 0
M  V30 24 C -5.789808 -3.126968 -2.171110 0
M  V30 25 C -5.619377 -4.534555 -2.644139 0
M  V30 26 C -5.470987 -5.485151 -1.468159 0
M  V30 27 O -4.369877 -5.147363 -0.710368 0
M  V30 28 C -4.195816 -5.997700 0.381965 0
M  V30 29 C -4.655190 -2.339586 -1.978582 0
M  V30 30 C -4.714801 -1.035929 -1.539150 0
M  V30 31 C -0.226009 0.452140 -0.375049 0
M  V30 32 C 0.044383 -0.877941 0.231548 0
M  V30 33 H 5.853006 -2.379905 2.282371 0
M  V30 34 H 6.922886 -1.176849 1.522893 0
M  V30 35 H 7.574446 -2.444575 2.695381 0
M  V30 36 H 7.431246 -0.460839 4.087671 0
M  V30 37 H 5.770232 -1.244482 4.331317 0
M  V30 38 H 5.072021 2.254020 3.815933 0
M  V30 39 H 5.077850 0.918939 5.012369 0
M  V30 40 H 7.718244 1.696643 3.795801 0
M  V30 41 H 7.296028 1.117015 5.421938 0
M  V30 42 H 6.969512 2.862131 4.910090 0
M  V30 43 H 3.847237 -0.300187 3.225463 0
M  V30 44 H 4.692751 -0.791593 1.742335 0
M  V30 45 H 3.788279 2.124417 2.385272 0
M  V30 46 H 4.643962 1.533226 0.920100 0
M  V30 47 H 2.367967 -0.189208 1.248098 0
M  V30 48 H 1.550557 3.933550 -1.640404 0
M  V30 49 H -0.189944 4.576423 -1.572620 0
M  V30 50 H 0.787909 4.403621 -0.102458 0
M  V30 51 H -1.721744 2.668007 -2.021690 0
M  V30 52 H -2.062401 -1.142950 -1.745706 0
M  V30 53 H -6.463108 1.587999 -0.545722 0
M  V30 54 H -8.066804 -0.806969 -1.251729 0
M  V30 55 H -7.915681 -3.150773 -2.046861 0
M  V30 56 H -6.400174 -4.858571 -3.337092 0
M  V30 57 H -4.655580 -4.577649 -3.190528 0
M  V30 58 H -6.410966 -5.587498 -0.891606 0
M  V30 59 H -5.286665 -6.484965 -1.914507 0
M  V30 60 H -5.098489 -5.919871 0.998332 0
M  V30 61 H -3.315148 -5.583274 0.950802 0
M  V30 62 H -3.926061 -7.037769 0.089352 0
M  V30 63 H -3.648051 -2.735895 -2.172372 0
M  V30 64 H 0.095759 -0.822098 1.333360 0
M  V30 65 H -0.824819 -1.577679 0.042558 0
M  V30 66 H 0.927239 -1.308497 -0.237302 0
M  V30 END ATOM
M  V30 BEGIN BOND
M  V30 1 1 1 2
M  V30 2 1 2 3
M  V30 3 1 3 4
M  V30 4 1 4 5
M  V30 5 1 3 6
M  V30 6 1 6 7
M  V30 7 1 7 8
M  V30 8 1 8 9
M  V30 9 2 9 10
M  V30 10 1 9 11
M  V30 11 2 11 12
M  V30 12 1 12 13
M  V30 13 1 12 14
M  V30 14 1 14 15
M  V30 15 1 15 16
M  V30 16 2 16 17
M  V30 17 1 17 18
M  V30 18 2 18 19
M  V30 19 1 18 20
M  V30 20 1 20 21
M  V30 21 2 21 22
M  V30 22 1 22 23
M  V30 23 2 23 24
M  V30 24 1 24 25
M  V30 25 1 25 26
M  V30 26 1 26 27
M  V30 27 1 27 28
M  V30 28 1 24 29
M  V30 29 2 29 30
M  V30 30 2 15 31
M  V30 31 1 31 32
M  V30 32 1 31 11
M  V30 33 1 30 17
M  V30 34 1 30 21
M  V30 35 1 1 33
M  V30 36 1 1 34
M  V30 37 1 1 35
M  V30 38 1 2 36
M  V30 39 1 2 37
M  V30 40 1 4 38
M  V30 41 1 4 39
M  V30 42 1 5 40
M  V30 43 1 5 41
M  V30 44 1 5 42
M  V30 45 1 6 43
M  V30 46 1 6 44
M  V30 47 1 7 45
M  V30 48 1 7 46
M  V30 49 1 8 47
M  V30 50 1 13 48
M  V30 51 1 13 49
M  V30 52 1 13 50
M  V30 53 1 14 51
M  V30 54 1 16 52
M  V30 55 1 20 53
M  V30 56 1 22 54
M  V30 57 1 23 55
M  V30 58 1 25 56
M  V30 59 1 25 57
M  V30 60 1 26 58
M  V30 61 1 26 59
M  V30 62 1 28 60
M  V30 63 1 28 61
M  V30 64 1 28 62
M  V30 65 1 29 63
M  V30 66 1 32 64
M  V30 67 1 32 65
M  V30 68 1 32 66
M  V30 END BOND
M  V30 END CTAB
M  END
>  <Dataset>  (36) 
ChEMBL_Kinases

>  <Ligand_Instance>  (36) 
nan

>  <PDB_ID>  (36) 
nan

>  <Standardized_SMILES>  (36) 
CCN(CC)CCNC(=O)c1c(C)[nH]c(/C=C2\C(=O)Nc3ccc(CCOC)cc32)c1C

>  <Name>  (36) 
nan

>  <Pocket>  (36) 
nan

>  <ATP_Site>  (36) 
nan

>  <Peripheral>  (36) 
nan

>  <Num_H_Atoms_ProtBoundConf>  (36) 
nan

>  <Num_Resolved_Atoms>  (36) 
nan

>  <Num_Not_Resolved_Atoms>  (36) 
nan

$$$$
CHEMBL504261
     RDKit          3D

  0  0  0  0  0  0  0  0  0  0999 V3000
M  V30 BEGIN CTAB
M  V30 COUNTS 29 31 0 0 0
M  V30 BEGIN ATOM
M  V30 1 N -0.456583 -4.760836 3.889382 0
M  V30 2 C -0.448166 -3.350094 4.102135 0
M  V30 3 O -0.751481 -2.943629 5.231775 0
M  V30 4 C -0.091761 -2.446500 3.011885 0
M  V30 5 C -0.091826 -1.085234 3.245827 0
M  V30 6 C 0.238484 -0.193169 2.244719 0
M  V30 7 C 0.572780 -0.674526 0.993869 0
M  V30 8 C 0.951640 0.071897 -0.202283 0
M  V30 9 C 2.049234 -0.373509 -0.947628 0
M  V30 10 C 2.487254 0.260526 -2.091602 0
M  V30 11 N 1.838805 1.357701 -2.520986 0
M  V30 12 C 0.784417 1.821300 -1.842241 0
M  V30 13 N -0.042503 2.881860 -2.036807 0
M  V30 14 C -0.983895 2.936144 -1.055820 0
M  V30 15 C -0.761234 1.864600 -0.183797 0
M  V30 16 C 0.333176 1.201368 -0.698403 0
M  V30 17 C 0.564429 -2.059367 0.785298 0
M  V30 18 C 0.236745 -2.964705 1.774963 0
M  V30 19 H -1.261316 -5.401051 3.704015 0
M  V30 20 H -1.306278 -5.372637 3.703296 0
M  V30 21 H -0.344382 -0.650084 4.203094 0
M  V30 22 H 0.271506 0.880820 2.313895 0
M  V30 23 H 2.616961 -1.248947 -0.660492 0
M  V30 24 H 3.341216 -0.105023 -2.651677 0
M  V30 25 H 0.033217 3.568071 -2.835874 0
M  V30 26 H -1.773484 3.669814 -0.950646 0
M  V30 27 H -1.333171 1.627786 0.693494 0
M  V30 28 H 0.816422 -2.533428 -0.176662 0
M  V30 29 H 0.232692 -4.031548 1.605968 0
M  V30 END ATOM
M  V30 BEGIN BOND
M  V30 1 1 1 2
M  V30 2 2 2 3
M  V30 3 1 2 4
M  V30 4 2 4 5
M  V30 5 1 5 6
M  V30 6 2 6 7
M  V30 7 1 7 8
M  V30 8 2 8 9
M  V30 9 1 9 10
M  V30 10 2 10 11
M  V30 11 1 11 12
M  V30 12 1 12 13
M  V30 13 1 13 14
M  V30 14 2 14 15
M  V30 15 1 15 16
M  V30 16 1 7 17
M  V30 17 2 17 18
M  V30 18 1 18 4
M  V30 19 1 16 8
M  V30 20 2 16 12
M  V30 21 1 1 19
M  V30 22 1 1 20
M  V30 23 1 5 21
M  V30 24 1 6 22
M  V30 25 1 9 23
M  V30 26 1 10 24
M  V30 27 1 13 25
M  V30 28 1 14 26
M  V30 29 1 15 27
M  V30 30 1 17 28
M  V30 31 1 18 29
M  V30 END BOND
M  V30 END CTAB
M  END
>  <Dataset>  (37) 
ChEMBL_Kinases

>  <Ligand_Instance>  (37) 
nan

>  <PDB_ID>  (37) 
nan

>  <Standardized_SMILES>  (37) 
NC(=O)c1ccc(-c2ccnc3[nH]ccc23)cc1

>  <Name>  (37) 
nan

>  <Pocket>  (37) 
nan

>  <ATP_Site>  (37) 
nan

>  <Peripheral>  (37) 
nan

>  <Num_H_Atoms_ProtBoundConf>  (37) 
nan

>  <Num_Resolved_Atoms>  (37) 
nan

>  <Num_Not_Resolved_Atoms>  (37) 
nan

$$$$
CHEMBL4781207
     RDKit          3D

  0  0  0  0  0  0  0  0  0  0999 V3000
M  V30 BEGIN CTAB
M  V30 COUNTS 54 57 0 0 0
M  V30 BEGIN ATOM
M  V30 1 C 2.931820 -5.796029 -1.828856 0
M  V30 2 C 3.875454 -5.426038 -1.006773 0
M  V30 3 C 4.180195 -4.026228 -0.863668 0
M  V30 4 O 3.233643 -4.207229 -1.705596 0
M  V30 5 N 4.531053 -2.682090 -0.673389 0
M  V30 6 C 5.605147 -2.545741 0.286480 0
M  V30 7 C 6.028226 -1.092428 0.338849 0
M  V30 8 C 4.765695 -0.315825 0.472027 0
M  V30 9 C 3.718158 -0.498679 -0.310042 0
M  V30 10 C 2.495359 0.280251 -0.152570 0
M  V30 11 C 1.378569 0.132449 -0.949514 0
M  V30 12 C 0.288769 0.935461 -0.690592 0
M  V30 13 C 0.200275 1.887643 0.301842 0
M  V30 14 C -0.931165 2.753135 0.604468 0
M  V30 15 C -1.307910 3.646176 -0.583092 0
M  V30 16 C -2.137353 2.108190 1.127336 0
M  V30 17 O -2.591334 2.366446 2.300506 0
M  V30 18 N -2.966399 1.165131 0.508604 0
M  V30 19 C -4.127691 0.583007 1.085411 0
M  V30 20 C -4.447994 -0.520761 1.845977 0
M  V30 21 C -5.810131 -0.427352 2.032551 0
M  V30 22 C -6.554668 -1.447850 2.817393 0
M  V30 23 C -6.130391 -2.886085 2.569445 0
M  V30 24 C -5.794615 -2.256787 3.868192 0
M  V30 25 N -6.306395 0.663883 1.427590 0
M  V30 26 N -5.268953 1.271156 0.853357 0
M  V30 27 C 1.380603 1.969136 1.062989 0
M  V30 28 N 2.459695 1.196783 0.831033 0
M  V30 29 C 3.909852 -1.558383 -1.341335 0
M  V30 30 H 2.166216 -5.574189 -2.545575 0
M  V30 31 H 2.666452 -6.825140 -1.971261 0
M  V30 32 H 4.401040 -6.184563 -0.456498 0
M  V30 33 H 5.144737 -2.764190 1.283896 0
M  V30 34 H 6.455566 -3.220624 0.060762 0
M  V30 35 H 6.552988 -0.827145 -0.624604 0
M  V30 36 H 6.671192 -0.984452 1.219480 0
M  V30 37 H 4.733925 0.430515 1.260261 0
M  V30 38 H 1.385195 -0.597802 -1.744797 0
M  V30 39 H -0.549817 0.790925 -1.333569 0
M  V30 40 H -0.603552 3.492207 1.391052 0
M  V30 41 H -2.337557 4.032464 -0.426542 0
M  V30 42 H -1.229930 3.111589 -1.547007 0
M  V30 43 H -0.629119 4.542174 -0.603684 0
M  V30 44 H -2.734319 0.850845 -0.457978 0
M  V30 45 H -3.660043 -1.194578 2.133181 0
M  V30 46 H -7.644153 -1.291409 2.957967 0
M  V30 47 H -5.333722 -3.065316 1.829662 0
M  V30 48 H -6.943322 -3.636603 2.535962 0
M  V30 49 H -4.729403 -2.013152 3.998298 0
M  V30 50 H -6.308971 -2.501965 4.815320 0
M  V30 51 H -7.308610 0.934551 1.436492 0
M  V30 52 H 1.427780 2.696148 1.886114 0
M  V30 53 H 2.994834 -1.824022 -1.868192 0
M  V30 54 H 4.696041 -1.171065 -2.048664 0
M  V30 END ATOM
M  V30 BEGIN BOND
M  V30 1 2 1 2
M  V30 2 1 2 3
M  V30 3 2 3 4
M  V30 4 1 3 5
M  V30 5 1 5 6
M  V30 6 1 6 7
M  V30 7 1 7 8
M  V30 8 2 8 9
M  V30 9 1 9 10
M  V30 10 2 10 11
M  V30 11 1 11 12
M  V30 12 2 12 13
M  V30 13 1 13 14
M  V30 14 1 14 15
M  V30 15 1 14 16
M  V30 16 2 16 17
M  V30 17 1 16 18
M  V30 18 1 18 19
M  V30 19 1 19 20
M  V30 20 2 20 21
M  V30 21 1 21 22
M  V30 22 1 22 23
M  V30 23 1 23 24
M  V30 24 1 21 25
M  V30 25 1 25 26
M  V30 26 1 13 27
M  V30 27 2 27 28
M  V30 28 1 9 29
M  V30 29 1 29 5
M  V30 30 1 28 10
M  V30 31 2 26 19
M  V30 32 1 24 22
M  V30 33 1 1 30
M  V30 34 1 1 31
M  V30 35 1 2 32
M  V30 36 1 6 33
M  V30 37 1 6 34
M  V30 38 1 7 35
M  V30 39 1 7 36
M  V30 40 1 8 37
M  V30 41 1 11 38
M  V30 42 1 12 39
M  V30 43 1 14 40
M  V30 44 1 15 41
M  V30 45 1 15 42
M  V30 46 1 15 43
M  V30 47 1 18 44
M  V30 48 1 20 45
M  V30 49 1 22 46
M  V30 50 1 23 47
M  V30 51 1 23 48
M  V30 52 1 24 49
M  V30 53 1 24 50
M  V30 54 1 25 51
M  V30 55 1 27 52
M  V30 56 1 29 53
M  V30 57 1 29 54
M  V30 END BOND
M  V30 END CTAB
M  END
>  <Dataset>  (38) 
ChEMBL_Kinases

>  <Ligand_Instance>  (38) 
nan

>  <PDB_ID>  (38) 
nan

>  <Standardized_SMILES>  (38) 
C=CC(=O)N1CCC=C(c2ccc(C(C)C(=O)Nc3cc(C4CC4)[nH]n3)cn2)C1

>  <Name>  (38) 
nan

>  <Pocket>  (38) 
nan

>  <ATP_Site>  (38) 
nan

>  <Peripheral>  (38) 
nan

>  <Num_H_Atoms_ProtBoundConf>  (38) 
nan

>  <Num_Resolved_Atoms>  (38) 
nan

>  <Num_Not_Resolved_Atoms>  (38) 
nan

$$$$
CHEMBL177820
     RDKit          3D

  0  0  0  0  0  0  0  0  0  0999 V3000
M  V30 BEGIN CTAB
M  V30 COUNTS 14 15 0 0 0
M  V30 BEGIN ATOM
M  V30 1 Br -1.670539 -2.096391 1.305045 0
M  V30 2 C -0.055296 -1.088295 1.058673 0
M  V30 3 C 1.177402 -1.717541 1.059600 0
M  V30 4 Br 1.294108 -3.589963 1.304597 0
M  V30 5 C 2.292013 -0.895162 0.872473 0
M  V30 6 Br 3.980589 -1.761723 0.874360 0
M  V30 7 C 2.143141 0.466873 0.698621 0
M  V30 8 N 3.087406 1.401493 0.507949 0
M  V30 9 N 2.469419 2.564556 0.392976 0
M  V30 10 N 1.168178 2.371821 0.507770 0
M  V30 11 C 0.907963 1.080500 0.699973 0
M  V30 12 C -0.190077 0.272909 0.883972 0
M  V30 13 Br -1.905218 1.101935 0.888963 0
M  V30 14 H 4.128768 1.288244 0.452220 0
M  V30 END ATOM
M  V30 BEGIN BOND
M  V30 1 1 1 2
M  V30 2 2 2 3
M  V30 3 1 3 4
M  V30 4 1 3 5
M  V30 5 1 5 6
M  V30 6 2 5 7
M  V30 7 1 7 8
M  V30 8 1 8 9
M  V30 9 2 9 10
M  V30 10 1 10 11
M  V30 11 2 11 12
M  V30 12 1 12 13
M  V30 13 1 12 2
M  V30 14 1 11 7
M  V30 15 1 8 14
M  V30 END BOND
M  V30 END CTAB
M  END
>  <Dataset>  (39) 
ChEMBL_Kinases

>  <Ligand_Instance>  (39) 
nan

>  <PDB_ID>  (39) 
nan

>  <Standardized_SMILES>  (39) 
Brc1c(Br)c(Br)c2[nH]nnc2c1Br

>  <Name>  (39) 
TETRABROMOBENZOTRIAZOLE

>  <Pocket>  (39) 
nan

>  <ATP_Site>  (39) 
nan

>  <Peripheral>  (39) 
nan

>  <Num_H_Atoms_ProtBoundConf>  (39) 
nan

>  <Num_Resolved_Atoms>  (39) 
nan

>  <Num_Not_Resolved_Atoms>  (39) 
nan

$$$$
CHEMBL1778132
     RDKit          3D

  0  0  0  0  0  0  0  0  0  0999 V3000
M  V30 BEGIN CTAB
M  V30 COUNTS 21 22 0 0 0
M  V30 BEGIN ATOM
M  V30 1 N 0.768204 2.159142 4.269378 0
M  V30 2 C 0.417241 1.841112 2.926208 0
M  V30 3 C 0.837692 0.679316 2.303087 0
M  V30 4 C 0.293583 0.748952 1.034860 0
M  V30 5 C 0.527454 -0.333275 0.057444 0
M  V30 6 C 1.271775 -1.458328 0.302343 0
M  V30 7 C 1.446828 -2.429782 -0.662791 0
M  V30 8 C 0.850692 -2.258812 -1.915294 0
M  V30 9 Cl 1.112008 -3.528557 -3.094973 0
M  V30 10 C 0.103143 -1.123238 -2.153095 0
M  V30 11 C -0.056242 -0.158705 -1.158556 0
M  V30 12 N -0.392590 1.876173 0.939399 0
M  V30 13 N -0.334854 2.559223 2.072954 0
M  V30 14 H 1.334105 2.870855 4.802205 0
M  V30 15 H 0.442634 1.610044 5.109168 0
M  V30 16 H 1.447934 -0.088819 2.727050 0
M  V30 17 H 1.715695 -1.541313 1.299180 0
M  V30 18 H 2.053342 -3.269676 -0.352010 0
M  V30 19 H -0.338535 -1.036986 -3.139561 0
M  V30 20 H -0.661265 0.693542 -1.447704 0
M  V30 21 H -0.791004 3.474298 2.249264 0
M  V30 END ATOM
M  V30 BEGIN BOND
M  V30 1 1 1 2
M  V30 2 2 2 3
M  V30 3 1 3 4
M  V30 4 1 4 5
M  V30 5 2 5 6
M  V30 6 1 6 7
M  V30 7 2 7 8
M  V30 8 1 8 9
M  V30 9 1 8 10
M  V30 10 2 10 11
M  V30 11 2 4 12
M  V30 12 1 12 13
M  V30 13 1 13 2
M  V30 14 1 11 5
M  V30 15 1 1 14
M  V30 16 1 1 15
M  V30 17 1 3 16
M  V30 18 1 6 17
M  V30 19 1 7 18
M  V30 20 1 10 19
M  V30 21 1 11 20
M  V30 22 1 13 21
M  V30 END BOND
M  V30 END CTAB
M  END
>  <Dataset>  (40) 
ChEMBL_Kinases

>  <Ligand_Instance>  (40) 
nan

>  <PDB_ID>  (40) 
nan

>  <Standardized_SMILES>  (40) 
Nc1cc(-c2ccc(Cl)cc2)n[nH]1

>  <Name>  (40) 
nan

>  <Pocket>  (40) 
nan

>  <ATP_Site>  (40) 
nan

>  <Peripheral>  (40) 
nan

>  <Num_H_Atoms_ProtBoundConf>  (40) 
nan

>  <Num_Resolved_Atoms>  (40) 
nan

>  <Num_Not_Resolved_Atoms>  (40) 
nan

$$$$
CHEMBL1409113
     RDKit          3D

  0  0  0  0  0  0  0  0  0  0999 V3000
M  V30 BEGIN CTAB
M  V30 COUNTS 36 38 0 0 0
M  V30 BEGIN ATOM
M  V30 1 C -1.743898 -2.157900 3.003904 0
M  V30 2 C -0.438501 -1.914841 2.284824 0
M  V30 3 C 0.326462 -3.213519 2.197381 0
M  V30 4 C 1.573836 -3.101382 1.385026 0
M  V30 5 C 1.688203 -1.870721 0.598346 0
M  V30 6 N 2.892224 -1.512124 0.114736 0
M  V30 7 C 3.085442 -0.395651 -0.618393 0
M  V30 8 N 4.352817 0.001986 -1.139940 0
M  V30 9 C 2.019267 0.427846 -0.896498 0
M  V30 10 C 2.129949 1.634926 -1.667791 0
M  V30 11 N 2.211435 2.621851 -2.276831 0
M  V30 12 C 0.769788 0.113183 -0.430208 0
M  V30 13 C -0.456356 0.876540 -0.636318 0
M  V30 14 C -0.631927 1.799866 0.373877 0
M  V30 15 C -1.737088 2.654747 0.401193 0
M  V30 16 C -2.640674 2.509358 -0.654921 0
M  V30 17 N -2.454353 1.610914 -1.622987 0
M  V30 18 C -1.391142 0.800358 -1.634094 0
M  V30 19 C 0.641859 -1.041467 0.312366 0
M  V30 20 C -0.687654 -1.466237 0.864215 0
M  V30 21 H -2.153270 -1.146856 3.297343 0
M  V30 22 H -1.568105 -2.811869 3.861635 0
M  V30 23 H -2.485654 -2.625411 2.319600 0
M  V30 24 H 0.176575 -1.161335 2.792213 0
M  V30 25 H 0.526205 -3.551986 3.238097 0
M  V30 26 H -0.349202 -3.936977 1.674043 0
M  V30 27 H 1.683236 -3.964380 0.681710 0
M  V30 28 H 2.489291 -3.169920 2.036962 0
M  V30 29 H 4.662148 -0.283462 -2.111626 0
M  V30 30 H 4.750108 0.565260 -0.335116 0
M  V30 31 H 0.024241 1.978751 1.234417 0
M  V30 32 H -1.919026 3.387383 1.161685 0
M  V30 33 H -3.514625 3.155061 -0.672045 0
M  V30 34 H -1.141501 0.030971 -2.376323 0
M  V30 35 H -1.034912 -2.307669 0.218685 0
M  V30 36 H -1.441531 -0.662166 0.815815 0
M  V30 END ATOM
M  V30 BEGIN BOND
M  V30 1 1 1 2
M  V30 2 1 2 3
M  V30 3 1 3 4
M  V30 4 1 4 5
M  V30 5 2 5 6
M  V30 6 1 6 7
M  V30 7 1 7 8
M  V30 8 2 7 9
M  V30 9 1 9 10
M  V30 10 3 10 11
M  V30 11 1 9 12
M  V30 12 1 12 13
M  V30 13 2 13 14
M  V30 14 1 14 15
M  V30 15 2 15 16
M  V30 16 1 16 17
M  V30 17 2 17 18
M  V30 18 2 12 19
M  V30 19 1 19 20
M  V30 20 1 20 2
M  V30 21 1 19 5
M  V30 22 1 18 13
M  V30 23 1 1 21
M  V30 24 1 1 22
M  V30 25 1 1 23
M  V30 26 1 2 24
M  V30 27 1 3 25
M  V30 28 1 3 26
M  V30 29 1 4 27
M  V30 30 1 4 28
M  V30 31 1 8 29
M  V30 32 1 8 30
M  V30 33 1 14 31
M  V30 34 1 15 32
M  V30 35 1 16 33
M  V30 36 1 18 34
M  V30 37 1 20 35
M  V30 38 1 20 36
M  V30 END BOND
M  V30 END CTAB
M  END
>  <Dataset>  (41) 
ChEMBL_Kinases

>  <Ligand_Instance>  (41) 
nan

>  <PDB_ID>  (41) 
nan

>  <Standardized_SMILES>  (41) 
CC1CCc2nc(N)c(C#N)c(-c3cccnc3)c2C1

>  <Name>  (41) 
nan

>  <Pocket>  (41) 
nan

>  <ATP_Site>  (41) 
nan

>  <Peripheral>  (41) 
nan

>  <Num_H_Atoms_ProtBoundConf>  (41) 
nan

>  <Num_Resolved_Atoms>  (41) 
nan

>  <Num_Not_Resolved_Atoms>  (41) 
nan

$$$$
CHEMBL502854
     RDKit          3D

  0  0  0  0  0  0  0  0  0  0999 V3000
M  V30 BEGIN CTAB
M  V30 COUNTS 73 80 0 0 0
M  V30 BEGIN ATOM
M  V30 1 S 2.212564 3.815516 7.319802 0
M  V30 2 C 2.311577 3.985003 5.540900 0
M  V30 3 N 2.770717 5.078929 4.867238 0
M  V30 4 N 2.675152 4.792207 3.562179 0
M  V30 5 C 2.171924 3.557424 3.423507 0
M  V30 6 C 1.871327 2.777648 2.330491 0
M  V30 7 C 2.107662 3.302560 1.085374 0
M  V30 8 C 1.820075 2.551540 -0.040817 0
M  V30 9 C 2.002427 2.946654 -1.437643 0
M  V30 10 C 2.792810 2.401213 -2.426515 0
M  V30 11 C 2.791835 2.960649 -3.676068 0
M  V30 12 C 2.009277 4.060035 -3.949225 0
M  V30 13 C 1.203624 4.638402 -2.991354 0
M  V30 14 C 1.213873 4.057151 -1.718714 0
M  V30 15 C 1.298825 1.283257 0.108076 0
M  V30 16 C 0.955614 0.381455 -0.985674 0
M  V30 17 C 0.006337 0.603941 -1.961138 0
M  V30 18 C -0.229980 -0.326638 -2.950936 0
M  V30 19 C 0.464198 -1.518163 -3.016911 0
M  V30 20 C 0.327466 -2.591286 -3.998502 0
M  V30 21 N -0.577521 -3.617057 -3.757908 0
M  V30 22 C -1.962597 -3.329700 -3.628177 0
M  V30 23 C -2.613585 -4.180622 -2.522737 0
M  V30 24 C -1.643609 -4.120237 -1.375174 0
M  V30 25 C -2.292571 -4.521452 -0.083267 0
M  V30 26 N -2.821847 -5.721399 0.285665 0
M  V30 27 N -3.290422 -5.608750 1.527653 0
M  V30 28 C -3.083519 -4.362818 1.988646 0
M  V30 29 C -3.441499 -3.816956 3.293762 0
M  V30 30 C -3.146139 -2.502405 3.588894 0
M  V30 31 C -3.485729 -1.968789 4.837353 0
M  V30 32 C -4.116320 -2.789619 5.749050 0
M  V30 33 C -4.405829 -4.110548 5.434731 0
M  V30 34 N -4.057950 -4.581497 4.214535 0
M  V30 35 N -2.471868 -3.705947 0.993823 0
M  V30 36 C -0.458135 -4.972392 -1.692262 0
M  V30 37 C -0.131213 -4.815413 -3.155236 0
M  V30 38 C 1.420080 -1.714881 -2.013791 0
M  V30 39 C 1.676198 -0.796066 -1.009114 0
M  V30 40 N 1.074717 0.788264 1.345337 0
M  V30 41 C 1.344358 1.494294 2.444731 0
M  V30 42 C 1.129622 1.022402 3.725439 0
M  V30 43 C 1.433146 1.808624 4.804040 0
M  V30 44 N 1.944951 3.052827 4.643272 0
M  V30 45 H 2.638429 2.502001 7.626547 0
M  V30 46 H 2.512340 4.282164 0.869267 0
M  V30 47 H 3.346936 1.547541 -2.064489 0
M  V30 48 H 3.438803 2.476340 -4.400845 0
M  V30 49 H 2.024994 4.485607 -4.946423 0
M  V30 50 H 0.607474 5.500392 -3.254494 0
M  V30 51 H 0.541270 4.591694 -1.033893 0
M  V30 52 H -0.535259 1.534822 -1.908949 0
M  V30 53 H -0.964998 -0.171956 -3.720547 0
M  V30 54 H 1.338225 -3.039227 -4.191798 0
M  V30 55 H 0.068035 -2.089266 -4.978206 0
M  V30 56 H -2.105405 -2.259725 -3.428711 0
M  V30 57 H -2.477001 -3.598619 -4.572398 0
M  V30 58 H -2.684543 -5.238217 -2.849001 0
M  V30 59 H -3.618125 -3.787378 -2.285208 0
M  V30 60 H -1.304279 -3.061237 -1.317773 0
M  V30 61 H -3.752872 -6.402309 2.049063 0
M  V30 62 H -2.642811 -1.914465 2.808684 0
M  V30 63 H -3.213313 -0.929800 4.974426 0
M  V30 64 H -4.347763 -2.301351 6.696170 0
M  V30 65 H -4.903202 -4.697810 6.200546 0
M  V30 66 H -0.637373 -6.038711 -1.424349 0
M  V30 67 H 0.379811 -4.635355 -1.038805 0
M  V30 68 H -0.615490 -5.699213 -3.662570 0
M  V30 69 H 0.938560 -4.959652 -3.263254 0
M  V30 70 H 2.017762 -2.640154 -1.994178 0
M  V30 71 H 2.439714 -1.030265 -0.266382 0
M  V30 72 H 0.713258 0.009470 3.827786 0
M  V30 73 H 1.237531 1.371696 5.789573 0
M  V30 END ATOM
M  V30 BEGIN BOND
M  V30 1 1 1 2
M  V30 2 2 2 3
M  V30 3 1 3 4
M  V30 4 2 4 5
M  V30 5 1 5 6
M  V30 6 2 6 7
M  V30 7 1 7 8
M  V30 8 1 8 9
M  V30 9 2 9 10
M  V30 10 1 10 11
M  V30 11 2 11 12
M  V30 12 1 12 13
M  V30 13 2 13 14
M  V30 14 2 8 15
M  V30 15 1 15 16
M  V30 16 2 16 17
M  V30 17 1 17 18
M  V30 18 2 18 19
M  V30 19 1 19 20
M  V30 20 1 20 21
M  V30 21 1 21 22
M  V30 22 1 22 23
M  V30 23 1 23 24
M  V30 24 1 24 25
M  V30 25 2 25 26
M  V30 26 1 26 27
M  V30 27 1 27 28
M  V30 28 1 28 29
M  V30 29 2 29 30
M  V30 30 1 30 31
M  V30 31 2 31 32
M  V30 32 1 32 33
M  V30 33 2 33 34
M  V30 34 2 28 35
M  V30 35 1 24 36
M  V30 36 1 36 37
M  V30 37 1 19 38
M  V30 38 2 38 39
M  V30 39 1 15 40
M  V30 40 2 40 41
M  V30 41 1 41 42
M  V30 42 2 42 43
M  V30 43 1 43 44
M  V30 44 1 44 2
M  V30 45 1 44 5
M  V30 46 1 41 6
M  V30 47 1 14 9
M  V30 48 1 39 16
M  V30 49 1 37 21
M  V30 50 1 35 25
M  V30 51 1 34 29
M  V30 52 1 1 45
M  V30 53 1 7 46
M  V30 54 1 10 47
M  V30 55 1 11 48
M  V30 56 1 12 49
M  V30 57 1 13 50
M  V30 58 1 14 51
M  V30 59 1 17 52
M  V30 60 1 18 53
M  V30 61 1 20 54
M  V30 62 1 20 55
M  V30 63 1 22 56
M  V30 64 1 22 57
M  V30 65 1 23 58
M  V30 66 1 23 59
M  V30 67 1 24 60
M  V30 68 1 27 61
M  V30 69 1 30 62
M  V30 70 1 31 63
M  V30 71 1 32 64
M  V30 72 1 33 65
M  V30 73 1 36 66
M  V30 74 1 36 67
M  V30 75 1 37 68
M  V30 76 1 37 69
M  V30 77 1 38 70
M  V30 78 1 39 71
M  V30 79 1 42 72
M  V30 80 1 43 73
M  V30 END BOND
M  V30 END CTAB
M  END
>  <Dataset>  (42) 
ChEMBL_Kinases

>  <Ligand_Instance>  (42) 
nan

>  <PDB_ID>  (42) 
nan

>  <Standardized_SMILES>  (42) 
Sc1nnc2c3cc(-c4ccccc4)c(-c4ccc(CN5CCC(c6n[nH]c(-c7ccccn7)n6)CC5)cc4)nc3ccn12

>  <Name>  (42) 
nan

>  <Pocket>  (42) 
nan

>  <ATP_Site>  (42) 
nan

>  <Peripheral>  (42) 
nan

>  <Num_H_Atoms_ProtBoundConf>  (42) 
nan

>  <Num_Resolved_Atoms>  (42) 
nan

>  <Num_Not_Resolved_Atoms>  (42) 
nan

$$$$
CHEMBL4796116
     RDKit          3D

  0  0  0  0  0  0  0  0  0  0999 V3000
M  V30 BEGIN CTAB
M  V30 COUNTS 54 57 0 0 0
M  V30 BEGIN ATOM
M  V30 1 C 1.073445 -5.835462 4.399654 0
M  V30 2 C 1.356285 -5.092162 3.143689 0
M  V30 3 N 1.218985 -3.791765 2.873217 0
M  V30 4 C 1.584980 -3.487486 1.595605 0
M  V30 5 C 1.449592 -2.116144 1.152343 0
M  V30 6 C 2.321588 -1.264710 0.652211 0
M  V30 7 C 3.707768 -1.567216 0.438362 0
M  V30 8 O 4.266916 -2.651481 0.713962 0
M  V30 9 N 4.302313 -0.421907 -0.129568 0
M  V30 10 C 3.289642 0.566173 -0.258603 0
M  V30 11 C 3.318160 1.872081 -0.751118 0
M  V30 12 C 2.189558 2.698327 -0.790924 0
M  V30 13 C 1.011667 2.163258 -0.312732 0
M  V30 14 C -0.147265 3.043292 -0.364432 0
M  V30 15 O -0.032122 4.199289 -0.840684 0
M  V30 16 N -1.418668 2.629482 0.112958 0
M  V30 17 C -2.713202 3.265659 0.189989 0 CFG=2
M  V30 18 C -3.252587 3.218690 1.616404 0
M  V30 19 C -3.675846 2.460006 -0.619195 0
M  V30 20 C -4.536502 3.119183 -1.479409 0
M  V30 21 C -5.467318 2.532605 -2.280974 0
M  V30 22 C -5.576967 1.147839 -2.245231 0
M  V30 23 C -4.735675 0.455838 -1.399582 0
M  V30 24 C -3.802105 1.091330 -0.600107 0
M  V30 25 C 0.945138 0.890893 0.175940 0
M  V30 26 C 2.076146 0.102176 0.201281 0
M  V30 27 C 1.964445 -4.706228 1.078667 0
M  V30 28 C 2.409049 -4.911779 -0.302829 0
M  V30 29 C 1.841989 -5.719466 1.992738 0
M  V30 30 N 2.150896 -7.090760 1.780506 0 CHG=1 VAL=4
M  V30 31 O 3.209608 -7.740109 1.670427 0
M  V30 32 O 1.105789 -8.005458 1.652263 0 CHG=-1 VAL=1
M  V30 33 H 1.645827 -6.774405 4.448538 0
M  V30 34 H 1.227817 -5.195353 5.290505 0
M  V30 35 H -0.022865 -6.100614 4.432598 0
M  V30 36 H 0.859077 -3.166497 3.639682 0
M  V30 37 H 0.426615 -1.704606 1.246356 0
M  V30 38 H 5.301360 -0.381760 -0.380947 0
M  V30 39 H 4.272128 2.252893 -1.119045 0
M  V30 40 H 2.336054 3.683504 -1.192245 0
M  V30 41 H -1.568102 1.683508 0.520374 0
M  V30 42 H -2.660265 4.301336 -0.207409 0
M  V30 43 H -3.648975 2.179462 1.779952 0
M  V30 44 H -2.459572 3.391283 2.371927 0
M  V30 45 H -4.054213 3.976466 1.675605 0
M  V30 46 H -4.482227 4.200500 -1.535924 0
M  V30 47 H -6.117950 3.074027 -2.934852 0
M  V30 48 H -6.270616 0.560049 -2.827515 0
M  V30 49 H -4.797008 -0.635564 -1.348104 0
M  V30 50 H -3.157704 0.534272 0.051912 0
M  V30 51 H 0.037272 0.459239 0.550781 0
M  V30 52 H 3.510996 -5.051763 -0.382379 0
M  V30 53 H 1.956034 -5.803059 -0.784035 0
M  V30 54 H 2.121568 -4.060359 -0.951901 0
M  V30 END ATOM
M  V30 BEGIN BOND
M  V30 1 1 1 2
M  V30 2 1 2 3
M  V30 3 1 3 4
M  V30 4 1 4 5
M  V30 5 2 5 6
M  V30 6 1 6 7
M  V30 7 2 7 8
M  V30 8 1 7 9
M  V30 9 1 9 10
M  V30 10 2 10 11
M  V30 11 1 11 12
M  V30 12 2 12 13
M  V30 13 1 13 14
M  V30 14 2 14 15
M  V30 15 1 14 16
M  V30 16 1 16 17
M  V30 17 1 17 18
M  V30 18 1 17 19
M  V30 19 2 19 20
M  V30 20 1 20 21
M  V30 21 2 21 22
M  V30 22 1 22 23
M  V30 23 2 23 24
M  V30 24 1 13 25
M  V30 25 2 25 26
M  V30 26 2 4 27
M  V30 27 1 27 28
M  V30 28 1 27 29
M  V30 29 1 29 30
M  V30 30 2 30 31
M  V30 31 1 30 32
M  V30 32 2 29 2
M  V30 33 1 26 6
M  V30 34 1 26 10
M  V30 35 1 24 19
M  V30 36 1 1 33
M  V30 37 1 1 34
M  V30 38 1 1 35
M  V30 39 1 3 36
M  V30 40 1 5 37
M  V30 41 1 9 38
M  V30 42 1 11 39
M  V30 43 1 12 40
M  V30 44 1 16 41
M  V30 45 1 17 42 CFG=3
M  V30 46 1 18 43
M  V30 47 1 18 44
M  V30 48 1 18 45
M  V30 49 1 20 46
M  V30 50 1 21 47
M  V30 51 1 22 48
M  V30 52 1 23 49
M  V30 53 1 24 50
M  V30 54 1 25 51
M  V30 55 1 28 52
M  V30 56 1 28 53
M  V30 57 1 28 54
M  V30 END BOND
M  V30 END CTAB
M  END
>  <Dataset>  (43) 
ChEMBL_Kinases

>  <Ligand_Instance>  (43) 
nan

>  <PDB_ID>  (43) 
nan

>  <Standardized_SMILES>  (43) 
Cc1[nH]c(/C=C2\C(=O)Nc3ccc(C(=O)N[C@H](C)c4ccccc4)cc32)c(C)c1[N+](=O)[O-]

>  <Name>  (43) 
nan

>  <Pocket>  (43) 
nan

>  <ATP_Site>  (43) 
nan

>  <Peripheral>  (43) 
nan

>  <Num_H_Atoms_ProtBoundConf>  (43) 
nan

>  <Num_Resolved_Atoms>  (43) 
nan

>  <Num_Not_Resolved_Atoms>  (43) 
nan

$$$$
CHEMBL4781302
     RDKit          3D

  0  0  0  0  0  0  0  0  0  0999 V3000
M  V30 BEGIN CTAB
M  V30 COUNTS 51 54 0 0 0
M  V30 BEGIN ATOM
M  V30 1 C -1.013649 0.356061 4.697919 0
M  V30 2 O 0.079118 -0.301253 5.328999 0
M  V30 3 C 1.377425 -0.170163 4.899164 0
M  V30 4 C 2.470943 -0.800472 5.495631 0
M  V30 5 N 3.716477 -0.635616 5.033117 0
M  V30 6 C 4.039886 0.121397 3.988864 0
M  V30 7 C 3.013747 0.770332 3.354653 0
M  V30 8 C 3.179879 1.619848 2.219257 0
M  V30 9 C 3.300905 2.337214 1.249211 0
M  V30 10 C 3.450597 3.192638 0.131739 0
M  V30 11 C 4.348107 4.225300 -0.033944 0
M  V30 12 N 4.055013 4.699908 -1.263459 0
M  V30 13 N 3.069971 4.030688 -1.815660 0
M  V30 14 C 2.641616 3.050355 -0.966565 0
M  V30 15 C 1.557505 2.205859 -1.421121 0
M  V30 16 O 0.932730 2.301581 -2.519078 0
M  V30 17 N 1.027945 1.140620 -0.707943 0
M  V30 18 C 0.020561 0.158677 -0.846465 0
M  V30 19 C -1.287777 0.304859 -0.430127 0
M  V30 20 C -2.166604 -0.738411 -0.630448 0
M  V30 21 C -1.792163 -1.921810 -1.229701 0
M  V30 22 N -2.634348 -3.043122 -1.469415 0
M  V30 23 C -2.196621 -4.247714 -2.148104 0
M  V30 24 C -2.134163 -5.370461 -1.169979 0
M  V30 25 N -2.940542 -5.067863 -0.006023 0
M  V30 26 C -4.209427 -4.472917 -0.370935 0
M  V30 27 C -4.022547 -3.144560 -1.077755 0
M  V30 28 N -0.501097 -2.056431 -1.636599 0
M  V30 29 C 0.388251 -1.043440 -1.451707 0
M  V30 30 C 1.700955 0.623412 3.807568 0
M  V30 31 H -1.218112 -0.020502 3.674432 0
M  V30 32 H -1.930754 0.303793 5.299003 0
M  V30 33 H -0.709594 1.433981 4.604843 0
M  V30 34 H 2.230570 -1.426153 6.352480 0
M  V30 35 H 5.034156 0.269423 3.598983 0
M  V30 36 H 5.068491 4.487766 0.729119 0
M  V30 37 H 4.598061 5.515281 -1.663293 0
M  V30 38 H 1.363034 0.850204 0.218508 0
M  V30 39 H -1.580349 1.230625 0.039475 0
M  V30 40 H -3.194077 -0.652403 -0.316431 0
M  V30 41 H -1.169832 -4.034614 -2.538968 0
M  V30 42 H -2.796565 -4.468513 -3.049152 0
M  V30 43 H -1.091026 -5.525344 -0.814526 0
M  V30 44 H -2.463683 -6.311524 -1.668422 0
M  V30 45 H -3.093781 -5.898264 0.572201 0
M  V30 46 H -4.828316 -5.173331 -0.966324 0
M  V30 47 H -4.740069 -4.261966 0.603069 0
M  V30 48 H -4.379053 -2.299338 -0.459036 0
M  V30 49 H -4.599118 -3.204440 -2.043813 0
M  V30 50 H 1.410320 -1.186749 -1.789604 0
M  V30 51 H 0.864706 1.120842 3.331023 0
M  V30 END ATOM
M  V30 BEGIN BOND
M  V30 1 1 1 2
M  V30 2 1 2 3
M  V30 3 2 3 4
M  V30 4 1 4 5
M  V30 5 2 5 6
M  V30 6 1 6 7
M  V30 7 1 7 8
M  V30 8 3 8 9
M  V30 9 1 9 10
M  V30 10 2 10 11
M  V30 11 1 11 12
M  V30 12 1 12 13
M  V30 13 2 13 14
M  V30 14 1 14 15
M  V30 15 2 15 16
M  V30 16 1 15 17
M  V30 17 1 17 18
M  V30 18 2 18 19
M  V30 19 1 19 20
M  V30 20 2 20 21
M  V30 21 1 21 22
M  V30 22 1 22 23
M  V30 23 1 23 24
M  V30 24 1 24 25
M  V30 25 1 25 26
M  V30 26 1 26 27
M  V30 27 1 21 28
M  V30 28 2 28 29
M  V30 29 2 7 30
M  V30 30 1 30 3
M  V30 31 1 14 10
M  V30 32 1 29 18
M  V30 33 1 27 22
M  V30 34 1 1 31
M  V30 35 1 1 32
M  V30 36 1 1 33
M  V30 37 1 4 34
M  V30 38 1 6 35
M  V30 39 1 11 36
M  V30 40 1 12 37
M  V30 41 1 17 38
M  V30 42 1 19 39
M  V30 43 1 20 40
M  V30 44 1 23 41
M  V30 45 1 23 42
M  V30 46 1 24 43
M  V30 47 1 24 44
M  V30 48 1 25 45
M  V30 49 1 26 46
M  V30 50 1 26 47
M  V30 51 1 27 48
M  V30 52 1 27 49
M  V30 53 1 29 50
M  V30 54 1 30 51
M  V30 END BOND
M  V30 END CTAB
M  END
>  <Dataset>  (44) 
ChEMBL_Kinases

>  <Ligand_Instance>  (44) 
nan

>  <PDB_ID>  (44) 
nan

>  <Standardized_SMILES>  (44) 
COc1cncc(C#Cc2c[nH]nc2C(=O)Nc2ccc(N3CCNCC3)nc2)c1

>  <Name>  (44) 
nan

>  <Pocket>  (44) 
nan

>  <ATP_Site>  (44) 
nan

>  <Peripheral>  (44) 
nan

>  <Num_H_Atoms_ProtBoundConf>  (44) 
nan

>  <Num_Resolved_Atoms>  (44) 
nan

>  <Num_Not_Resolved_Atoms>  (44) 
nan

$$$$
CHEMBL4781326
     RDKit          3D

  0  0  0  0  0  0  0  0  0  0999 V3000
M  V30 BEGIN CTAB
M  V30 COUNTS 63 68 0 0 0
M  V30 BEGIN ATOM
M  V30 1 O 0.864235 -2.429238 5.822678 0
M  V30 2 C 1.069724 -1.489322 4.815457 0
M  V30 3 C 0.909812 -2.104007 3.488679 0
M  V30 4 C 1.692048 -1.897722 2.386508 0
M  V30 5 C 1.473925 -2.501203 1.181898 0
M  V30 6 N 2.374573 -2.165343 0.134467 0
M  V30 7 C 2.316701 -2.579963 -1.222275 0
M  V30 8 C 1.433981 -1.731247 -1.885550 0
M  V30 9 C 1.148221 -1.857600 -3.250258 0
M  V30 10 O 0.253944 -1.003747 -3.931133 0
M  V30 11 C -0.520329 -0.108919 -3.163577 0
M  V30 12 C -0.536846 1.269320 -3.145529 0
M  V30 13 N -1.459357 1.635890 -2.232854 0
M  V30 14 C -1.840612 2.979558 -1.849148 0
M  V30 15 C -2.462527 3.110674 -0.457803 0
M  V30 16 C -3.336537 3.289067 -1.693687 0
M  V30 17 N -1.970057 0.543705 -1.730048 0
M  V30 18 C -1.437604 -0.574107 -2.259307 0
M  V30 19 C -1.930699 -1.898284 -1.813167 0
M  V30 20 C -3.223449 -2.279887 -2.557200 0
M  V30 21 C -4.033821 -1.955582 -1.312313 0
M  V30 22 F -4.666287 -0.725975 -1.329806 0
M  V30 23 F -4.880730 -2.992679 -0.962323 0
M  V30 24 C -2.727160 -1.913083 -0.536952 0
M  V30 25 C 1.758524 -2.864828 -3.997289 0
M  V30 26 C 2.615706 -3.662858 -3.276777 0
M  V30 27 N 2.908455 -3.560882 -1.956901 0
M  V30 28 C 0.430510 -3.378876 0.989308 0
M  V30 29 C -0.343332 -3.564362 2.132109 0
M  V30 30 N -0.119522 -2.964868 3.310385 0
M  V30 31 C 2.176694 -0.539051 5.035968 0
M  V30 32 N 1.257535 0.525361 5.142675 0
M  V30 33 C 1.422806 1.769679 4.546671 0
M  V30 34 C 1.355834 1.926270 3.078628 0
M  V30 35 F 0.121023 1.529656 2.557872 0
M  V30 36 F 2.411001 1.461763 2.356757 0
M  V30 37 F 1.363326 3.316756 2.846814 0
M  V30 38 C 0.117705 -0.286399 4.915141 0
M  V30 39 H 1.106502 -2.051655 6.698313 0
M  V30 40 H 2.518783 -1.214917 2.517569 0
M  V30 41 H 3.201440 -1.572703 0.225354 0
M  V30 42 H 0.871430 -0.898164 -1.475095 0
M  V30 43 H 0.082213 1.900871 -3.760152 0
M  V30 44 H -1.177339 3.818802 -2.137250 0
M  V30 45 H -2.285779 4.031337 0.129914 0
M  V30 46 H -2.585778 2.166229 0.105456 0
M  V30 47 H -3.695732 4.311903 -1.916522 0
M  V30 48 H -4.021601 2.434967 -1.925950 0
M  V30 49 H -1.205790 -2.731992 -1.921847 0
M  V30 50 H -3.258449 -3.341159 -2.886255 0
M  V30 51 H -3.422489 -1.597193 -3.397694 0
M  V30 52 H -2.579620 -2.859473 0.036093 0
M  V30 53 H -2.625747 -1.020826 0.099399 0
M  V30 54 H 1.592419 -3.027944 -5.045139 0
M  V30 55 H 3.135500 -4.468460 -3.754332 0
M  V30 56 H 0.255695 -3.852895 0.053189 0
M  V30 57 H -1.194566 -4.240652 2.082085 0
M  V30 58 H 3.012361 -0.476605 4.339153 0
M  V30 59 H 2.628900 -0.732913 6.058766 0
M  V30 60 H 2.392793 2.203795 4.887799 0
M  V30 61 H 0.639978 2.467961 4.969124 0
M  V30 62 H -0.506154 -0.113240 4.021650 0
M  V30 63 H -0.521849 -0.395310 5.838544 0
M  V30 END ATOM
M  V30 BEGIN BOND
M  V30 1 1 1 2
M  V30 2 1 2 3
M  V30 3 2 3 4
M  V30 4 1 4 5
M  V30 5 1 5 6
M  V30 6 1 6 7
M  V30 7 2 7 8
M  V30 8 1 8 9
M  V30 9 1 9 10
M  V30 10 1 10 11
M  V30 11 2 11 12
M  V30 12 1 12 13
M  V30 13 1 13 14
M  V30 14 1 14 15
M  V30 15 1 15 16
M  V30 16 1 13 17
M  V30 17 2 17 18
M  V30 18 1 18 19
M  V30 19 1 19 20
M  V30 20 1 20 21
M  V30 21 1 21 22
M  V30 22 1 21 23
M  V30 23 1 21 24
M  V30 24 2 9 25
M  V30 25 1 25 26
M  V30 26 2 26 27
M  V30 27 2 5 28
M  V30 28 1 28 29
M  V30 29 2 29 30
M  V30 30 1 2 31
M  V30 31 1 31 32
M  V30 32 1 32 33
M  V30 33 1 33 34
M  V30 34 1 34 35
M  V30 35 1 34 36
M  V30 36 1 34 37
M  V30 37 1 32 38
M  V30 38 1 38 2
M  V30 39 1 30 3
M  V30 40 1 27 7
M  V30 41 1 18 11
M  V30 42 1 24 19
M  V30 43 1 16 14
M  V30 44 1 1 39
M  V30 45 1 4 40
M  V30 46 1 6 41
M  V30 47 1 8 42
M  V30 48 1 12 43
M  V30 49 1 14 44
M  V30 50 1 15 45
M  V30 51 1 15 46
M  V30 52 1 16 47
M  V30 53 1 16 48
M  V30 54 1 19 49
M  V30 55 1 20 50
M  V30 56 1 20 51
M  V30 57 1 24 52
M  V30 58 1 24 53
M  V30 59 1 25 54
M  V30 60 1 26 55
M  V30 61 1 28 56
M  V30 62 1 29 57
M  V30 63 1 31 58
M  V30 64 1 31 59
M  V30 65 1 33 60
M  V30 66 1 33 61
M  V30 67 1 38 62
M  V30 68 1 38 63
M  V30 END BOND
M  V30 END CTAB
M  END
>  <Dataset>  (45) 
ChEMBL_Kinases

>  <Ligand_Instance>  (45) 
nan

>  <PDB_ID>  (45) 
nan

>  <Standardized_SMILES>  (45) 
OC1(c2cc(Nc3cc(Oc4cn(C5CC5)nc4C4CC(F)(F)C4)ccn3)ccn2)CN(CC(F)(F)F)C1

>  <Name>  (45) 
nan

>  <Pocket>  (45) 
nan

>  <ATP_Site>  (45) 
nan

>  <Peripheral>  (45) 
nan

>  <Num_H_Atoms_ProtBoundConf>  (45) 
nan

>  <Num_Resolved_Atoms>  (45) 
nan

>  <Num_Not_Resolved_Atoms>  (45) 
nan

$$$$
CHEMBL4781361
     RDKit          3D

  0  0  0  0  0  0  0  0  0  0999 V3000
M  V30 BEGIN CTAB
M  V30 COUNTS 51 54 0 0 0
M  V30 BEGIN ATOM
M  V30 1 C 1.337193 -0.894396 6.516438 0
M  V30 2 O 2.339985 -1.679877 5.934380 0
M  V30 3 C 2.967970 -1.423707 4.733169 0
M  V30 4 C 3.923367 -2.361013 4.389999 0
M  V30 5 N 4.609410 -2.224537 3.238095 0
M  V30 6 C 4.364118 -1.176721 2.423350 0
M  V30 7 C 3.431348 -0.231052 2.724206 0
M  V30 8 C 3.209932 0.869469 1.815660 0
M  V30 9 O 3.904364 0.918709 0.749180 0
M  V30 10 N 2.270084 1.907594 2.023263 0
M  V30 11 C 2.203253 2.899350 1.011230 0
M  V30 12 C 2.927730 4.091573 0.919364 0
M  V30 13 N 2.574056 4.771195 -0.204352 0
M  V30 14 N 1.643820 4.038092 -0.825273 0
M  V30 15 C 1.410203 2.919440 -0.115599 0
M  V30 16 C 0.470742 1.851726 -0.439391 0
M  V30 17 O 0.375364 0.867073 0.339277 0
M  V30 18 N -0.346192 1.878132 -1.605286 0
M  V30 19 C -1.169823 0.713227 -1.677212 0
M  V30 20 C -2.431368 0.652403 -1.121210 0
M  V30 21 C -3.182865 -0.501982 -1.222167 0
M  V30 22 C -2.570583 -1.533781 -1.902221 0
M  V30 23 N -3.284115 -2.755945 -2.046798 0
M  V30 24 C -4.593040 -3.215742 -1.623313 0
M  V30 25 C -4.374088 -4.551600 -0.953886 0
M  V30 26 C -3.062525 -4.993643 -1.559238 0
M  V30 27 F -2.071329 -4.715509 -0.641357 0
M  V30 28 F -3.059262 -6.293665 -1.986291 0
M  V30 29 C -2.904222 -3.989786 -2.698087 0
M  V30 30 N -1.343695 -1.502610 -2.453767 0
M  V30 31 C -0.594036 -0.365002 -2.358447 0
M  V30 32 C 2.736084 -0.368166 3.890266 0
M  V30 33 H 0.727800 -1.575812 7.155082 0
M  V30 34 H 1.801788 -0.114656 7.157085 0
M  V30 35 H 0.693298 -0.447976 5.730969 0
M  V30 36 H 4.218929 -3.248304 4.951976 0
M  V30 37 H 4.937069 -1.097505 1.500187 0
M  V30 38 H 1.678887 1.888848 2.905256 0
M  V30 39 H 3.655607 4.339640 1.706733 0
M  V30 40 H 3.043645 5.684355 -0.393940 0
M  V30 41 H -0.286545 2.679080 -2.263732 0
M  V30 42 H -2.833175 1.501157 -0.608612 0
M  V30 43 H -4.176173 -0.615520 -0.809776 0
M  V30 44 H -4.938572 -2.507490 -0.836629 0
M  V30 45 H -5.300582 -3.268452 -2.475781 0
M  V30 46 H -5.216915 -5.213493 -1.265224 0
M  V30 47 H -4.302949 -4.432967 0.148897 0
M  V30 48 H -3.654958 -4.305900 -3.459493 0
M  V30 49 H -1.890145 -4.013139 -3.094858 0
M  V30 50 H 0.393802 -0.314934 -2.792872 0
M  V30 51 H 1.985013 0.337109 4.195409 0
M  V30 END ATOM
M  V30 BEGIN BOND
M  V30 1 1 1 2
M  V30 2 1 2 3
M  V30 3 2 3 4
M  V30 4 1 4 5
M  V30 5 2 5 6
M  V30 6 1 6 7
M  V30 7 1 7 8
M  V30 8 2 8 9
M  V30 9 1 8 10
M  V30 10 1 10 11
M  V30 11 2 11 12
M  V30 12 1 12 13
M  V30 13 1 13 14
M  V30 14 2 14 15
M  V30 15 1 15 16
M  V30 16 2 16 17
M  V30 17 1 16 18
M  V30 18 1 18 19
M  V30 19 2 19 20
M  V30 20 1 20 21
M  V30 21 2 21 22
M  V30 22 1 22 23
M  V30 23 1 23 24
M  V30 24 1 24 25
M  V30 25 1 25 26
M  V30 26 1 26 27
M  V30 27 1 26 28
M  V30 28 1 26 29
M  V30 29 1 22 30
M  V30 30 2 30 31
M  V30 31 2 7 32
M  V30 32 1 32 3
M  V30 33 1 15 11
M  V30 34 1 31 19
M  V30 35 1 29 23
M  V30 36 1 1 33
M  V30 37 1 1 34
M  V30 38 1 1 35
M  V30 39 1 4 36
M  V30 40 1 6 37
M  V30 41 1 10 38
M  V30 42 1 12 39
M  V30 43 1 13 40
M  V30 44 1 18 41
M  V30 45 1 20 42
M  V30 46 1 21 43
M  V30 47 1 24 44
M  V30 48 1 24 45
M  V30 49 1 25 46
M  V30 50 1 25 47
M  V30 51 1 29 48
M  V30 52 1 29 49
M  V30 53 1 31 50
M  V30 54 1 32 51
M  V30 END BOND
M  V30 END CTAB
M  END
>  <Dataset>  (46) 
ChEMBL_Kinases

>  <Ligand_Instance>  (46) 
nan

>  <PDB_ID>  (46) 
nan

>  <Standardized_SMILES>  (46) 
COc1cncc(C(=O)Nc2c[nH]nc2C(=O)Nc2ccc(N3CCC(F)(F)C3)nc2)c1

>  <Name>  (46) 
nan

>  <Pocket>  (46) 
nan

>  <ATP_Site>  (46) 
nan

>  <Peripheral>  (46) 
nan

>  <Num_H_Atoms_ProtBoundConf>  (46) 
nan

>  <Num_Resolved_Atoms>  (46) 
nan

>  <Num_Not_Resolved_Atoms>  (46) 
nan

$$$$
CHEMBL4781364
     RDKit          3D

  0  0  0  0  0  0  0  0  0  0999 V3000
M  V30 BEGIN CTAB
M  V30 COUNTS 40 42 0 0 0
M  V30 BEGIN ATOM
M  V30 1 C -3.219131 -2.888134 0.317523 0
M  V30 2 C -2.010267 -2.130260 0.616397 0
M  V30 3 C -0.743854 -2.246611 0.073458 0
M  V30 4 N 0.101423 -1.346235 0.630799 0
M  V30 5 C 1.506650 -1.168458 0.316943 0 CFG=2
M  V30 6 C 2.197438 -0.711375 1.589586 0
M  V30 7 C 1.691346 -0.088180 -0.723525 0 CFG=2
M  V30 8 F 1.181082 1.083950 -0.215029 0
M  V30 9 C 1.158713 -0.465744 -2.068390 0
M  V30 10 C 2.407753 -1.007685 -2.770527 0
M  V30 11 N 3.396796 -0.023912 -2.364909 0
M  V30 12 C 3.172487 0.131152 -0.941815 0
M  V30 13 C -0.594934 -0.620423 1.551713 0
M  V30 14 N -0.204307 0.367253 2.346795 0
M  V30 15 C -1.024684 0.994257 3.217265 0
M  V30 16 C -0.653389 2.083250 4.114160 0
M  V30 17 N 0.709461 2.477608 4.018073 0
M  V30 18 O -1.463029 2.630714 4.906389 0
M  V30 19 C -2.329482 0.524179 3.221871 0
M  V30 20 C -2.763891 -0.494527 2.412598 0
M  V30 21 Cl -4.420891 -1.044474 2.462643 0
M  V30 22 C -1.896584 -1.106530 1.540172 0
M  V30 23 H -2.920668 -3.725630 -0.375292 0
M  V30 24 H -3.543612 -3.404254 1.246119 0
M  V30 25 H -4.062359 -2.351122 -0.085333 0
M  V30 26 H -0.530942 -2.982795 -0.691751 0
M  V30 27 H 1.971049 -2.093022 -0.026156 0
M  V30 28 H 3.240621 -1.095014 1.613007 0
M  V30 29 H 2.158227 0.397305 1.670170 0
M  V30 30 H 1.653068 -1.122720 2.461555 0
M  V30 31 H 0.437455 -1.282997 -2.081935 0
M  V30 32 H 0.831876 0.428493 -2.637555 0
M  V30 33 H 2.259937 -1.063408 -3.850795 0
M  V30 34 H 2.648189 -1.953890 -2.273002 0
M  V30 35 H 3.130486 0.878976 -2.810914 0
M  V30 36 H 3.789854 -0.550186 -0.324917 0
M  V30 37 H 3.496962 1.173756 -0.669610 0
M  V30 38 H 1.442920 3.020829 3.512340 0
M  V30 39 H 1.019215 1.927889 4.873253 0
M  V30 40 H -3.017503 0.999533 3.904456 0
M  V30 END ATOM
M  V30 BEGIN BOND
M  V30 1 1 1 2
M  V30 2 2 2 3
M  V30 3 1 3 4
M  V30 4 1 4 5
M  V30 5 1 5 6
M  V30 6 1 5 7
M  V30 7 1 7 8 CFG=1
M  V30 8 1 7 9
M  V30 9 1 9 10
M  V30 10 1 10 11
M  V30 11 1 11 12
M  V30 12 1 4 13
M  V30 13 2 13 14
M  V30 14 1 14 15
M  V30 15 1 15 16
M  V30 16 1 16 17
M  V30 17 2 16 18
M  V30 18 2 15 19
M  V30 19 1 19 20
M  V30 20 1 20 21
M  V30 21 2 20 22
M  V30 22 1 22 2
M  V30 23 1 12 7
M  V30 24 1 22 13
M  V30 25 1 1 23
M  V30 26 1 1 24
M  V30 27 1 1 25
M  V30 28 1 3 26
M  V30 29 1 5 27 CFG=3
M  V30 30 1 6 28
M  V30 31 1 6 29
M  V30 32 1 6 30
M  V30 33 1 9 31
M  V30 34 1 9 32
M  V30 35 1 10 33
M  V30 36 1 10 34
M  V30 37 1 11 35
M  V30 38 1 12 36
M  V30 39 1 12 37
M  V30 40 1 17 38
M  V30 41 1 17 39
M  V30 42 1 19 40
M  V30 END BOND
M  V30 END CTAB
M  END
>  <Dataset>  (47) 
ChEMBL_Kinases

>  <Ligand_Instance>  (47) 
nan

>  <PDB_ID>  (47) 
nan

>  <Standardized_SMILES>  (47) 
Cc1cn([C@H](C)[C@]2(F)CCNC2)c2nc(C(N)=O)cc(Cl)c12

>  <Name>  (47) 
nan

>  <Pocket>  (47) 
nan

>  <ATP_Site>  (47) 
nan

>  <Peripheral>  (47) 
nan

>  <Num_H_Atoms_ProtBoundConf>  (47) 
nan

>  <Num_Resolved_Atoms>  (47) 
nan

>  <Num_Not_Resolved_Atoms>  (47) 
nan

$$$$
CHEMBL4781396
     RDKit          3D

  0  0  0  0  0  0  0  0  0  0999 V3000
M  V30 BEGIN CTAB
M  V30 COUNTS 55 58 0 0 0
M  V30 BEGIN ATOM
M  V30 1 C 1.500179 -5.759585 -1.026926 0
M  V30 2 C 2.463463 -4.979614 -0.538565 0
M  V30 3 C 3.104856 -4.161659 -1.566594 0
M  V30 4 O 2.212054 -4.873475 -2.062988 0
M  V30 5 N 4.146042 -3.294101 -1.156069 0
M  V30 6 C 4.612244 -3.168754 0.181550 0
M  V30 7 C 4.689453 -1.777847 0.701261 0
M  V30 8 N 4.165331 -0.881087 -0.316515 0
M  V30 9 C 3.041832 -0.022210 -0.121187 0
M  V30 10 C 2.492645 0.870746 -1.022767 0
M  V30 11 C 1.399404 1.617272 -0.635819 0
M  V30 12 C 0.795722 1.542706 0.607763 0
M  V30 13 C -0.374617 2.387265 0.961274 0
M  V30 14 C -0.202686 3.109309 2.251767 0
M  V30 15 C -1.673360 1.625172 0.871655 0
M  V30 16 O -2.628887 1.973139 0.090409 0
M  V30 17 N -2.031782 0.459464 1.599706 0
M  V30 18 C -3.353349 0.057981 1.215291 0
M  V30 19 C -4.527811 0.482975 1.847100 0
M  V30 20 C -5.589559 -0.121382 1.184296 0
M  V30 21 C -7.059563 -0.009964 1.455804 0
M  V30 22 C -7.505747 1.167537 2.216764 0
M  V30 23 C -7.495427 -0.142480 2.912260 0
M  V30 24 N -5.057787 -0.867718 0.206448 0
M  V30 25 N -3.749290 -0.763459 0.224018 0
M  V30 26 C 1.403734 0.630366 1.444577 0
M  V30 27 N 2.468787 -0.108711 1.092307 0
M  V30 28 C 4.961386 -1.006834 -1.524148 0
M  V30 29 C 4.888202 -2.411695 -2.000331 0
M  V30 30 H 0.710963 -6.427628 -1.295481 0
M  V30 31 H 0.828747 -6.488081 -0.569271 0
M  V30 32 H 2.512570 -5.169440 0.529782 0
M  V30 33 H 5.651794 -3.611936 0.195746 0
M  V30 34 H 4.032891 -3.853815 0.843877 0
M  V30 35 H 5.731672 -1.499888 0.977912 0
M  V30 36 H 3.996959 -1.713267 1.573108 0
M  V30 37 H 2.972082 0.912965 -1.973147 0
M  V30 38 H 1.013241 2.301817 -1.388206 0
M  V30 39 H -0.453773 3.145350 0.126424 0
M  V30 40 H 0.873818 3.282130 2.421356 0
M  V30 41 H -0.616658 2.597851 3.128944 0
M  V30 42 H -0.683219 4.105455 2.202143 0
M  V30 43 H -1.323033 0.088252 2.269242 0
M  V30 44 H -4.622184 1.149389 2.687240 0
M  V30 45 H -7.743656 -0.548673 0.767255 0
M  V30 46 H -8.476471 1.632178 1.923270 0
M  V30 47 H -6.779853 1.918611 2.550052 0
M  V30 48 H -6.692924 -0.349162 3.671264 0
M  V30 49 H -8.456141 -0.649119 3.147992 0
M  V30 50 H -5.525774 -1.460515 -0.492828 0
M  V30 51 H 1.005796 0.503120 2.442268 0
M  V30 52 H 4.552721 -0.321893 -2.299937 0
M  V30 53 H 6.022382 -0.757865 -1.284002 0
M  V30 54 H 4.411870 -2.479440 -3.019111 0
M  V30 55 H 5.905792 -2.820688 -2.120985 0
M  V30 END ATOM
M  V30 BEGIN BOND
M  V30 1 2 1 2
M  V30 2 1 2 3
M  V30 3 2 3 4
M  V30 4 1 3 5
M  V30 5 1 5 6
M  V30 6 1 6 7
M  V30 7 1 7 8
M  V30 8 1 8 9
M  V30 9 2 9 10
M  V30 10 1 10 11
M  V30 11 2 11 12
M  V30 12 1 12 13
M  V30 13 1 13 14
M  V30 14 1 13 15
M  V30 15 2 15 16
M  V30 16 1 15 17
M  V30 17 1 17 18
M  V30 18 1 18 19
M  V30 19 2 19 20
M  V30 20 1 20 21
M  V30 21 1 21 22
M  V30 22 1 22 23
M  V30 23 1 20 24
M  V30 24 1 24 25
M  V30 25 1 12 26
M  V30 26 2 26 27
M  V30 27 1 8 28
M  V30 28 1 28 29
M  V30 29 1 29 5
M  V30 30 1 27 9
M  V30 31 2 25 18
M  V30 32 1 23 21
M  V30 33 1 1 30
M  V30 34 1 1 31
M  V30 35 1 2 32
M  V30 36 1 6 33
M  V30 37 1 6 34
M  V30 38 1 7 35
M  V30 39 1 7 36
M  V30 40 1 10 37
M  V30 41 1 11 38
M  V30 42 1 13 39
M  V30 43 1 14 40
M  V30 44 1 14 41
M  V30 45 1 14 42
M  V30 46 1 17 43
M  V30 47 1 19 44
M  V30 48 1 21 45
M  V30 49 1 22 46
M  V30 50 1 22 47
M  V30 51 1 23 48
M  V30 52 1 23 49
M  V30 53 1 24 50
M  V30 54 1 26 51
M  V30 55 1 28 52
M  V30 56 1 28 53
M  V30 57 1 29 54
M  V30 58 1 29 55
M  V30 END BOND
M  V30 END CTAB
M  END
>  <Dataset>  (48) 
ChEMBL_Kinases

>  <Ligand_Instance>  (48) 
nan

>  <PDB_ID>  (48) 
nan

>  <Standardized_SMILES>  (48) 
C=CC(=O)N1CCN(c2ccc(C(C)C(=O)Nc3cc(C4CC4)[nH]n3)cn2)CC1

>  <Name>  (48) 
nan

>  <Pocket>  (48) 
nan

>  <ATP_Site>  (48) 
nan

>  <Peripheral>  (48) 
nan

>  <Num_H_Atoms_ProtBoundConf>  (48) 
nan

>  <Num_Resolved_Atoms>  (48) 
nan

>  <Num_Not_Resolved_Atoms>  (48) 
nan

$$$$
CHEMBL4781445
     RDKit          3D

  0  0  0  0  0  0  0  0  0  0999 V3000
M  V30 BEGIN CTAB
M  V30 COUNTS 66 70 0 0 0
M  V30 BEGIN ATOM
M  V30 1 C -1.849583 1.699852 3.397577 0
M  V30 2 C -1.462283 0.398410 2.720728 0
M  V30 3 C -2.218381 0.247310 1.416616 0
M  V30 4 C -1.846466 -1.064000 0.710734 0
M  V30 5 N -0.438040 -1.092113 0.414464 0
M  V30 6 C -0.036017 -2.331362 -0.224383 0
M  V30 7 C 1.426607 -2.365343 -0.499416 0
M  V30 8 C 1.761745 -1.246924 -1.407826 0
M  V30 9 O 2.554143 -0.528971 -0.741610 0
M  V30 10 N 1.602158 -0.623292 -2.667984 0
M  V30 11 C 2.323027 0.609194 -2.872154 0
M  V30 12 C 1.519871 1.726722 -3.406148 0
M  V30 13 N 0.083596 1.304992 -3.468345 0
M  V30 14 C -0.814742 2.017275 -2.650314 0
M  V30 15 N -0.357269 3.212563 -2.226361 0
M  V30 16 C -0.950387 4.146544 -1.496605 0
M  V30 17 N -2.182132 3.849357 -1.133235 0
M  V30 18 C -2.733505 2.628195 -1.529735 0
M  V30 19 S -4.379624 1.982355 -1.156808 0
M  V30 20 C -4.090228 0.449562 -2.058479 0
M  V30 21 C -2.802190 0.559107 -2.552314 0
M  V30 22 C -2.120744 1.673069 -2.277824 0
M  V30 23 C -2.728482 -0.753668 -3.229581 0
M  V30 24 C -3.802604 -1.662117 -2.761556 0
M  V30 25 C -4.876692 -0.720684 -2.305732 0
M  V30 26 C 0.127775 0.297383 -4.418409 0
M  V30 27 C 0.898893 -0.889869 -3.906302 0
M  V30 28 C 2.257957 -2.188965 0.716169 0
M  V30 29 C 2.241498 -1.100098 1.562801 0
M  V30 30 C 3.049831 -1.017798 2.673789 0
M  V30 31 C 3.928604 -2.024810 3.007213 0
M  V30 32 Cl 4.995535 -2.015577 4.393762 0
M  V30 33 C 3.997333 -3.142999 2.204864 0
M  V30 34 C 3.168692 -3.184406 1.100386 0
M  V30 35 H -1.251898 1.794285 4.321858 0
M  V30 36 H -1.659819 2.523458 2.676629 0
M  V30 37 H -2.948875 1.615150 3.617375 0
M  V30 38 H -0.404246 0.470000 2.458882 0
M  V30 39 H -1.732684 -0.437957 3.394551 0
M  V30 40 H -1.942251 1.103191 0.786083 0
M  V30 41 H -3.304671 0.231699 1.567920 0
M  V30 42 H -2.172105 -1.921806 1.327823 0
M  V30 43 H -2.493083 -1.081320 -0.188300 0
M  V30 44 H -0.261951 -0.339530 -0.303890 0
M  V30 45 H -0.432723 -3.221386 0.294917 0
M  V30 46 H -0.558970 -2.340203 -1.209987 0
M  V30 47 H 1.663743 -3.350651 -0.928688 0
M  V30 48 H 2.762415 0.978131 -1.893835 0
M  V30 49 H 3.248922 0.422406 -3.487637 0
M  V30 50 H 1.611136 2.671277 -2.785093 0
M  V30 51 H 1.835446 2.110875 -4.417300 0
M  V30 52 H -0.493502 5.060693 -1.216738 0
M  V30 53 H -2.906494 -0.622017 -4.318111 0
M  V30 54 H -1.790978 -1.258696 -2.962639 0
M  V30 55 H -4.208870 -2.301172 -3.571577 0
M  V30 56 H -3.541244 -2.341293 -1.927586 0
M  V30 57 H -5.419117 -1.143854 -1.438404 0
M  V30 58 H -5.615001 -0.578590 -3.115043 0
M  V30 59 H 0.723210 0.641310 -5.349374 0
M  V30 60 H -0.756223 0.031932 -5.015785 0
M  V30 61 H 1.747370 -1.180393 -4.609067 0
M  V30 62 H 0.321487 -1.835439 -3.861756 0
M  V30 63 H 1.577941 -0.295342 1.346742 0
M  V30 64 H 3.020735 -0.156834 3.322434 0
M  V30 65 H 4.655026 -3.988127 2.382530 0
M  V30 66 H 3.216630 -4.060947 0.462994 0
M  V30 END ATOM
M  V30 BEGIN BOND
M  V30 1 1 1 2
M  V30 2 1 2 3
M  V30 3 1 3 4
M  V30 4 1 4 5
M  V30 5 1 5 6
M  V30 6 1 6 7
M  V30 7 1 7 8
M  V30 8 2 8 9
M  V30 9 1 8 10
M  V30 10 1 10 11
M  V30 11 1 11 12
M  V30 12 1 12 13
M  V30 13 1 13 14
M  V30 14 2 14 15
M  V30 15 1 15 16
M  V30 16 2 16 17
M  V30 17 1 17 18
M  V30 18 1 18 19
M  V30 19 1 19 20
M  V30 20 2 20 21
M  V30 21 1 21 22
M  V30 22 1 21 23
M  V30 23 1 23 24
M  V30 24 1 24 25
M  V30 25 1 13 26
M  V30 26 1 26 27
M  V30 27 1 7 28
M  V30 28 2 28 29
M  V30 29 1 29 30
M  V30 30 2 30 31
M  V30 31 1 31 32
M  V30 32 1 31 33
M  V30 33 2 33 34
M  V30 34 1 27 10
M  V30 35 1 34 28
M  V30 36 1 22 14
M  V30 37 2 22 18
M  V30 38 1 25 20
M  V30 39 1 1 35
M  V30 40 1 1 36
M  V30 41 1 1 37
M  V30 42 1 2 38
M  V30 43 1 2 39
M  V30 44 1 3 40
M  V30 45 1 3 41
M  V30 46 1 4 42
M  V30 47 1 4 43
M  V30 48 1 5 44
M  V30 49 1 6 45
M  V30 50 1 6 46
M  V30 51 1 7 47
M  V30 52 1 11 48
M  V30 53 1 11 49
M  V30 54 1 12 50
M  V30 55 1 12 51
M  V30 56 1 16 52
M  V30 57 1 23 53
M  V30 58 1 23 54
M  V30 59 1 24 55
M  V30 60 1 24 56
M  V30 61 1 25 57
M  V30 62 1 25 58
M  V30 63 1 26 59
M  V30 64 1 26 60
M  V30 65 1 27 61
M  V30 66 1 27 62
M  V30 67 1 29 63
M  V30 68 1 30 64
M  V30 69 1 33 65
M  V30 70 1 34 66
M  V30 END BOND
M  V30 END CTAB
M  END
>  <Dataset>  (49) 
ChEMBL_Kinases

>  <Ligand_Instance>  (49) 
nan

>  <PDB_ID>  (49) 
nan

>  <Standardized_SMILES>  (49) 
CCCCNCC(C(=O)N1CCN(c2ncnc3sc4c(c23)CCC4)CC1)c1ccc(Cl)cc1

>  <Name>  (49) 
nan

>  <Pocket>  (49) 
nan

>  <ATP_Site>  (49) 
nan

>  <Peripheral>  (49) 
nan

>  <Num_H_Atoms_ProtBoundConf>  (49) 
nan

>  <Num_Resolved_Atoms>  (49) 
nan

>  <Num_Not_Resolved_Atoms>  (49) 
nan

$$$$
CHEMBL4781452
     RDKit          3D

  0  0  0  0  0  0  0  0  0  0999 V3000
M  V30 BEGIN CTAB
M  V30 COUNTS 61 65 0 0 0
M  V30 BEGIN ATOM
M  V30 1 C 3.387794 -2.237378 5.026350 0
M  V30 2 C 3.924177 -2.103541 3.614663 0
M  V30 3 C 3.388118 -3.327359 2.853069 0
M  V30 4 O 5.300146 -2.055323 3.600398 0
M  V30 5 C 3.274479 -0.928582 2.958436 0
M  V30 6 C 3.636521 -0.511573 1.693289 0
M  V30 7 C 3.026646 0.570978 1.059582 0
M  V30 8 N 3.514192 0.868363 -0.243844 0
M  V30 9 C 2.455766 1.596662 -0.904631 0
M  V30 10 C 1.282659 0.857468 -1.139210 0
M  V30 11 C 0.168443 1.399238 -1.766093 0
M  V30 12 O -0.865763 0.437192 -1.869790 0
M  V30 13 C -1.686200 0.398275 -0.725886 0
M  V30 14 C -1.686615 1.144464 0.453613 0
M  V30 15 N -2.688778 0.698319 1.229620 0
M  V30 16 C -3.018995 1.228614 2.562921 0
M  V30 17 C -3.911345 0.366887 3.369848 0
M  V30 18 C -2.452222 0.362544 3.735953 0
M  V30 19 N -3.331363 -0.296205 0.604626 0
M  V30 20 C -2.730842 -0.501107 -0.606734 0
M  V30 21 C -3.134253 -1.513988 -1.574000 0
M  V30 22 C -4.403326 -1.857351 -1.989052 0
M  V30 23 C -4.525301 -2.861871 -2.926072 0
M  V30 24 C -3.449265 -3.510795 -3.441433 0
M  V30 25 C -3.649453 -4.576504 -4.426655 0
M  V30 26 N -2.502077 -5.200996 -5.025884 0
M  V30 27 O -4.862547 -4.883403 -4.690495 0
M  V30 28 C -2.171068 -3.183527 -3.039970 0
M  V30 29 C -2.024594 -2.186110 -2.108172 0
M  V30 30 C 0.223162 2.708529 -2.170053 0
M  V30 31 C 1.380140 3.410790 -1.929935 0
M  V30 32 N 2.460101 2.895020 -1.325009 0
M  V30 33 C 2.039458 1.188346 1.794928 0
M  V30 34 C 1.670487 0.782585 3.054927 0
M  V30 35 N 2.289740 -0.260605 3.609279 0
M  V30 36 H 4.015787 -1.703300 5.756835 0
M  V30 37 H 3.372182 -3.292598 5.362623 0
M  V30 38 H 2.337599 -1.824204 5.034052 0
M  V30 39 H 2.450046 -3.706822 3.342146 0
M  V30 40 H 3.093923 -3.062844 1.821619 0
M  V30 41 H 4.120767 -4.129375 2.806046 0
M  V30 42 H 5.698401 -2.833061 3.117882 0
M  V30 43 H 4.437753 -1.088850 1.219132 0
M  V30 44 H 4.459711 0.576503 -0.554858 0
M  V30 45 H 1.297831 -0.174530 -0.795132 0
M  V30 46 H -0.957772 1.938293 0.633406 0
M  V30 47 H -3.040514 2.304558 2.718438 0
M  V30 48 H -4.558173 0.752021 4.182921 0
M  V30 49 H -4.305004 -0.599927 2.938001 0
M  V30 50 H -1.840338 -0.515194 3.441213 0
M  V30 51 H -2.060488 0.911511 4.592674 0
M  V30 52 H -5.192605 -1.284963 -1.520847 0
M  V30 53 H -5.530186 -3.108579 -3.234700 0
M  V30 54 H -1.874935 -5.533832 -4.252614 0
M  V30 55 H -2.152540 -5.395487 -5.988213 0
M  V30 56 H -1.312797 -3.723224 -3.471894 0
M  V30 57 H -0.975798 -1.981775 -1.836906 0
M  V30 58 H -0.690077 3.029271 -2.646024 0
M  V30 59 H 1.384999 4.436334 -2.263140 0
M  V30 60 H 1.588796 2.037235 1.256518 0
M  V30 61 H 0.877596 1.394165 3.457667 0
M  V30 END ATOM
M  V30 BEGIN BOND
M  V30 1 1 1 2
M  V30 2 1 2 3
M  V30 3 1 2 4
M  V30 4 1 2 5
M  V30 5 2 5 6
M  V30 6 1 6 7
M  V30 7 1 7 8
M  V30 8 1 8 9
M  V30 9 2 9 10
M  V30 10 1 10 11
M  V30 11 1 11 12
M  V30 12 1 12 13
M  V30 13 2 13 14
M  V30 14 1 14 15
M  V30 15 1 15 16
M  V30 16 1 16 17
M  V30 17 1 17 18
M  V30 18 1 15 19
M  V30 19 2 19 20
M  V30 20 1 20 21
M  V30 21 2 21 22
M  V30 22 1 22 23
M  V30 23 2 23 24
M  V30 24 1 24 25
M  V30 25 1 25 26
M  V30 26 2 25 27
M  V30 27 1 24 28
M  V30 28 2 28 29
M  V30 29 2 11 30
M  V30 30 1 30 31
M  V30 31 2 31 32
M  V30 32 2 7 33
M  V30 33 1 33 34
M  V30 34 2 34 35
M  V30 35 1 35 5
M  V30 36 1 32 9
M  V30 37 1 20 13
M  V30 38 1 29 21
M  V30 39 1 18 16
M  V30 40 1 1 36
M  V30 41 1 1 37
M  V30 42 1 1 38
M  V30 43 1 3 39
M  V30 44 1 3 40
M  V30 45 1 3 41
M  V30 46 1 4 42
M  V30 47 1 6 43
M  V30 48 1 8 44
M  V30 49 1 10 45
M  V30 50 1 14 46
M  V30 51 1 16 47
M  V30 52 1 17 48
M  V30 53 1 17 49
M  V30 54 1 18 50
M  V30 55 1 18 51
M  V30 56 1 22 52
M  V30 57 1 23 53
M  V30 58 1 26 54
M  V30 59 1 26 55
M  V30 60 1 28 56
M  V30 61 1 29 57
M  V30 62 1 30 58
M  V30 63 1 31 59
M  V30 64 1 33 60
M  V30 65 1 34 61
M  V30 END BOND
M  V30 END CTAB
M  END
>  <Dataset>  (50) 
ChEMBL_Kinases

>  <Ligand_Instance>  (50) 
nan

>  <PDB_ID>  (50) 
nan

>  <Standardized_SMILES>  (50) 
CC(C)(O)c1cc(Nc2cc(Oc3cn(C4CC4)nc3-c3ccc(C(N)=O)cc3)ccn2)ccn1

>  <Name>  (50) 
nan

>  <Pocket>  (50) 
nan

>  <ATP_Site>  (50) 
nan

>  <Peripheral>  (50) 
nan

>  <Num_H_Atoms_ProtBoundConf>  (50) 
nan

>  <Num_Resolved_Atoms>  (50) 
nan

>  <Num_Not_Resolved_Atoms>  (50) 
nan

$$$$
CHEMBL4781578
     RDKit          3D

  0  0  0  0  0  0  0  0  0  0999 V3000
M  V30 BEGIN CTAB
M  V30 COUNTS 66 68 0 0 0
M  V30 BEGIN ATOM
M  V30 1 C 4.190109 1.259331 5.070341 0
M  V30 2 C 5.310226 1.867303 4.199533 0
M  V30 3 N 5.104089 1.426497 2.805823 0
M  V30 4 C 6.128741 2.062962 2.011779 0
M  V30 5 C 7.471663 1.481964 2.342100 0
M  V30 6 C 5.142090 0.005514 2.753363 0
M  V30 7 C 4.820730 -0.664961 1.472577 0
M  V30 8 N 3.472663 -0.449562 1.015467 0
M  V30 9 C 2.643890 0.621397 0.632867 0
M  V30 10 O 3.273033 1.709976 0.709489 0
M  V30 11 C 1.267990 0.681351 0.190146 0
M  V30 12 C 0.736626 1.885361 -0.225199 0
M  V30 13 C 1.315713 3.261273 -0.341931 0
M  V30 14 N -0.553829 1.617676 -0.561818 0
M  V30 15 C -0.918810 0.364935 -0.409837 0
M  V30 16 C -2.144868 -0.375037 -0.657000 0
M  V30 17 C -2.897399 -0.436589 -1.723564 0
M  V30 18 C -2.600106 0.287171 -2.950409 0
M  V30 19 O -1.613842 1.032330 -3.159126 0
M  V30 20 N -3.651641 -0.028563 -3.849631 0
M  V30 21 C -4.565748 -0.922030 -3.187590 0
M  V30 22 C -5.723816 -1.482479 -3.681866 0
M  V30 23 C -6.412553 -2.311292 -2.815879 0
M  V30 24 C -6.031072 -2.610565 -1.520363 0
M  V30 25 C -6.747650 -3.483579 -0.609494 0
M  V30 26 C -6.368037 -4.917494 -0.570301 0
M  V30 27 C -7.261235 -5.583190 0.441675 0
M  V30 28 N -6.929665 -6.948672 0.607630 0
M  V30 29 O -8.218963 -5.243946 1.172977 0
M  V30 30 C -4.861271 -2.025558 -1.066984 0
M  V30 31 C -4.135353 -1.186650 -1.899412 0
M  V30 32 C 0.249285 -0.239921 0.073745 0
M  V30 33 C 0.384002 -1.676911 0.419928 0
M  V30 34 H 4.468248 0.263066 5.446219 0
M  V30 35 H 3.218874 1.306061 4.565713 0
M  V30 36 H 4.110575 1.916871 5.982647 0
M  V30 37 H 6.257659 1.476798 4.597230 0
M  V30 38 H 5.235394 2.962272 4.306173 0
M  V30 39 H 6.191397 3.151050 2.248220 0
M  V30 40 H 5.985563 1.891356 0.920144 0
M  V30 41 H 7.485636 0.432062 1.924676 0
M  V30 42 H 8.255607 1.995780 1.690543 0
M  V30 43 H 7.769759 1.525246 3.385471 0
M  V30 44 H 4.379577 -0.356891 3.513571 0
M  V30 45 H 6.108244 -0.324927 3.193127 0
M  V30 46 H 5.512793 -0.373491 0.638936 0
M  V30 47 H 5.002986 -1.748885 1.608296 0
M  V30 48 H 2.922602 -1.361795 0.932362 0
M  V30 49 H 1.355081 3.770139 0.653808 0
M  V30 50 H 2.314758 3.174794 -0.815355 0
M  V30 51 H 0.694761 3.889546 -1.015758 0
M  V30 52 H -1.224526 2.367626 -0.907004 0
M  V30 53 H -2.487975 -0.978534 0.199105 0
M  V30 54 H -3.712770 0.347611 -4.820968 0
M  V30 55 H -6.079385 -1.294972 -4.675648 0
M  V30 56 H -7.317466 -2.751126 -3.196520 0
M  V30 57 H -6.793819 -3.039086 0.405821 0
M  V30 58 H -7.827585 -3.464765 -0.949720 0
M  V30 59 H -5.346460 -5.127537 -0.245968 0
M  V30 60 H -6.538496 -5.450744 -1.524651 0
M  V30 61 H -6.772608 -7.992461 0.678110 0
M  V30 62 H -6.133424 -7.466415 1.065292 0
M  V30 63 H -4.499629 -2.203424 -0.089076 0
M  V30 64 H 0.696820 -1.796229 1.463891 0
M  V30 65 H -0.625162 -2.159426 0.357667 0
M  V30 66 H 1.074759 -2.131914 -0.308152 0
M  V30 END ATOM
M  V30 BEGIN BOND
M  V30 1 1 1 2
M  V30 2 1 2 3
M  V30 3 1 3 4
M  V30 4 1 4 5
M  V30 5 1 3 6
M  V30 6 1 6 7
M  V30 7 1 7 8
M  V30 8 1 8 9
M  V30 9 2 9 10
M  V30 10 1 9 11
M  V30 11 2 11 12
M  V30 12 1 12 13
M  V30 13 1 12 14
M  V30 14 1 14 15
M  V30 15 1 15 16
M  V30 16 2 16 17
M  V30 17 1 17 18
M  V30 18 2 18 19
M  V30 19 1 18 20
M  V30 20 1 20 21
M  V30 21 2 21 22
M  V30 22 1 22 23
M  V30 23 2 23 24
M  V30 24 1 24 25
M  V30 25 1 25 26
M  V30 26 1 26 27
M  V30 27 1 27 28
M  V30 28 2 27 29
M  V30 29 1 24 30
M  V30 30 2 30 31
M  V30 31 2 15 32
M  V30 32 1 32 33
M  V30 33 1 32 11
M  V30 34 1 31 17
M  V30 35 1 31 21
M  V30 36 1 1 34
M  V30 37 1 1 35
M  V30 38 1 1 36
M  V30 39 1 2 37
M  V30 40 1 2 38
M  V30 41 1 4 39
M  V30 42 1 4 40
M  V30 43 1 5 41
M  V30 44 1 5 42
M  V30 45 1 5 43
M  V30 46 1 6 44
M  V30 47 1 6 45
M  V30 48 1 7 46
M  V30 49 1 7 47
M  V30 50 1 8 48
M  V30 51 1 13 49
M  V30 52 1 13 50
M  V30 53 1 13 51
M  V30 54 1 14 52
M  V30 55 1 16 53
M  V30 56 1 20 54
M  V30 57 1 22 55
M  V30 58 1 23 56
M  V30 59 1 25 57
M  V30 60 1 25 58
M  V30 61 1 26 59
M  V30 62 1 26 60
M  V30 63 1 28 61
M  V30 64 1 28 62
M  V30 65 1 30 63
M  V30 66 1 33 64
M  V30 67 1 33 65
M  V30 68 1 33 66
M  V30 END BOND
M  V30 END CTAB
M  END
>  <Dataset>  (51) 
ChEMBL_Kinases

>  <Ligand_Instance>  (51) 
nan

>  <PDB_ID>  (51) 
nan

>  <Standardized_SMILES>  (51) 
CCN(CC)CCNC(=O)c1c(C)[nH]c(/C=C2\C(=O)Nc3ccc(CCC(N)=O)cc32)c1C

>  <Name>  (51) 
nan

>  <Pocket>  (51) 
nan

>  <ATP_Site>  (51) 
nan

>  <Peripheral>  (51) 
nan

>  <Num_H_Atoms_ProtBoundConf>  (51) 
nan

>  <Num_Resolved_Atoms>  (51) 
nan

>  <Num_Not_Resolved_Atoms>  (51) 
nan

$$$$
CHEMBL499555
     RDKit          3D

  0  0  0  0  0  0  0  0  0  0999 V3000
M  V30 BEGIN CTAB
M  V30 COUNTS 74 81 0 0 0
M  V30 BEGIN ATOM
M  V30 1 N 5.491755 1.778990 6.104976 0
M  V30 2 C 5.313973 2.008484 4.711817 0
M  V30 3 N 5.893506 2.896615 3.888129 0
M  V30 4 N 5.444046 2.781522 2.649854 0
M  V30 5 C 4.527187 1.781364 2.628662 0
M  V30 6 C 3.736098 1.216658 1.643095 0
M  V30 7 C 3.823704 1.709820 0.346613 0
M  V30 8 C 3.018464 1.119556 -0.602730 0
M  V30 9 C 3.026089 1.551908 -1.975649 0
M  V30 10 C 3.418500 0.708166 -3.017993 0
M  V30 11 C 3.420711 1.150126 -4.346829 0
M  V30 12 C 3.021535 2.458448 -4.624009 0
M  V30 13 C 2.620870 3.342958 -3.628291 0
M  V30 14 C 2.650718 2.821950 -2.352882 0
M  V30 15 C 2.161614 0.087639 -0.295270 0
M  V30 16 C 1.259836 -0.622888 -1.193531 0
M  V30 17 C 1.346658 -1.983341 -1.404900 0
M  V30 18 C 0.510400 -2.692476 -2.246851 0
M  V30 19 C -0.495694 -2.008636 -2.940548 0
M  V30 20 C -1.322409 -2.857883 -3.800707 0
M  V30 21 N -2.489372 -3.413191 -3.207543 0
M  V30 22 C -3.448493 -2.480017 -2.736270 0
M  V30 23 C -4.531665 -3.203210 -1.990028 0
M  V30 24 C -3.918205 -3.767467 -0.724296 0
M  V30 25 C -3.730870 -2.707002 0.300151 0
M  V30 26 N -2.858237 -1.688770 0.236696 0
M  V30 27 N -2.909391 -0.903313 1.274215 0
M  V30 28 C -3.859762 -1.419001 2.068286 0
M  V30 29 C -4.295375 -0.895746 3.355942 0
M  V30 30 C -5.284412 -1.495563 4.102559 0
M  V30 31 C -5.704244 -0.992884 5.335898 0
M  V30 32 C -5.077558 0.155845 5.794050 0
M  V30 33 C -4.084140 0.762349 5.049762 0
M  V30 34 N -3.753296 0.211457 3.890424 0
M  V30 35 N -4.386458 -2.538329 1.489535 0
M  V30 36 C -2.669728 -4.522162 -1.017495 0
M  V30 37 C -2.340442 -4.613164 -2.481020 0
M  V30 38 C -0.602853 -0.628205 -2.742749 0
M  V30 39 C 0.260403 0.028034 -1.888646 0
M  V30 40 N 2.077364 -0.395560 0.979570 0
M  V30 41 C 2.868310 0.177831 1.932129 0
M  V30 42 C 2.836058 -0.261184 3.250011 0
M  V30 43 C 3.626095 0.306531 4.221593 0
M  V30 44 N 4.466431 1.328121 3.893155 0
M  V30 45 H 5.205537 0.853085 6.493775 0
M  V30 46 H 5.910530 2.581391 6.660799 0
M  V30 47 H 4.485043 2.515407 0.077665 0
M  V30 48 H 3.726892 -0.312611 -2.775414 0
M  V30 49 H 3.721505 0.507396 -5.165354 0
M  V30 50 H 3.029466 2.780991 -5.671778 0
M  V30 51 H 2.311831 4.355951 -3.838891 0
M  V30 52 H 2.346771 3.459668 -1.521330 0
M  V30 53 H 2.155656 -2.465086 -0.832143 0
M  V30 54 H 0.737713 -3.751966 -2.277896 0
M  V30 55 H -0.711227 -3.652840 -4.272168 0
M  V30 56 H -1.667693 -2.205766 -4.657180 0
M  V30 57 H -2.994795 -1.689602 -2.143129 0
M  V30 58 H -3.942598 -2.020304 -3.640862 0
M  V30 59 H -5.368832 -2.540916 -1.690384 0
M  V30 60 H -4.898082 -4.068396 -2.579190 0
M  V30 61 H -4.717968 -4.449059 -0.307095 0
M  V30 62 H -2.377802 -0.046989 1.521732 0
M  V30 63 H -5.774670 -2.406987 3.733054 0
M  V30 64 H -6.487322 -1.476230 5.915887 0
M  V30 65 H -5.425318 0.523217 6.755553 0
M  V30 66 H -3.620664 1.655596 5.437559 0
M  V30 67 H -2.759264 -5.558726 -0.609767 0
M  V30 68 H -1.833526 -4.066747 -0.432907 0
M  V30 69 H -1.296508 -4.975639 -2.567833 0
M  V30 70 H -2.980247 -5.395968 -2.950773 0
M  V30 71 H -1.387237 -0.167039 -3.295844 0
M  V30 72 H 0.114108 1.097381 -1.790499 0
M  V30 73 H 2.152648 -1.075359 3.460573 0
M  V30 74 H 3.524548 -0.113439 5.226418 0
M  V30 END ATOM
M  V30 BEGIN BOND
M  V30 1 1 1 2
M  V30 2 2 2 3
M  V30 3 1 3 4
M  V30 4 2 4 5
M  V30 5 1 5 6
M  V30 6 2 6 7
M  V30 7 1 7 8
M  V30 8 1 8 9
M  V30 9 2 9 10
M  V30 10 1 10 11
M  V30 11 2 11 12
M  V30 12 1 12 13
M  V30 13 2 13 14
M  V30 14 2 8 15
M  V30 15 1 15 16
M  V30 16 2 16 17
M  V30 17 1 17 18
M  V30 18 2 18 19
M  V30 19 1 19 20
M  V30 20 1 20 21
M  V30 21 1 21 22
M  V30 22 1 22 23
M  V30 23 1 23 24
M  V30 24 1 24 25
M  V30 25 2 25 26
M  V30 26 1 26 27
M  V30 27 1 27 28
M  V30 28 1 28 29
M  V30 29 2 29 30
M  V30 30 1 30 31
M  V30 31 2 31 32
M  V30 32 1 32 33
M  V30 33 2 33 34
M  V30 34 2 28 35
M  V30 35 1 24 36
M  V30 36 1 36 37
M  V30 37 1 19 38
M  V30 38 2 38 39
M  V30 39 1 15 40
M  V30 40 2 40 41
M  V30 41 1 41 42
M  V30 42 2 42 43
M  V30 43 1 43 44
M  V30 44 1 44 2
M  V30 45 1 44 5
M  V30 46 1 41 6
M  V30 47 1 14 9
M  V30 48 1 39 16
M  V30 49 1 37 21
M  V30 50 1 35 25
M  V30 51 1 34 29
M  V30 52 1 1 45
M  V30 53 1 1 46
M  V30 54 1 7 47
M  V30 55 1 10 48
M  V30 56 1 11 49
M  V30 57 1 12 50
M  V30 58 1 13 51
M  V30 59 1 14 52
M  V30 60 1 17 53
M  V30 61 1 18 54
M  V30 62 1 20 55
M  V30 63 1 20 56
M  V30 64 1 22 57
M  V30 65 1 22 58
M  V30 66 1 23 59
M  V30 67 1 23 60
M  V30 68 1 24 61
M  V30 69 1 27 62
M  V30 70 1 30 63
M  V30 71 1 31 64
M  V30 72 1 32 65
M  V30 73 1 33 66
M  V30 74 1 36 67
M  V30 75 1 36 68
M  V30 76 1 37 69
M  V30 77 1 37 70
M  V30 78 1 38 71
M  V30 79 1 39 72
M  V30 80 1 42 73
M  V30 81 1 43 74
M  V30 END BOND
M  V30 END CTAB
M  END
>  <Dataset>  (52) 
ChEMBL_Kinases

>  <Ligand_Instance>  (52) 
nan

>  <PDB_ID>  (52) 
nan

>  <Standardized_SMILES>  (52) 
Nc1nnc2c3cc(-c4ccccc4)c(-c4ccc(CN5CCC(c6n[nH]c(-c7ccccn7)n6)CC5)cc4)nc3ccn12

>  <Name>  (52) 
nan

>  <Pocket>  (52) 
nan

>  <ATP_Site>  (52) 
nan

>  <Peripheral>  (52) 
nan

>  <Num_H_Atoms_ProtBoundConf>  (52) 
nan

>  <Num_Resolved_Atoms>  (52) 
nan

>  <Num_Not_Resolved_Atoms>  (52) 
nan

$$$$
CHEMBL1778131
     RDKit          3D

  0  0  0  0  0  0  0  0  0  0999 V3000
M  V30 BEGIN CTAB
M  V30 COUNTS 23 24 0 0 0
M  V30 BEGIN ATOM
M  V30 1 N 0.619765 0.032373 4.550342 0
M  V30 2 C 0.936005 -0.335163 3.210358 0
M  V30 3 C 1.915467 -1.264969 2.917403 0
M  V30 4 C 2.237907 -1.635268 1.629013 0
M  V30 5 C 1.552192 -1.050943 0.597363 0
M  V30 6 C 0.556237 -0.107364 0.863426 0
M  V30 7 C -0.118355 0.456604 -0.329723 0
M  V30 8 C -0.254661 -0.359644 -1.433471 0
M  V30 9 C -0.897471 0.209771 -2.536409 0
M  V30 10 C -1.329779 1.533434 -2.405097 0
M  V30 11 N -1.172304 2.290321 -1.302933 0
M  V30 12 C -0.549060 1.762730 -0.210764 0
M  V30 13 C 0.252814 0.245425 2.156453 0
M  V30 14 H 1.394950 0.645518 4.935106 0
M  V30 15 H -0.189965 -0.177799 5.191804 0
M  V30 16 H 2.432866 -1.701864 3.768746 0
M  V30 17 H 3.015602 -2.365677 1.529505 0
M  V30 18 H 1.830160 -1.364091 -0.398538 0
M  V30 19 H 0.094114 -1.362252 -1.478049 0
M  V30 20 H -1.059657 -0.327120 -3.445253 0
M  V30 21 H -1.835319 2.054756 -3.206244 0
M  V30 22 H -0.390171 2.317381 0.706291 0
M  V30 23 H -0.526691 0.980682 2.299783 0
M  V30 END ATOM
M  V30 BEGIN BOND
M  V30 1 1 1 2
M  V30 2 2 2 3
M  V30 3 1 3 4
M  V30 4 2 4 5
M  V30 5 1 5 6
M  V30 6 1 6 7
M  V30 7 2 7 8
M  V30 8 1 8 9
M  V30 9 2 9 10
M  V30 10 1 10 11
M  V30 11 2 11 12
M  V30 12 2 6 13
M  V30 13 1 13 2
M  V30 14 1 12 7
M  V30 15 1 1 14
M  V30 16 1 1 15
M  V30 17 1 3 16
M  V30 18 1 4 17
M  V30 19 1 5 18
M  V30 20 1 8 19
M  V30 21 1 9 20
M  V30 22 1 10 21
M  V30 23 1 12 22
M  V30 24 1 13 23
M  V30 END BOND
M  V30 END CTAB
M  END
>  <Dataset>  (53) 
ChEMBL_Kinases

>  <Ligand_Instance>  (53) 
nan

>  <PDB_ID>  (53) 
nan

>  <Standardized_SMILES>  (53) 
Nc1cccc(-c2cccnc2)c1

>  <Name>  (53) 
nan

>  <Pocket>  (53) 
nan

>  <ATP_Site>  (53) 
nan

>  <Peripheral>  (53) 
nan

>  <Num_H_Atoms_ProtBoundConf>  (53) 
nan

>  <Num_Resolved_Atoms>  (53) 
nan

>  <Num_Not_Resolved_Atoms>  (53) 
nan

$$$$
CHEMBL1782526
     RDKit          3D

  0  0  0  0  0  0  0  0  0  0999 V3000
M  V30 BEGIN CTAB
M  V30 COUNTS 40 42 0 0 0
M  V30 BEGIN ATOM
M  V30 1 O 1.459459 0.398822 0.459851 0
M  V30 2 C 1.396922 -0.767942 0.978766 0
M  V30 3 C 1.530372 -2.140393 0.445427 0
M  V30 4 C 1.799161 -2.125131 -1.042201 0
M  V30 5 C 0.704602 -1.459616 -1.823082 0
M  V30 6 C -0.355152 -2.415744 -2.283676 0
M  V30 7 N 0.131471 -3.548604 -3.010004 0
M  V30 8 C 1.574989 -3.539121 -3.009641 0
M  V30 9 C 2.042546 -3.501422 -1.559099 0
M  V30 10 N 1.141136 -0.606081 2.367894 0
M  V30 11 C 1.002392 0.696371 2.940823 0
M  V30 12 C 2.029062 1.463664 3.465256 0
M  V30 13 C 1.765689 2.710152 3.991535 0
M  V30 14 Br 3.214291 3.720050 4.698209 0
M  V30 15 C 0.491290 3.223246 4.011541 0
M  V30 16 C -0.508739 2.434202 3.481643 0
M  V30 17 C -1.855787 2.724954 3.387603 0
M  V30 18 C -2.413362 1.609239 2.782758 0
M  V30 19 C -3.761206 1.234054 2.383685 0
M  V30 20 O -4.175644 0.183271 1.832704 0
M  V30 21 O -4.833579 2.095683 2.597331 0
M  V30 22 O -1.456740 0.745161 2.548469 0
M  V30 23 C -0.291943 1.186945 2.947157 0
M  V30 24 H 2.344350 -2.694532 0.936196 0
M  V30 25 H 0.593695 -2.697534 0.689056 0
M  V30 26 H 2.709795 -1.481032 -1.174427 0
M  V30 27 H 0.211975 -0.731509 -1.162005 0
M  V30 28 H 1.116636 -0.865532 -2.663173 0
M  V30 29 H -1.089784 -1.820285 -2.883430 0
M  V30 30 H -0.943854 -2.749634 -1.391542 0
M  V30 31 H -0.237695 -3.505674 -3.991898 0
M  V30 32 H 1.967050 -4.455376 -3.505677 0
M  V30 33 H 1.970554 -2.679849 -3.582929 0
M  V30 34 H 3.125782 -3.756052 -1.596055 0
M  V30 35 H 1.515760 -4.308887 -1.039616 0
M  V30 36 H 1.037223 -1.406907 3.061095 0
M  V30 37 H 3.010681 0.998358 3.417746 0
M  V30 38 H 0.277160 4.202631 4.423833 0
M  V30 39 H -2.468522 3.551694 3.662792 0
M  V30 40 H -5.568555 2.229915 1.912912 0
M  V30 END ATOM
M  V30 BEGIN BOND
M  V30 1 2 1 2
M  V30 2 1 2 3
M  V30 3 1 3 4
M  V30 4 1 4 5
M  V30 5 1 5 6
M  V30 6 1 6 7
M  V30 7 1 7 8
M  V30 8 1 8 9
M  V30 9 1 2 10
M  V30 10 1 10 11
M  V30 11 2 11 12
M  V30 12 1 12 13
M  V30 13 1 13 14
M  V30 14 2 13 15
M  V30 15 1 15 16
M  V30 16 1 16 17
M  V30 17 2 17 18
M  V30 18 1 18 19
M  V30 19 2 19 20
M  V30 20 1 19 21
M  V30 21 1 18 22
M  V30 22 1 22 23
M  V30 23 1 9 4
M  V30 24 1 23 11
M  V30 25 2 23 16
M  V30 26 1 3 24
M  V30 27 1 3 25
M  V30 28 1 4 26
M  V30 29 1 5 27
M  V30 30 1 5 28
M  V30 31 1 6 29
M  V30 32 1 6 30
M  V30 33 1 7 31
M  V30 34 1 8 32
M  V30 35 1 8 33
M  V30 36 1 9 34
M  V30 37 1 9 35
M  V30 38 1 10 36
M  V30 39 1 12 37
M  V30 40 1 15 38
M  V30 41 1 17 39
M  V30 42 1 21 40
M  V30 END BOND
M  V30 END CTAB
M  END
>  <Dataset>  (54) 
ChEMBL_Kinases

>  <Ligand_Instance>  (54) 
nan

>  <PDB_ID>  (54) 
nan

>  <Standardized_SMILES>  (54) 
O=C(CC1CCNCC1)Nc1cc(Br)cc2cc(C(=O)O)oc12

>  <Name>  (54) 
nan

>  <Pocket>  (54) 
nan

>  <ATP_Site>  (54) 
nan

>  <Peripheral>  (54) 
nan

>  <Num_H_Atoms_ProtBoundConf>  (54) 
nan

>  <Num_Resolved_Atoms>  (54) 
nan

>  <Num_Not_Resolved_Atoms>  (54) 
nan

$$$$
CHEMBL1782525
     RDKit          3D

  0  0  0  0  0  0  0  0  0  0999 V3000
M  V30 BEGIN CTAB
M  V30 COUNTS 37 39 0 0 0
M  V30 BEGIN ATOM
M  V30 1 O 0.535459 -4.754497 3.365083 0
M  V30 2 C 1.686090 -4.643869 2.877561 0
M  V30 3 O 2.625053 -5.606415 3.277268 0
M  V30 4 C 2.149847 -3.610697 1.932182 0
M  V30 5 C 3.421577 -3.466798 1.376964 0
M  V30 6 C 3.355835 -2.357888 0.559995 0
M  V30 7 C 4.358756 -1.790514 -0.221701 0
M  V30 8 C 3.983051 -0.667278 -0.940765 0
M  V30 9 Br 5.294642 0.186329 -2.047593 0
M  V30 10 C 2.713522 -0.125338 -0.905866 0
M  V30 11 C 1.759931 -0.744538 -0.102219 0
M  V30 12 N 0.445304 -0.183877 -0.065691 0
M  V30 13 C 0.113251 0.808451 0.890424 0
M  V30 14 O 1.053396 1.147364 1.687814 0
M  V30 15 C -1.234641 1.430322 0.980203 0
M  V30 16 C -1.641629 2.144626 -0.288654 0
M  V30 17 C -3.121468 2.428006 -0.220683 0
M  V30 18 N -3.916377 1.225818 -0.235593 0
M  V30 19 C -3.200110 0.065134 0.240732 0
M  V30 20 C -2.276197 0.430727 1.370721 0
M  V30 21 C 2.064691 -1.868439 0.642241 0
M  V30 22 O 1.387880 -2.636713 1.461707 0
M  V30 23 H 2.338535 -6.410162 3.803699 0
M  V30 24 H 4.236313 -4.151455 1.609755 0
M  V30 25 H 5.355389 -2.211641 -0.252369 0
M  V30 26 H 2.497680 0.755759 -1.497596 0
M  V30 27 H -0.271934 -0.511454 -0.750851 0
M  V30 28 H -1.200370 2.192103 1.785025 0
M  V30 29 H -1.141607 3.131188 -0.342026 0
M  V30 30 H -1.431147 1.590047 -1.210522 0
M  V30 31 H -3.306515 2.927284 0.773932 0
M  V30 32 H -3.370625 3.149243 -1.019714 0
M  V30 33 H -4.335488 1.028332 -1.171425 0
M  V30 34 H -3.943507 -0.656291 0.665623 0
M  V30 35 H -2.662693 -0.469418 -0.544581 0
M  V30 36 H -1.810860 -0.520799 1.736598 0
M  V30 37 H -2.913389 0.790922 2.223291 0
M  V30 END ATOM
M  V30 BEGIN BOND
M  V30 1 2 1 2
M  V30 2 1 2 3
M  V30 3 1 2 4
M  V30 4 2 4 5
M  V30 5 1 5 6
M  V30 6 2 6 7
M  V30 7 1 7 8
M  V30 8 1 8 9
M  V30 9 2 8 10
M  V30 10 1 10 11
M  V30 11 1 11 12
M  V30 12 1 12 13
M  V30 13 2 13 14
M  V30 14 1 13 15
M  V30 15 1 15 16
M  V30 16 1 16 17
M  V30 17 1 17 18
M  V30 18 1 18 19
M  V30 19 1 19 20
M  V30 20 2 11 21
M  V30 21 1 21 22
M  V30 22 1 22 4
M  V30 23 1 21 6
M  V30 24 1 20 15
M  V30 25 1 3 23
M  V30 26 1 5 24
M  V30 27 1 7 25
M  V30 28 1 10 26
M  V30 29 1 12 27
M  V30 30 1 15 28
M  V30 31 1 16 29
M  V30 32 1 16 30
M  V30 33 1 17 31
M  V30 34 1 17 32
M  V30 35 1 18 33
M  V30 36 1 19 34
M  V30 37 1 19 35
M  V30 38 1 20 36
M  V30 39 1 20 37
M  V30 END BOND
M  V30 END CTAB
M  END
>  <Dataset>  (55) 
ChEMBL_Kinases

>  <Ligand_Instance>  (55) 
nan

>  <PDB_ID>  (55) 
nan

>  <Standardized_SMILES>  (55) 
O=C(O)c1cc2cc(Br)cc(NC(=O)C3CCNCC3)c2o1

>  <Name>  (55) 
nan

>  <Pocket>  (55) 
nan

>  <ATP_Site>  (55) 
nan

>  <Peripheral>  (55) 
nan

>  <Num_H_Atoms_ProtBoundConf>  (55) 
nan

>  <Num_Resolved_Atoms>  (55) 
nan

>  <Num_Not_Resolved_Atoms>  (55) 
nan

$$$$
CHEMBL1782524
     RDKit          3D

  0  0  0  0  0  0  0  0  0  0999 V3000
M  V30 BEGIN CTAB
M  V30 COUNTS 41 43 0 0 0
M  V30 BEGIN ATOM
M  V30 1 O -3.653625 1.490388 4.896474 0
M  V30 2 C -3.292733 1.638903 3.700888 0
M  V30 3 O -3.166812 2.901157 3.096212 0
M  V30 4 C -2.990182 0.454863 2.901302 0
M  V30 5 C -3.061908 -0.851852 3.336921 0
M  V30 6 C -2.698826 -1.703384 2.289143 0
M  V30 7 C -2.594778 -3.068046 2.162669 0
M  V30 8 C -2.201065 -3.574433 0.961565 0
M  V30 9 Br -2.052756 -5.460575 0.771960 0
M  V30 10 C -1.927214 -2.696112 -0.064843 0
M  V30 11 C -2.011507 -1.328720 -0.002148 0
M  V30 12 N -1.735025 -0.458728 -1.074574 0
M  V30 13 C -1.302730 -0.681665 -2.420452 0
M  V30 14 C 0.058104 -1.224635 -2.607418 0
M  V30 15 C 1.178926 -0.395691 -2.063055 0
M  V30 16 C 2.536077 -1.067666 -2.320706 0
M  V30 17 C 3.651434 -0.069866 -2.103182 0
M  V30 18 N 3.617709 1.035922 -3.016294 0
M  V30 19 C 2.329791 1.053995 -3.673943 0
M  V30 20 C 1.293823 0.972041 -2.584065 0
M  V30 21 C -2.419855 -0.846922 1.249936 0
M  V30 22 O -2.606964 0.396209 1.665230 0
M  V30 23 H -3.646754 3.698785 3.541132 0
M  V30 24 H -3.348915 -1.224050 4.327076 0
M  V30 25 H -2.839104 -3.634090 3.044535 0
M  V30 26 H -1.630056 -3.184040 -0.979264 0
M  V30 27 H -1.869861 0.575898 -0.848445 0
M  V30 28 H -2.004158 -1.496547 -2.802837 0
M  V30 29 H -1.563246 0.165096 -3.078426 0
M  V30 30 H 0.106132 -2.268115 -2.261987 0
M  V30 31 H 0.278020 -1.304685 -3.715027 0
M  V30 32 H 1.083891 -0.390592 -0.957013 0
M  V30 33 H 2.582508 -1.560691 -3.292743 0
M  V30 34 H 2.700591 -1.867986 -1.557721 0
M  V30 35 H 4.604726 -0.620154 -2.283512 0
M  V30 36 H 3.620040 0.264135 -1.047780 0
M  V30 37 H 3.669372 1.930686 -2.440196 0
M  V30 38 H 2.187337 1.973099 -4.291680 0
M  V30 39 H 2.248149 0.170160 -4.318546 0
M  V30 40 H 1.633007 1.656552 -1.753912 0
M  V30 41 H 0.379222 1.438244 -2.966634 0
M  V30 END ATOM
M  V30 BEGIN BOND
M  V30 1 2 1 2
M  V30 2 1 2 3
M  V30 3 1 2 4
M  V30 4 2 4 5
M  V30 5 1 5 6
M  V30 6 2 6 7
M  V30 7 1 7 8
M  V30 8 1 8 9
M  V30 9 2 8 10
M  V30 10 1 10 11
M  V30 11 1 11 12
M  V30 12 1 12 13
M  V30 13 1 13 14
M  V30 14 1 14 15
M  V30 15 1 15 16
M  V30 16 1 16 17
M  V30 17 1 17 18
M  V30 18 1 18 19
M  V30 19 1 19 20
M  V30 20 2 11 21
M  V30 21 1 21 22
M  V30 22 1 22 4
M  V30 23 1 21 6
M  V30 24 1 20 15
M  V30 25 1 3 23
M  V30 26 1 5 24
M  V30 27 1 7 25
M  V30 28 1 10 26
M  V30 29 1 12 27
M  V30 30 1 13 28
M  V30 31 1 13 29
M  V30 32 1 14 30
M  V30 33 1 14 31
M  V30 34 1 15 32
M  V30 35 1 16 33
M  V30 36 1 16 34
M  V30 37 1 17 35
M  V30 38 1 17 36
M  V30 39 1 18 37
M  V30 40 1 19 38
M  V30 41 1 19 39
M  V30 42 1 20 40
M  V30 43 1 20 41
M  V30 END BOND
M  V30 END CTAB
M  END
>  <Dataset>  (56) 
ChEMBL_Kinases

>  <Ligand_Instance>  (56) 
nan

>  <PDB_ID>  (56) 
nan

>  <Standardized_SMILES>  (56) 
O=C(O)c1cc2cc(Br)cc(NCCC3CCNCC3)c2o1

>  <Name>  (56) 
nan

>  <Pocket>  (56) 
nan

>  <ATP_Site>  (56) 
nan

>  <Peripheral>  (56) 
nan

>  <Num_H_Atoms_ProtBoundConf>  (56) 
nan

>  <Num_Resolved_Atoms>  (56) 
nan

>  <Num_Not_Resolved_Atoms>  (56) 
nan

$$$$
CHEMBL1782522
     RDKit          3D

  0  0  0  0  0  0  0  0  0  0999 V3000
M  V30 BEGIN CTAB
M  V30 COUNTS 40 42 0 0 0
M  V30 BEGIN ATOM
M  V30 1 O 4.402553 -1.115373 5.628703 0
M  V30 2 C 4.295938 -2.165664 4.942712 0
M  V30 3 O 4.965222 -3.241987 5.476580 0
M  V30 4 C 3.564971 -2.363782 3.683980 0
M  V30 5 C 3.436982 -3.503335 2.920120 0
M  V30 6 C 2.646529 -3.056761 1.884000 0
M  V30 7 C 2.189780 -3.801590 0.791931 0
M  V30 8 C 1.406147 -3.177816 -0.146826 0
M  V30 9 Br 0.734104 -4.087054 -1.661907 0
M  V30 10 C 1.113250 -1.846923 0.042007 0
M  V30 11 C 1.525286 -1.066757 1.081558 0
M  V30 12 O 1.327025 0.239041 1.406222 0
M  V30 13 C 0.600998 1.237373 0.769042 0
M  V30 14 C -0.837868 0.967621 0.684334 0
M  V30 15 C -1.679257 1.990530 0.010403 0
M  V30 16 C -1.353906 2.282027 -1.404737 0
M  V30 17 C -1.775526 1.215376 -2.373464 0
M  V30 18 N -2.527706 0.164836 -1.833457 0
M  V30 19 C -3.399143 0.347119 -0.759051 0
M  V30 20 C -3.132708 1.573831 0.052359 0
M  V30 21 C 2.325068 -1.707853 2.036805 0
M  V30 22 O 2.927251 -1.361676 3.163761 0
M  V30 23 H 5.398644 -3.250638 6.378074 0
M  V30 24 H 3.868602 -4.454405 3.138004 0
M  V30 25 H 2.445076 -4.846861 0.683803 0
M  V30 26 H 0.520077 -1.367680 -0.693051 0
M  V30 27 H 1.107875 1.437250 -0.198116 0
M  V30 28 H 0.793132 2.181850 1.368401 0
M  V30 29 H -1.073591 -0.012494 0.256547 0
M  V30 30 H -1.212808 0.895328 1.753574 0
M  V30 31 H -1.624166 2.948183 0.576914 0
M  V30 32 H -1.989520 3.181706 -1.668792 0
M  V30 33 H -0.322218 2.660304 -1.583536 0
M  V30 34 H -2.302444 1.619001 -3.263854 0
M  V30 35 H -0.819420 0.777746 -2.790336 0
M  V30 36 H -2.435543 -0.752558 -2.234644 0
M  V30 37 H -4.469450 0.339541 -1.048321 0
M  V30 38 H -3.267666 -0.537308 -0.069859 0
M  V30 39 H -3.437063 1.406804 1.099651 0
M  V30 40 H -3.731027 2.404605 -0.393703 0
M  V30 END ATOM
M  V30 BEGIN BOND
M  V30 1 2 1 2
M  V30 2 1 2 3
M  V30 3 1 2 4
M  V30 4 2 4 5
M  V30 5 1 5 6
M  V30 6 2 6 7
M  V30 7 1 7 8
M  V30 8 1 8 9
M  V30 9 2 8 10
M  V30 10 1 10 11
M  V30 11 1 11 12
M  V30 12 1 12 13
M  V30 13 1 13 14
M  V30 14 1 14 15
M  V30 15 1 15 16
M  V30 16 1 16 17
M  V30 17 1 17 18
M  V30 18 1 18 19
M  V30 19 1 19 20
M  V30 20 2 11 21
M  V30 21 1 21 22
M  V30 22 1 22 4
M  V30 23 1 21 6
M  V30 24 1 20 15
M  V30 25 1 3 23
M  V30 26 1 5 24
M  V30 27 1 7 25
M  V30 28 1 10 26
M  V30 29 1 13 27
M  V30 30 1 13 28
M  V30 31 1 14 29
M  V30 32 1 14 30
M  V30 33 1 15 31
M  V30 34 1 16 32
M  V30 35 1 16 33
M  V30 36 1 17 34
M  V30 37 1 17 35
M  V30 38 1 18 36
M  V30 39 1 19 37
M  V30 40 1 19 38
M  V30 41 1 20 39
M  V30 42 1 20 40
M  V30 END BOND
M  V30 END CTAB
M  END
>  <Dataset>  (57) 
ChEMBL_Kinases

>  <Ligand_Instance>  (57) 
nan

>  <PDB_ID>  (57) 
nan

>  <Standardized_SMILES>  (57) 
O=C(O)c1cc2cc(Br)cc(OCCC3CCNCC3)c2o1

>  <Name>  (57) 
nan

>  <Pocket>  (57) 
nan

>  <ATP_Site>  (57) 
nan

>  <Peripheral>  (57) 
nan

>  <Num_H_Atoms_ProtBoundConf>  (57) 
nan

>  <Num_Resolved_Atoms>  (57) 
nan

>  <Num_Not_Resolved_Atoms>  (57) 
nan

$$$$
CHEMBL1782521
     RDKit          3D

  0  0  0  0  0  0  0  0  0  0999 V3000
M  V30 BEGIN CTAB
M  V30 COUNTS 38 40 0 0 0
M  V30 BEGIN ATOM
M  V30 1 O 3.331297 -5.275744 4.204523 0
M  V30 2 C 2.318984 -4.628917 3.912760 0
M  V30 3 O 1.246495 -4.659278 4.793615 0
M  V30 4 C 2.232683 -3.848765 2.682336 0
M  V30 5 C 3.213670 -3.729752 1.724881 0
M  V30 6 C 2.742104 -2.905341 0.719172 0
M  V30 7 C 3.293523 -2.452786 -0.460303 0
M  V30 8 C 2.535911 -1.624161 -1.251828 0
M  V30 9 Br 3.297360 -0.999235 -2.880552 0
M  V30 10 C 1.267820 -1.285690 -0.833043 0
M  V30 11 C 0.675077 -1.712270 0.335788 0
M  V30 12 N -0.640483 -1.349353 0.728187 0
M  V30 13 C -1.607701 -0.511422 0.099888 0
M  V30 14 C -1.271604 0.935030 0.001879 0
M  V30 15 C -2.458359 1.607470 -0.704107 0
M  V30 16 C -1.984218 3.018100 -1.021872 0
M  V30 17 N -1.756059 3.740202 0.207220 0
M  V30 18 C -0.865499 3.070228 1.109692 0
M  V30 19 C -1.199400 1.629796 1.341478 0
M  V30 20 C 1.479952 -2.555646 1.114956 0
M  V30 21 O 1.222842 -3.130081 2.269201 0
M  V30 22 H 1.370784 -4.710247 5.802999 0
M  V30 23 H 4.188201 -4.211986 1.772185 0
M  V30 24 H 4.297680 -2.795418 -0.667868 0
M  V30 25 H 0.750073 -0.646100 -1.510017 0
M  V30 26 H -0.948296 -1.781875 1.653505 0
M  V30 27 H -2.610042 -0.686241 0.499788 0
M  V30 28 H -1.671985 -0.881474 -0.973576 0
M  V30 29 H -0.365726 1.192626 -0.558971 0
M  V30 30 H -3.308538 1.616945 0.001749 0
M  V30 31 H -2.699537 1.065235 -1.629737 0
M  V30 32 H -1.117257 2.965971 -1.679121 0
M  V30 33 H -2.849003 3.519865 -1.530377 0
M  V30 34 H -1.310707 4.651372 -0.052526 0
M  V30 35 H -1.001397 3.577753 2.104179 0
M  V30 36 H 0.206261 3.220557 0.873167 0
M  V30 37 H -0.387315 1.217479 1.973670 0
M  V30 38 H -2.142871 1.532019 1.909261 0
M  V30 END ATOM
M  V30 BEGIN BOND
M  V30 1 2 1 2
M  V30 2 1 2 3
M  V30 3 1 2 4
M  V30 4 2 4 5
M  V30 5 1 5 6
M  V30 6 2 6 7
M  V30 7 1 7 8
M  V30 8 1 8 9
M  V30 9 2 8 10
M  V30 10 1 10 11
M  V30 11 1 11 12
M  V30 12 1 12 13
M  V30 13 1 13 14
M  V30 14 1 14 15
M  V30 15 1 15 16
M  V30 16 1 16 17
M  V30 17 1 17 18
M  V30 18 1 18 19
M  V30 19 2 11 20
M  V30 20 1 20 21
M  V30 21 1 21 4
M  V30 22 1 20 6
M  V30 23 1 19 14
M  V30 24 1 3 22
M  V30 25 1 5 23
M  V30 26 1 7 24
M  V30 27 1 10 25
M  V30 28 1 12 26
M  V30 29 1 13 27
M  V30 30 1 13 28
M  V30 31 1 14 29
M  V30 32 1 15 30
M  V30 33 1 15 31
M  V30 34 1 16 32
M  V30 35 1 16 33
M  V30 36 1 17 34
M  V30 37 1 18 35
M  V30 38 1 18 36
M  V30 39 1 19 37
M  V30 40 1 19 38
M  V30 END BOND
M  V30 END CTAB
M  END
>  <Dataset>  (58) 
ChEMBL_Kinases

>  <Ligand_Instance>  (58) 
nan

>  <PDB_ID>  (58) 
nan

>  <Standardized_SMILES>  (58) 
O=C(O)c1cc2cc(Br)cc(NCC3CCNCC3)c2o1

>  <Name>  (58) 
nan

>  <Pocket>  (58) 
nan

>  <ATP_Site>  (58) 
nan

>  <Peripheral>  (58) 
nan

>  <Num_H_Atoms_ProtBoundConf>  (58) 
nan

>  <Num_Resolved_Atoms>  (58) 
nan

>  <Num_Not_Resolved_Atoms>  (58) 
nan

$$$$
CHEMBL1782520
     RDKit          3D

  0  0  0  0  0  0  0  0  0  0999 V3000
M  V30 BEGIN CTAB
M  V30 COUNTS 37 39 0 0 0
M  V30 BEGIN ATOM
M  V30 1 O 5.216148 -2.868290 4.077922 0
M  V30 2 C 4.038610 -2.524885 3.852705 0
M  V30 3 O 3.166576 -2.409698 4.918904 0
M  V30 4 C 3.616938 -2.254348 2.464254 0
M  V30 5 C 4.482695 -2.367519 1.395357 0
M  V30 6 C 3.674996 -2.027083 0.311185 0
M  V30 7 C 3.938509 -1.945233 -1.044846 0
M  V30 8 C 2.961878 -1.578215 -1.960323 0
M  V30 9 Br 3.304546 -1.458732 -3.839420 0
M  V30 10 C 1.696090 -1.292532 -1.462991 0
M  V30 11 C 1.394506 -1.361436 -0.130580 0
M  V30 12 O 0.159477 -1.088848 0.409221 0
M  V30 13 C -0.968043 -0.699719 -0.341274 0
M  V30 14 C -2.187938 -0.467557 0.520838 0
M  V30 15 C -3.404622 -0.053027 -0.240210 0
M  V30 16 C -3.319723 1.392157 -0.616823 0
M  V30 17 C -3.125162 2.251802 0.617297 0
M  V30 18 N -1.968641 1.843251 1.379450 0
M  V30 19 C -1.932616 0.448257 1.663908 0
M  V30 20 C 2.384939 -1.729503 0.761173 0
M  V30 21 O 2.420794 -1.888101 2.080944 0
M  V30 22 H 3.485274 -2.146042 5.862990 0
M  V30 23 H 5.521391 -2.646863 1.385298 0
M  V30 24 H 4.931635 -2.168141 -1.445991 0
M  V30 25 H 0.922263 -1.005192 -2.157532 0
M  V30 26 H -0.723436 0.264590 -0.832219 0
M  V30 27 H -1.165964 -1.432324 -1.148224 0
M  V30 28 H -2.425545 -1.470718 0.970477 0
M  V30 29 H -4.279684 -0.195279 0.438508 0
M  V30 30 H -3.609068 -0.664986 -1.126554 0
M  V30 31 H -4.323892 1.698660 -1.023034 0
M  V30 32 H -2.555021 1.595226 -1.369638 0
M  V30 33 H -2.922153 3.283426 0.244502 0
M  V30 34 H -4.057635 2.313027 1.214551 0
M  V30 35 H -1.095723 2.268086 1.026519 0
M  V30 36 H -0.957546 0.213715 2.130533 0
M  V30 37 H -2.697203 0.215648 2.456094 0
M  V30 END ATOM
M  V30 BEGIN BOND
M  V30 1 2 1 2
M  V30 2 1 2 3
M  V30 3 1 2 4
M  V30 4 2 4 5
M  V30 5 1 5 6
M  V30 6 2 6 7
M  V30 7 1 7 8
M  V30 8 1 8 9
M  V30 9 2 8 10
M  V30 10 1 10 11
M  V30 11 1 11 12
M  V30 12 1 12 13
M  V30 13 1 13 14
M  V30 14 1 14 15
M  V30 15 1 15 16
M  V30 16 1 16 17
M  V30 17 1 17 18
M  V30 18 1 18 19
M  V30 19 2 11 20
M  V30 20 1 20 21
M  V30 21 1 21 4
M  V30 22 1 20 6
M  V30 23 1 19 14
M  V30 24 1 3 22
M  V30 25 1 5 23
M  V30 26 1 7 24
M  V30 27 1 10 25
M  V30 28 1 13 26
M  V30 29 1 13 27
M  V30 30 1 14 28
M  V30 31 1 15 29
M  V30 32 1 15 30
M  V30 33 1 16 31
M  V30 34 1 16 32
M  V30 35 1 17 33
M  V30 36 1 17 34
M  V30 37 1 18 35
M  V30 38 1 19 36
M  V30 39 1 19 37
M  V30 END BOND
M  V30 END CTAB
M  END
>  <Dataset>  (59) 
ChEMBL_Kinases

>  <Ligand_Instance>  (59) 
nan

>  <PDB_ID>  (59) 
nan

>  <Standardized_SMILES>  (59) 
O=C(O)c1cc2cc(Br)cc(OCC3CCCNC3)c2o1

>  <Name>  (59) 
nan

>  <Pocket>  (59) 
nan

>  <ATP_Site>  (59) 
nan

>  <Peripheral>  (59) 
nan

>  <Num_H_Atoms_ProtBoundConf>  (59) 
nan

>  <Num_Resolved_Atoms>  (59) 
nan

>  <Num_Not_Resolved_Atoms>  (59) 
nan

$$$$
CHEMBL1782519
     RDKit          3D

  0  0  0  0  0  0  0  0  0  0999 V3000
M  V30 BEGIN CTAB
M  V30 COUNTS 31 33 0 0 0
M  V30 BEGIN ATOM
M  V30 1 O 3.406649 -4.346807 3.562358 0
M  V30 2 C 2.446393 -3.526012 3.404897 0
M  V30 3 O 1.539186 -3.223972 4.397164 0
M  V30 4 C 2.345688 -2.900336 2.087839 0
M  V30 5 C 3.192311 -3.126914 1.028448 0
M  V30 6 C 2.746281 -2.343247 -0.014540 0
M  V30 7 C 3.118839 -2.098787 -1.310253 0
M  V30 8 C 2.413062 -1.214680 -2.102765 0
M  V30 9 Br 2.957029 -0.889766 -3.917470 0
M  V30 10 C 1.298078 -0.532361 -1.632914 0
M  V30 11 C 0.920838 -0.776623 -0.328795 0
M  V30 12 O -0.179260 -0.145418 0.236049 0
M  V30 13 C -1.011253 0.773090 -0.400060 0
M  V30 14 C -2.091255 1.234230 0.536666 0
M  V30 15 C -1.984616 2.333159 1.384171 0
M  V30 16 C -3.068507 2.626546 2.185133 0
M  V30 17 N -4.180201 1.889143 2.153824 0
M  V30 18 C -4.317431 0.832893 1.357180 0
M  V30 19 C -3.255338 0.488361 0.525471 0
M  V30 20 C 1.637257 -1.668530 0.462331 0
M  V30 21 O 1.443586 -2.039011 1.722548 0
M  V30 22 H 1.445273 -3.897036 5.162892 0
M  V30 23 H 4.055134 -3.778651 0.963070 0
M  V30 24 H 3.977984 -2.624357 -1.672735 0
M  V30 25 H 0.728760 0.162266 -2.227496 0
M  V30 26 H -0.398024 1.666322 -0.658919 0
M  V30 27 H -1.450911 0.405882 -1.347824 0
M  V30 28 H -1.033406 2.868415 1.332381 0
M  V30 29 H -2.943795 3.482825 2.824002 0
M  V30 30 H -5.225170 0.211077 1.315438 0
M  V30 31 H -3.378543 -0.366016 -0.112630 0
M  V30 END ATOM
M  V30 BEGIN BOND
M  V30 1 2 1 2
M  V30 2 1 2 3
M  V30 3 1 2 4
M  V30 4 2 4 5
M  V30 5 1 5 6
M  V30 6 2 6 7
M  V30 7 1 7 8
M  V30 8 1 8 9
M  V30 9 2 8 10
M  V30 10 1 10 11
M  V30 11 1 11 12
M  V30 12 1 12 13
M  V30 13 1 13 14
M  V30 14 2 14 15
M  V30 15 1 15 16
M  V30 16 2 16 17
M  V30 17 1 17 18
M  V30 18 2 18 19
M  V30 19 2 11 20
M  V30 20 1 20 21
M  V30 21 1 21 4
M  V30 22 1 20 6
M  V30 23 1 19 14
M  V30 24 1 3 22
M  V30 25 1 5 23
M  V30 26 1 7 24
M  V30 27 1 10 25
M  V30 28 1 13 26
M  V30 29 1 13 27
M  V30 30 1 15 28
M  V30 31 1 16 29
M  V30 32 1 18 30
M  V30 33 1 19 31
M  V30 END BOND
M  V30 END CTAB
M  END
>  <Dataset>  (60) 
ChEMBL_Kinases

>  <Ligand_Instance>  (60) 
nan

>  <PDB_ID>  (60) 
nan

>  <Standardized_SMILES>  (60) 
O=C(O)c1cc2cc(Br)cc(OCc3ccncc3)c2o1

>  <Name>  (60) 
nan

>  <Pocket>  (60) 
nan

>  <ATP_Site>  (60) 
nan

>  <Peripheral>  (60) 
nan

>  <Num_H_Atoms_ProtBoundConf>  (60) 
nan

>  <Num_Resolved_Atoms>  (60) 
nan

>  <Num_Not_Resolved_Atoms>  (60) 
nan

$$$$
CHEMBL1782518
     RDKit          3D

  0  0  0  0  0  0  0  0  0  0999 V3000
M  V30 BEGIN CTAB
M  V30 COUNTS 37 39 0 0 0
M  V30 BEGIN ATOM
M  V30 1 O 4.727510 -3.327031 4.209812 0
M  V30 2 C 3.593498 -2.847241 3.914096 0
M  V30 3 O 2.680897 -2.591391 4.929751 0
M  V30 4 C 3.269482 -2.573635 2.515770 0
M  V30 5 C 4.139724 -2.809711 1.471354 0
M  V30 6 C 3.398817 -2.400610 0.357731 0
M  V30 7 C 3.741515 -2.396696 -0.985948 0
M  V30 8 C 2.848711 -1.945484 -1.925992 0
M  V30 9 Br 3.216327 -1.897288 -3.790760 0
M  V30 10 C 1.587509 -1.486995 -1.532105 0
M  V30 11 C 1.240917 -1.490195 -0.180476 0
M  V30 12 O 0.048586 -1.072507 0.343625 0
M  V30 13 C -1.053669 -0.563355 -0.355724 0
M  V30 14 C -2.206831 -0.200139 0.544095 0
M  V30 15 C -3.386363 0.346764 -0.224835 0
M  V30 16 C -3.331025 1.875601 -0.342898 0
M  V30 17 N -1.995980 2.268291 -0.262129 0
M  V30 18 C -1.344461 2.106418 0.962661 0
M  V30 19 C -1.846357 0.808567 1.586655 0
M  V30 20 C 2.149581 -1.949720 0.779115 0
M  V30 21 O 2.129772 -2.078549 2.094436 0
M  V30 22 H 2.957237 -2.499483 5.906744 0
M  V30 23 H 5.133507 -3.202664 1.465905 0
M  V30 24 H 4.701117 -2.737633 -1.361732 0
M  V30 25 H 0.794907 -1.106697 -2.171531 0
M  V30 26 H -0.710018 0.359754 -0.864532 0
M  V30 27 H -1.428275 -1.222057 -1.162148 0
M  V30 28 H -2.547683 -1.108460 1.085200 0
M  V30 29 H -4.303472 0.084393 0.340862 0
M  V30 30 H -3.504387 -0.117142 -1.218565 0
M  V30 31 H -3.848294 2.204583 -1.239371 0
M  V30 32 H -3.877682 2.305831 0.546991 0
M  V30 33 H -1.591754 2.862903 -0.979881 0
M  V30 34 H -1.644597 2.940897 1.642187 0
M  V30 35 H -0.244307 2.148961 0.899266 0
M  V30 36 H -1.117996 0.360642 2.267046 0
M  V30 37 H -2.778814 0.994652 2.178296 0
M  V30 END ATOM
M  V30 BEGIN BOND
M  V30 1 2 1 2
M  V30 2 1 2 3
M  V30 3 1 2 4
M  V30 4 2 4 5
M  V30 5 1 5 6
M  V30 6 2 6 7
M  V30 7 1 7 8
M  V30 8 1 8 9
M  V30 9 2 8 10
M  V30 10 1 10 11
M  V30 11 1 11 12
M  V30 12 1 12 13
M  V30 13 1 13 14
M  V30 14 1 14 15
M  V30 15 1 15 16
M  V30 16 1 16 17
M  V30 17 1 17 18
M  V30 18 1 18 19
M  V30 19 2 11 20
M  V30 20 1 20 21
M  V30 21 1 21 4
M  V30 22 1 20 6
M  V30 23 1 19 14
M  V30 24 1 3 22
M  V30 25 1 5 23
M  V30 26 1 7 24
M  V30 27 1 10 25
M  V30 28 1 13 26
M  V30 29 1 13 27
M  V30 30 1 14 28
M  V30 31 1 15 29
M  V30 32 1 15 30
M  V30 33 1 16 31
M  V30 34 1 16 32
M  V30 35 1 17 33
M  V30 36 1 18 34
M  V30 37 1 18 35
M  V30 38 1 19 36
M  V30 39 1 19 37
M  V30 END BOND
M  V30 END CTAB
M  END
>  <Dataset>  (61) 
ChEMBL_Kinases

>  <Ligand_Instance>  (61) 
nan

>  <PDB_ID>  (61) 
nan

>  <Standardized_SMILES>  (61) 
O=C(O)c1cc2cc(Br)cc(OCC3CCNCC3)c2o1

>  <Name>  (61) 
nan

>  <Pocket>  (61) 
nan

>  <ATP_Site>  (61) 
nan

>  <Peripheral>  (61) 
nan

>  <Num_H_Atoms_ProtBoundConf>  (61) 
nan

>  <Num_Resolved_Atoms>  (61) 
nan

>  <Num_Not_Resolved_Atoms>  (61) 
nan

$$$$
CHEMBL1782517
     RDKit          3D

  0  0  0  0  0  0  0  0  0  0999 V3000
M  V30 BEGIN CTAB
M  V30 COUNTS 37 40 0 0 0
M  V30 BEGIN ATOM
M  V30 1 O 0.917240 -4.435239 6.687265 0
M  V30 2 C 1.100349 -4.742214 5.476059 0
M  V30 3 O 1.500551 -6.073699 5.285500 0
M  V30 4 C 0.965974 -3.950545 4.259768 0
M  V30 5 C 1.138795 -4.183720 2.911905 0
M  V30 6 C 0.838981 -2.983061 2.294982 0
M  V30 7 C 0.872874 -2.733219 0.936199 0
M  V30 8 C 0.537134 -1.462638 0.522109 0
M  V30 9 C 0.524910 -1.044073 -0.875802 0
M  V30 10 C 0.852719 -1.902610 -1.900503 0
M  V30 11 N 0.829396 -1.480080 -3.175156 0
M  V30 12 C 0.485037 -0.212716 -3.461137 0
M  V30 13 C 0.143066 0.699879 -2.454957 0
M  V30 14 N -0.229288 2.046526 -2.717833 0
M  V30 15 C -0.583577 3.027832 -1.742086 0
M  V30 16 C -1.732463 2.714092 -0.851180 0
M  V30 17 N -1.017274 3.325983 0.252288 0
M  V30 18 C 0.214285 3.122178 -0.488991 0
M  V30 19 N 0.189492 0.209454 -1.225336 0
M  V30 20 C 0.190495 -0.527308 1.489099 0
M  V30 21 C 0.171386 -0.828614 2.850053 0
M  V30 22 C 0.501104 -2.083821 3.284271 0
M  V30 23 O 0.585954 -2.689071 4.443668 0
M  V30 24 H 1.729032 -6.686318 6.065541 0
M  V30 25 H 1.442801 -5.141972 2.572859 0
M  V30 26 H 1.145964 -3.482594 0.220283 0
M  V30 27 H 1.134450 -2.923796 -1.724553 0
M  V30 28 H 0.458852 0.154517 -4.493487 0
M  V30 29 H -0.230093 2.302361 -3.751488 0
M  V30 30 H -0.729960 4.027009 -2.204886 0
M  V30 31 H -2.639275 3.317844 -1.052356 0
M  V30 32 H -1.934603 1.639939 -0.664087 0
M  V30 33 H -1.198573 4.329414 0.428759 0
M  V30 34 H 0.847907 4.046490 -0.481075 0
M  V30 35 H 0.767257 2.233340 -0.147092 0
M  V30 36 H -0.093411 0.508517 1.276004 0
M  V30 37 H -0.099839 -0.094491 3.598364 0
M  V30 END ATOM
M  V30 BEGIN BOND
M  V30 1 2 1 2
M  V30 2 1 2 3
M  V30 3 1 2 4
M  V30 4 2 4 5
M  V30 5 1 5 6
M  V30 6 2 6 7
M  V30 7 1 7 8
M  V30 8 1 8 9
M  V30 9 2 9 10
M  V30 10 1 10 11
M  V30 11 2 11 12
M  V30 12 1 12 13
M  V30 13 1 13 14
M  V30 14 1 14 15
M  V30 15 1 15 16
M  V30 16 1 16 17
M  V30 17 1 17 18
M  V30 18 2 13 19
M  V30 19 2 8 20
M  V30 20 1 20 21
M  V30 21 2 21 22
M  V30 22 1 22 23
M  V30 23 1 23 4
M  V30 24 1 22 6
M  V30 25 1 19 9
M  V30 26 1 18 15
M  V30 27 1 3 24
M  V30 28 1 5 25
M  V30 29 1 7 26
M  V30 30 1 10 27
M  V30 31 1 12 28
M  V30 32 1 14 29
M  V30 33 1 15 30
M  V30 34 1 16 31
M  V30 35 1 16 32
M  V30 36 1 17 33
M  V30 37 1 18 34
M  V30 38 1 18 35
M  V30 39 1 20 36
M  V30 40 1 21 37
M  V30 END BOND
M  V30 END CTAB
M  END
>  <Dataset>  (62) 
ChEMBL_Kinases

>  <Ligand_Instance>  (62) 
nan

>  <PDB_ID>  (62) 
nan

>  <Standardized_SMILES>  (62) 
O=C(O)c1cc2cc(-c3cncc(NC4CNC4)n3)ccc2o1

>  <Name>  (62) 
nan

>  <Pocket>  (62) 
nan

>  <ATP_Site>  (62) 
nan

>  <Peripheral>  (62) 
nan

>  <Num_H_Atoms_ProtBoundConf>  (62) 
nan

>  <Num_Resolved_Atoms>  (62) 
nan

>  <Num_Not_Resolved_Atoms>  (62) 
nan

$$$$
CHEMBL506077
     RDKit          3D

  0  0  0  0  0  0  0  0  0  0999 V3000
M  V30 BEGIN CTAB
M  V30 COUNTS 73 80 0 0 0
M  V30 BEGIN ATOM
M  V30 1 O 5.309132 5.017760 6.019683 0
M  V30 2 C 5.223427 3.972003 5.113813 0
M  V30 3 N 6.084340 2.959165 4.867393 0
M  V30 4 N 5.570247 2.191629 3.900939 0
M  V30 5 C 4.384274 2.732152 3.546819 0
M  V30 6 C 3.453516 2.339177 2.605587 0
M  V30 7 C 3.646349 1.209078 1.817859 0
M  V30 8 C 2.733964 0.782865 0.862253 0
M  V30 9 C 2.990419 -0.404031 0.070464 0
M  V30 10 C 2.237845 -1.568334 0.055866 0
M  V30 11 C 2.650321 -2.592637 -0.772397 0
M  V30 12 C 3.772694 -2.473634 -1.564291 0
M  V30 13 C 4.534122 -1.323717 -1.563714 0
M  V30 14 C 4.124490 -0.298086 -0.736886 0
M  V30 15 C 1.576084 1.535299 0.698582 0
M  V30 16 C 0.569802 1.149375 -0.286109 0
M  V30 17 C -0.676571 0.873970 0.291043 0
M  V30 18 C -1.727035 0.496634 -0.512332 0
M  V30 19 C -1.570387 0.384407 -1.888923 0
M  V30 20 C -2.719998 -0.019360 -2.692403 0
M  V30 21 N -2.917470 -1.390748 -2.919339 0
M  V30 22 C -1.892689 -2.097499 -3.588744 0
M  V30 23 C -1.931061 -3.583704 -3.435191 0
M  V30 24 C -3.289245 -4.133638 -3.145605 0
M  V30 25 C -3.372412 -4.356343 -1.676060 0
M  V30 26 N -3.658765 -5.508770 -1.044764 0
M  V30 27 N -3.628824 -5.269457 0.262935 0
M  V30 28 C -3.323648 -3.962680 0.497391 0
M  V30 29 C -3.190938 -3.289107 1.788114 0
M  V30 30 C -3.385114 -3.999347 2.953513 0
M  V30 31 C -3.272186 -3.411096 4.191601 0
M  V30 32 C -2.949920 -2.052002 4.230667 0
M  V30 33 C -2.761590 -1.366121 3.066704 0
M  V30 34 N -2.876027 -1.958988 1.846832 0
M  V30 35 N -3.168226 -3.412553 -0.713903 0
M  V30 36 C -4.412286 -3.221848 -3.569796 0
M  V30 37 C -4.251716 -1.818482 -3.111876 0
M  V30 38 C -0.321090 0.661570 -2.457235 0
M  V30 39 C 0.718577 1.038553 -1.631011 0
M  V30 40 N 1.375875 2.631708 1.454118 0
M  V30 41 C 2.265639 3.046277 2.385147 0
M  V30 42 C 2.072645 4.168910 3.167193 0
M  V30 43 C 3.002891 4.573495 4.117483 0
M  V30 44 N 4.143626 3.844868 4.288901 0
M  V30 45 H 4.981209 4.960903 6.975803 0
M  V30 46 H 4.571487 0.665989 1.995486 0
M  V30 47 H 1.389075 -1.550541 0.708859 0
M  V30 48 H 2.031447 -3.498527 -0.758341 0
M  V30 49 H 4.067806 -3.305358 -2.206500 0
M  V30 50 H 5.421232 -1.223509 -2.186683 0
M  V30 51 H 4.761171 0.598917 -0.768871 0
M  V30 52 H -0.885013 0.937904 1.364396 0
M  V30 53 H -2.692876 0.281147 -0.084684 0
M  V30 54 H -3.642945 0.378439 -2.188613 0
M  V30 55 H -2.649373 0.497271 -3.675591 0
M  V30 56 H -1.894398 -1.828185 -4.664479 0
M  V30 57 H -0.916802 -1.743981 -3.185856 0
M  V30 58 H -1.175242 -3.924563 -2.669940 0
M  V30 59 H -1.571490 -4.037082 -4.382296 0
M  V30 60 H -3.503607 -5.116030 -3.620825 0
M  V30 61 H -3.815254 -5.992999 0.983516 0
M  V30 62 H -3.636275 -5.065991 2.841380 0
M  V30 63 H -3.448987 -4.078735 5.024312 0
M  V30 64 H -2.871771 -1.632802 5.223964 0
M  V30 65 H -2.510256 -0.305161 3.114098 0
M  V30 66 H -5.348479 -3.627238 -3.132833 0
M  V30 67 H -4.576365 -3.259237 -4.675788 0
M  V30 68 H -4.717344 -1.141654 -3.869461 0
M  V30 69 H -4.817973 -1.610712 -2.170843 0
M  V30 70 H -0.173104 0.581414 -3.526370 0
M  V30 71 H 1.722186 1.269244 -2.013578 0
M  V30 72 H 1.164135 4.710247 2.999185 0
M  V30 73 H 2.835460 5.458493 4.723354 0
M  V30 END ATOM
M  V30 BEGIN BOND
M  V30 1 1 1 2
M  V30 2 2 2 3
M  V30 3 1 3 4
M  V30 4 2 4 5
M  V30 5 1 5 6
M  V30 6 2 6 7
M  V30 7 1 7 8
M  V30 8 1 8 9
M  V30 9 2 9 10
M  V30 10 1 10 11
M  V30 11 2 11 12
M  V30 12 1 12 13
M  V30 13 2 13 14
M  V30 14 2 8 15
M  V30 15 1 15 16
M  V30 16 2 16 17
M  V30 17 1 17 18
M  V30 18 2 18 19
M  V30 19 1 19 20
M  V30 20 1 20 21
M  V30 21 1 21 22
M  V30 22 1 22 23
M  V30 23 1 23 24
M  V30 24 1 24 25
M  V30 25 2 25 26
M  V30 26 1 26 27
M  V30 27 1 27 28
M  V30 28 1 28 29
M  V30 29 2 29 30
M  V30 30 1 30 31
M  V30 31 2 31 32
M  V30 32 1 32 33
M  V30 33 2 33 34
M  V30 34 2 28 35
M  V30 35 1 24 36
M  V30 36 1 36 37
M  V30 37 1 19 38
M  V30 38 2 38 39
M  V30 39 1 15 40
M  V30 40 2 40 41
M  V30 41 1 41 42
M  V30 42 2 42 43
M  V30 43 1 43 44
M  V30 44 1 44 2
M  V30 45 1 44 5
M  V30 46 1 41 6
M  V30 47 1 14 9
M  V30 48 1 39 16
M  V30 49 1 37 21
M  V30 50 1 35 25
M  V30 51 1 34 29
M  V30 52 1 1 45
M  V30 53 1 7 46
M  V30 54 1 10 47
M  V30 55 1 11 48
M  V30 56 1 12 49
M  V30 57 1 13 50
M  V30 58 1 14 51
M  V30 59 1 17 52
M  V30 60 1 18 53
M  V30 61 1 20 54
M  V30 62 1 20 55
M  V30 63 1 22 56
M  V30 64 1 22 57
M  V30 65 1 23 58
M  V30 66 1 23 59
M  V30 67 1 24 60
M  V30 68 1 27 61
M  V30 69 1 30 62
M  V30 70 1 31 63
M  V30 71 1 32 64
M  V30 72 1 33 65
M  V30 73 1 36 66
M  V30 74 1 36 67
M  V30 75 1 37 68
M  V30 76 1 37 69
M  V30 77 1 38 70
M  V30 78 1 39 71
M  V30 79 1 42 72
M  V30 80 1 43 73
M  V30 END BOND
M  V30 END CTAB
M  END
>  <Dataset>  (63) 
ChEMBL_Kinases

>  <Ligand_Instance>  (63) 
nan

>  <PDB_ID>  (63) 
nan

>  <Standardized_SMILES>  (63) 
Oc1nnc2c3cc(-c4ccccc4)c(-c4ccc(CN5CCC(c6n[nH]c(-c7ccccn7)n6)CC5)cc4)nc3ccn12

>  <Name>  (63) 
nan

>  <Pocket>  (63) 
nan

>  <ATP_Site>  (63) 
nan

>  <Peripheral>  (63) 
nan

>  <Num_H_Atoms_ProtBoundConf>  (63) 
nan

>  <Num_Resolved_Atoms>  (63) 
nan

>  <Num_Not_Resolved_Atoms>  (63) 
nan

$$$$
CHEMBL1782515
     RDKit          3D

  0  0  0  0  0  0  0  0  0  0999 V3000
M  V30 BEGIN CTAB
M  V30 COUNTS 43 46 0 0 0
M  V30 BEGIN ATOM
M  V30 1 O 6.051987 -2.594508 4.958857 0
M  V30 2 C 6.083083 -3.392777 3.986337 0
M  V30 3 O 7.043378 -4.399169 3.992446 0
M  V30 4 C 5.138938 -3.268808 2.880817 0
M  V30 5 C 4.156975 -2.305586 2.791302 0
M  V30 6 C 3.508925 -2.574529 1.582640 0
M  V30 7 C 2.439873 -1.935036 0.965409 0
M  V30 8 C 1.952361 -2.370081 -0.239529 0
M  V30 9 C 0.830127 -1.672493 -0.853446 0
M  V30 10 C 0.284324 -2.048443 -2.060516 0
M  V30 11 N -0.763803 -1.320227 -2.536154 0
M  V30 12 C -1.239578 -0.272099 -1.840398 0
M  V30 13 C -0.704110 0.113719 -0.633824 0
M  V30 14 N -1.166524 1.198768 0.149139 0
M  V30 15 C -2.267348 2.075743 -0.104480 0
M  V30 16 C -3.555733 1.327786 0.007284 0
M  V30 17 C -3.901009 1.249995 1.503937 0
M  V30 18 N -4.249420 2.604227 1.891536 0
M  V30 19 C -2.996920 3.327470 1.971468 0
M  V30 20 C -2.246963 3.336698 0.676067 0
M  V30 21 N 0.328141 -0.625333 -0.193607 0
M  V30 22 C 2.588264 -3.465815 -0.781486 0
M  V30 23 C 3.648200 -4.118777 -0.193534 0
M  V30 24 C 4.128913 -3.670797 1.018820 0
M  V30 25 O 5.099092 -4.050568 1.834023 0
M  V30 26 H 7.414375 -4.771803 4.878907 0
M  V30 27 H 3.964079 -1.532586 3.515589 0
M  V30 28 H 2.005779 -1.077584 1.474508 0
M  V30 29 H 0.677789 -2.891330 -2.605521 0
M  V30 30 H -2.065017 0.274336 -2.267908 0
M  V30 31 H -0.669144 1.424747 1.037351 0
M  V30 32 H -2.167306 2.386973 -1.197076 0
M  V30 33 H -3.537825 0.341398 -0.445002 0
M  V30 34 H -4.343807 1.958539 -0.482138 0
M  V30 35 H -2.983673 0.994864 2.079926 0
M  V30 36 H -4.720081 0.533034 1.686910 0
M  V30 37 H -4.639987 2.562388 2.859519 0
M  V30 38 H -2.356497 2.895748 2.769592 0
M  V30 39 H -3.261707 4.374344 2.226548 0
M  V30 40 H -1.206519 3.664578 0.921057 0
M  V30 41 H -2.677899 4.158595 0.061092 0
M  V30 42 H 2.241611 -3.848021 -1.730905 0
M  V30 43 H 4.109623 -4.976960 -0.666765 0
M  V30 END ATOM
M  V30 BEGIN BOND
M  V30 1 2 1 2
M  V30 2 1 2 3
M  V30 3 1 2 4
M  V30 4 2 4 5
M  V30 5 1 5 6
M  V30 6 2 6 7
M  V30 7 1 7 8
M  V30 8 1 8 9
M  V30 9 2 9 10
M  V30 10 1 10 11
M  V30 11 2 11 12
M  V30 12 1 12 13
M  V30 13 1 13 14
M  V30 14 1 14 15
M  V30 15 1 15 16
M  V30 16 1 16 17
M  V30 17 1 17 18
M  V30 18 1 18 19
M  V30 19 1 19 20
M  V30 20 2 13 21
M  V30 21 2 8 22
M  V30 22 1 22 23
M  V30 23 2 23 24
M  V30 24 1 24 25
M  V30 25 1 25 4
M  V30 26 1 24 6
M  V30 27 1 21 9
M  V30 28 1 20 15
M  V30 29 1 3 26
M  V30 30 1 5 27
M  V30 31 1 7 28
M  V30 32 1 10 29
M  V30 33 1 12 30
M  V30 34 1 14 31
M  V30 35 1 15 32
M  V30 36 1 16 33
M  V30 37 1 16 34
M  V30 38 1 17 35
M  V30 39 1 17 36
M  V30 40 1 18 37
M  V30 41 1 19 38
M  V30 42 1 19 39
M  V30 43 1 20 40
M  V30 44 1 20 41
M  V30 45 1 22 42
M  V30 46 1 23 43
M  V30 END BOND
M  V30 END CTAB
M  END
>  <Dataset>  (64) 
ChEMBL_Kinases

>  <Ligand_Instance>  (64) 
nan

>  <PDB_ID>  (64) 
nan

>  <Standardized_SMILES>  (64) 
O=C(O)c1cc2cc(-c3cncc(NC4CCNCC4)n3)ccc2o1

>  <Name>  (64) 
nan

>  <Pocket>  (64) 
nan

>  <ATP_Site>  (64) 
nan

>  <Peripheral>  (64) 
nan

>  <Num_H_Atoms_ProtBoundConf>  (64) 
nan

>  <Num_Resolved_Atoms>  (64) 
nan

>  <Num_Not_Resolved_Atoms>  (64) 
nan

$$$$
CHEMBL1782514
     RDKit          3D

  0  0  0  0  0  0  0  0  0  0999 V3000
M  V30 BEGIN CTAB
M  V30 COUNTS 46 49 0 0 0
M  V30 BEGIN ATOM
M  V30 1 N -1.257640 -4.533562 -1.356145 0
M  V30 2 C -0.299310 -4.262394 -0.286046 0 CFG=1
M  V30 3 C 0.792832 -3.426616 -0.896534 0
M  V30 4 C 1.600029 -2.651869 0.123028 0
M  V30 5 C 1.345533 -3.243010 1.477785 0 CFG=1
M  V30 6 N 2.254689 -2.800286 2.483617 0
M  V30 7 C 2.413266 -1.426969 2.863762 0
M  V30 8 C 3.310578 -1.006853 3.854343 0
M  V30 9 N 3.436901 0.290184 4.188764 0
M  V30 10 C 2.681089 1.205562 3.554312 0
M  V30 11 C 1.791448 0.840970 2.580372 0
M  V30 12 C 0.958749 1.809937 1.875065 0
M  V30 13 C 0.975714 3.169118 2.106496 0
M  V30 14 C 0.177390 4.062265 1.424331 0
M  V30 15 C -0.693725 3.618323 0.456663 0
M  V30 16 O -1.557457 4.225386 -0.338049 0
M  V30 17 C -2.162292 3.349711 -1.099236 0
M  V30 18 C -3.173449 3.722390 -2.082903 0
M  V30 19 O -3.475902 4.935946 -2.204567 0
M  V30 20 O -3.794323 2.757704 -2.873672 0
M  V30 21 C -1.689414 2.086687 -0.810560 0
M  V30 22 C -0.737270 2.260112 0.198068 0
M  V30 23 C 0.082640 1.375046 0.903755 0
M  V30 24 N 1.705919 -0.467370 2.286167 0
M  V30 25 C -0.100683 -2.968507 1.834086 0
M  V30 26 C -1.023630 -3.428942 0.730028 0
M  V30 27 H -1.888719 -5.295807 -1.021323 0
M  V30 28 H -0.815105 -4.852457 -2.226376 0
M  V30 29 H 0.128093 -5.202154 0.102202 0
M  V30 30 H 1.461552 -4.039245 -1.553045 0
M  V30 31 H 0.284215 -2.729708 -1.626127 0
M  V30 32 H 2.667161 -2.733254 -0.170238 0
M  V30 33 H 1.236137 -1.602973 0.078676 0
M  V30 34 H 1.456520 -4.349917 1.388476 0
M  V30 35 H 2.880001 -3.474278 3.020857 0
M  V30 36 H 3.907538 -1.780452 4.347442 0
M  V30 37 H 2.809570 2.233714 3.848673 0
M  V30 38 H 1.640223 3.561817 2.852929 0
M  V30 39 H 0.216799 5.121258 1.631647 0
M  V30 40 H -4.752361 2.898871 -3.168289 0
M  V30 41 H -1.984719 1.150803 -1.262125 0
M  V30 42 H -0.040745 0.354748 0.616220 0
M  V30 43 H -0.364936 -3.430689 2.807416 0
M  V30 44 H -0.193114 -1.851787 1.932092 0
M  V30 45 H -1.904584 -3.979005 1.125804 0
M  V30 46 H -1.416915 -2.538917 0.170059 0
M  V30 END ATOM
M  V30 BEGIN BOND
M  V30 1 1 1 2
M  V30 2 1 2 3
M  V30 3 1 3 4
M  V30 4 1 4 5
M  V30 5 1 5 6
M  V30 6 1 6 7
M  V30 7 2 7 8
M  V30 8 1 8 9
M  V30 9 2 9 10
M  V30 10 1 10 11
M  V30 11 1 11 12
M  V30 12 2 12 13
M  V30 13 1 13 14
M  V30 14 2 14 15
M  V30 15 1 15 16
M  V30 16 1 16 17
M  V30 17 1 17 18
M  V30 18 2 18 19
M  V30 19 1 18 20
M  V30 20 2 17 21
M  V30 21 1 21 22
M  V30 22 2 22 23
M  V30 23 2 11 24
M  V30 24 1 5 25
M  V30 25 1 25 26
M  V30 26 1 26 2
M  V30 27 1 24 7
M  V30 28 1 23 12
M  V30 29 1 22 15
M  V30 30 1 1 27
M  V30 31 1 1 28
M  V30 32 1 2 29 CFG=1
M  V30 33 1 3 30
M  V30 34 1 3 31
M  V30 35 1 4 32
M  V30 36 1 4 33
M  V30 37 1 5 34 CFG=3
M  V30 38 1 6 35
M  V30 39 1 8 36
M  V30 40 1 10 37
M  V30 41 1 13 38
M  V30 42 1 14 39
M  V30 43 1 20 40
M  V30 44 1 21 41
M  V30 45 1 23 42
M  V30 46 1 25 43
M  V30 47 1 25 44
M  V30 48 1 26 45
M  V30 49 1 26 46
M  V30 END BOND
M  V30 END CTAB
M  END
>  <Dataset>  (65) 
ChEMBL_Kinases

>  <Ligand_Instance>  (65) 
nan

>  <PDB_ID>  (65) 
nan

>  <Standardized_SMILES>  (65) 
N[C@H]1CC[C@@H](Nc2cncc(-c3ccc4oc(C(=O)O)cc4c3)n2)CC1

>  <Name>  (65) 
nan

>  <Pocket>  (65) 
nan

>  <ATP_Site>  (65) 
nan

>  <Peripheral>  (65) 
nan

>  <Num_H_Atoms_ProtBoundConf>  (65) 
nan

>  <Num_Resolved_Atoms>  (65) 
nan

>  <Num_Not_Resolved_Atoms>  (65) 
nan

$$$$
CHEMBL1782513
     RDKit          3D

  0  0  0  0  0  0  0  0  0  0999 V3000
M  V30 BEGIN CTAB
M  V30 COUNTS 46 49 0 0 0
M  V30 BEGIN ATOM
M  V30 1 N 1.486139 -3.317291 2.735801 0
M  V30 2 C 1.415853 -4.281238 1.672478 0 CFG=1
M  V30 3 C 0.124548 -5.055243 1.748408 0
M  V30 4 C -0.916475 -4.563983 0.802055 0
M  V30 5 C -0.880462 -3.086816 0.549005 0 CFG=2
M  V30 6 N -1.895387 -2.809214 -0.478644 0
M  V30 7 C -2.112447 -1.475590 -0.936993 0
M  V30 8 C -3.075530 -1.205800 -1.916261 0
M  V30 9 N -3.253693 0.073698 -2.325837 0
M  V30 10 C -2.503131 1.055626 -1.784113 0
M  V30 11 C -1.557426 0.791841 -0.822698 0
M  V30 12 C -0.765520 1.881828 -0.259813 0
M  V30 13 C -0.860090 3.215397 -0.599294 0
M  V30 14 C -0.068532 4.180582 -0.012877 0
M  V30 15 C 0.861396 3.859812 0.946540 0
M  V30 16 O 1.696996 4.576899 1.621674 0
M  V30 17 C 2.408380 3.841683 2.446712 0
M  V30 18 C 3.458864 4.258324 3.385620 0
M  V30 19 O 4.063844 3.433910 4.124278 0
M  V30 20 O 3.787749 5.618271 3.450931 0
M  V30 21 C 1.975633 2.540397 2.269996 0
M  V30 22 C 0.983490 2.534287 1.311170 0
M  V30 23 C 0.183754 1.581213 0.714601 0
M  V30 24 N -1.376308 -0.479680 -0.411780 0
M  V30 25 C 0.475726 -2.612413 0.076231 0
M  V30 26 C 1.539625 -3.668621 0.297332 0
M  V30 27 H 2.459094 -3.211327 3.100909 0
M  V30 28 H 0.919870 -3.699468 3.537265 0
M  V30 29 H 2.251236 -4.999461 1.794955 0
M  V30 30 H -0.190206 -5.089099 2.802768 0
M  V30 31 H 0.327742 -6.128263 1.471719 0
M  V30 32 H -0.933890 -5.086237 -0.170776 0
M  V30 33 H -1.907331 -4.776759 1.285224 0
M  V30 34 H -1.160717 -2.471880 1.426469 0
M  V30 35 H -2.489380 -3.575183 -0.906272 0
M  V30 36 H -3.669248 -2.030459 -2.335860 0
M  V30 37 H -2.719834 2.021273 -2.172573 0
M  V30 38 H -1.577047 3.480370 -1.342247 0
M  V30 39 H -0.177041 5.219716 -0.311113 0
M  V30 40 H 4.667988 5.939027 3.879224 0
M  V30 41 H 2.321420 1.648326 2.770448 0
M  V30 42 H 0.379606 0.589575 1.088988 0
M  V30 43 H 0.817764 -1.724783 0.647194 0
M  V30 44 H 0.468709 -2.318705 -0.993530 0
M  V30 45 H 2.537416 -3.250458 0.151618 0
M  V30 46 H 1.365148 -4.470553 -0.441032 0
M  V30 END ATOM
M  V30 BEGIN BOND
M  V30 1 1 1 2
M  V30 2 1 2 3
M  V30 3 1 3 4
M  V30 4 1 4 5
M  V30 5 1 5 6
M  V30 6 1 6 7
M  V30 7 2 7 8
M  V30 8 1 8 9
M  V30 9 2 9 10
M  V30 10 1 10 11
M  V30 11 1 11 12
M  V30 12 2 12 13
M  V30 13 1 13 14
M  V30 14 2 14 15
M  V30 15 1 15 16
M  V30 16 1 16 17
M  V30 17 1 17 18
M  V30 18 2 18 19
M  V30 19 1 18 20
M  V30 20 2 17 21
M  V30 21 1 21 22
M  V30 22 2 22 23
M  V30 23 2 11 24
M  V30 24 1 5 25
M  V30 25 1 25 26
M  V30 26 1 26 2
M  V30 27 1 24 7
M  V30 28 1 23 12
M  V30 29 1 22 15
M  V30 30 1 1 27
M  V30 31 1 1 28
M  V30 32 1 2 29 CFG=1
M  V30 33 1 3 30
M  V30 34 1 3 31
M  V30 35 1 4 32
M  V30 36 1 4 33
M  V30 37 1 5 34 CFG=1
M  V30 38 1 6 35
M  V30 39 1 8 36
M  V30 40 1 10 37
M  V30 41 1 13 38
M  V30 42 1 14 39
M  V30 43 1 20 40
M  V30 44 1 21 41
M  V30 45 1 23 42
M  V30 46 1 25 43
M  V30 47 1 25 44
M  V30 48 1 26 45
M  V30 49 1 26 46
M  V30 END BOND
M  V30 END CTAB
M  END
>  <Dataset>  (66) 
ChEMBL_Kinases

>  <Ligand_Instance>  (66) 
nan

>  <PDB_ID>  (66) 
nan

>  <Standardized_SMILES>  (66) 
N[C@H]1CC[C@H](Nc2cncc(-c3ccc4oc(C(=O)O)cc4c3)n2)CC1

>  <Name>  (66) 
nan

>  <Pocket>  (66) 
nan

>  <ATP_Site>  (66) 
nan

>  <Peripheral>  (66) 
nan

>  <Num_H_Atoms_ProtBoundConf>  (66) 
nan

>  <Num_Resolved_Atoms>  (66) 
nan

>  <Num_Not_Resolved_Atoms>  (66) 
nan

$$$$
CHEMBL1782512
     RDKit          3D

  0  0  0  0  0  0  0  0  0  0999 V3000
M  V30 BEGIN CTAB
M  V30 COUNTS 42 44 0 0 0
M  V30 BEGIN ATOM
M  V30 1 N -1.059335 -5.514296 1.587099 0
M  V30 2 C 0.235253 -4.859793 1.467297 0
M  V30 3 C 0.862331 -5.137462 0.122021 0
M  V30 4 C 2.210823 -4.476467 -0.024124 0
M  V30 5 C 2.083094 -2.997090 0.114415 0
M  V30 6 N 3.388185 -2.325745 -0.033633 0
M  V30 7 C 3.490956 -0.900126 0.064673 0
M  V30 8 N 4.703362 -0.316449 -0.076081 0
M  V30 9 C 4.758238 1.024308 0.022789 0
M  V30 10 C 3.598128 1.732186 0.258871 0
M  V30 11 C 2.357026 1.148162 0.404036 0
M  V30 12 C 1.129098 1.901821 0.654300 0
M  V30 13 C 1.076111 3.275186 0.772446 0
M  V30 14 C -0.126211 3.914651 1.009648 0
M  V30 15 C -1.308030 3.194047 1.134794 0
M  V30 16 O -2.527055 3.576878 1.354038 0
M  V30 17 C -3.351093 2.552339 1.399504 0
M  V30 18 C -4.792331 2.442862 1.613714 0
M  V30 19 O -5.422269 1.337776 1.622711 0
M  V30 20 O -5.576001 3.568122 1.825036 0
M  V30 21 C -2.556145 1.421183 1.185958 0
M  V30 22 C -1.240210 1.816944 1.014054 0
M  V30 23 C -0.036017 1.170708 0.776020 0
M  V30 24 N 2.380259 -0.197198 0.292719 0
M  V30 25 H -1.752002 -4.817046 1.952148 0
M  V30 26 H -1.319441 -5.867980 0.627273 0
M  V30 27 H 0.926225 -5.169147 2.271878 0
M  V30 28 H 0.097046 -3.754094 1.542250 0
M  V30 29 H 0.153476 -4.706333 -0.644502 0
M  V30 30 H 0.914668 -6.233640 -0.086852 0
M  V30 31 H 2.572720 -4.666679 -1.077334 0
M  V30 32 H 2.931208 -4.929663 0.668893 0
M  V30 33 H 1.769231 -2.705030 1.159390 0
M  V30 34 H 1.387973 -2.533027 -0.579013 0
M  V30 35 H 4.239515 -2.903890 -0.211596 0
M  V30 36 H 5.716231 1.515377 -0.086035 0
M  V30 37 H 3.688538 2.807180 0.330965 0
M  V30 38 H 1.970644 3.840646 0.679319 0
M  V30 39 H -0.153347 4.991643 1.100065 0
M  V30 40 H -6.591929 3.529200 1.973932 0
M  V30 41 H -2.905326 0.377586 1.156433 0
M  V30 42 H -0.058701 0.079808 0.692195 0
M  V30 END ATOM
M  V30 BEGIN BOND
M  V30 1 1 1 2
M  V30 2 1 2 3
M  V30 3 1 3 4
M  V30 4 1 4 5
M  V30 5 1 5 6
M  V30 6 1 6 7
M  V30 7 2 7 8
M  V30 8 1 8 9
M  V30 9 2 9 10
M  V30 10 1 10 11
M  V30 11 1 11 12
M  V30 12 2 12 13
M  V30 13 1 13 14
M  V30 14 2 14 15
M  V30 15 1 15 16
M  V30 16 1 16 17
M  V30 17 1 17 18
M  V30 18 2 18 19
M  V30 19 1 18 20
M  V30 20 2 17 21
M  V30 21 1 21 22
M  V30 22 2 22 23
M  V30 23 2 11 24
M  V30 24 1 24 7
M  V30 25 1 23 12
M  V30 26 1 22 15
M  V30 27 1 1 25
M  V30 28 1 1 26
M  V30 29 1 2 27
M  V30 30 1 2 28
M  V30 31 1 3 29
M  V30 32 1 3 30
M  V30 33 1 4 31
M  V30 34 1 4 32
M  V30 35 1 5 33
M  V30 36 1 5 34
M  V30 37 1 6 35
M  V30 38 1 9 36
M  V30 39 1 10 37
M  V30 40 1 13 38
M  V30 41 1 14 39
M  V30 42 1 20 40
M  V30 43 1 21 41
M  V30 44 1 23 42
M  V30 END BOND
M  V30 END CTAB
M  END
>  <Dataset>  (67) 
ChEMBL_Kinases

>  <Ligand_Instance>  (67) 
nan

>  <PDB_ID>  (67) 
nan

>  <Standardized_SMILES>  (67) 
NCCCCNc1nccc(-c2ccc3oc(C(=O)O)cc3c2)n1

>  <Name>  (67) 
nan

>  <Pocket>  (67) 
nan

>  <ATP_Site>  (67) 
nan

>  <Peripheral>  (67) 
nan

>  <Num_H_Atoms_ProtBoundConf>  (67) 
nan

>  <Num_Resolved_Atoms>  (67) 
nan

>  <Num_Not_Resolved_Atoms>  (67) 
nan

$$$$
CHEMBL1782511
     RDKit          3D

  0  0  0  0  0  0  0  0  0  0999 V3000
M  V30 BEGIN CTAB
M  V30 COUNTS 42 44 0 0 0
M  V30 BEGIN ATOM
M  V30 1 N -0.341784 -6.194309 2.017908 0
M  V30 2 C 0.694029 -6.027062 1.000711 0
M  V30 3 C 0.997550 -4.563532 0.770475 0
M  V30 4 C 2.067831 -4.395113 -0.280630 0
M  V30 5 C 2.381431 -2.934244 -0.520917 0
M  V30 6 N 2.857084 -2.261270 0.673503 0
M  V30 7 C 3.130934 -0.885609 0.362518 0
M  V30 8 C 4.322847 -0.348689 -0.080110 0
M  V30 9 C 4.353794 1.012070 -0.316746 0
M  V30 10 N 3.255317 1.756278 -0.115945 0
M  V30 11 C 2.088824 1.242828 0.315228 0
M  V30 12 C 0.893079 2.057528 0.533014 0
M  V30 13 C 0.917520 3.417741 0.298299 0
M  V30 14 C -0.221700 4.170855 0.509622 0
M  V30 15 C -1.417742 3.614699 0.956729 0
M  V30 16 O -2.622319 4.038895 1.242410 0
M  V30 17 C -3.384555 3.038020 1.635454 0
M  V30 18 C -4.794363 3.124480 2.038372 0
M  V30 19 O -5.443891 2.105135 2.401148 0
M  V30 20 O -5.446547 4.350695 2.026374 0
M  V30 21 C -2.661085 1.857564 1.618680 0
M  V30 22 C -1.402146 2.238159 1.182319 0
M  V30 23 C -0.276977 1.464333 0.978620 0
M  V30 24 N 2.055861 -0.067837 0.544087 0
M  V30 25 H -0.617230 -5.265178 2.391829 0
M  V30 26 H -1.142544 -6.740902 1.682116 0
M  V30 27 H 0.320337 -6.528129 0.092872 0
M  V30 28 H 1.596860 -6.520561 1.377795 0
M  V30 29 H 1.227339 -4.072952 1.715236 0
M  V30 30 H 0.048665 -4.107731 0.378895 0
M  V30 31 H 1.646952 -4.768541 -1.245396 0
M  V30 32 H 2.964432 -4.982365 -0.060564 0
M  V30 33 H 1.429885 -2.435870 -0.839430 0
M  V30 34 H 3.125346 -2.804052 -1.321353 0
M  V30 35 H 3.038345 -2.551004 1.680664 0
M  V30 36 H 5.119870 -1.062620 -0.196732 0
M  V30 37 H 5.300357 1.405622 -0.662754 0
M  V30 38 H 1.835422 3.891630 -0.052706 0
M  V30 39 H -0.229124 5.250917 0.331201 0
M  V30 40 H -6.459103 4.428051 1.906568 0
M  V30 41 H -3.045828 0.867910 1.898087 0
M  V30 42 H -0.298080 0.391615 1.164262 0
M  V30 END ATOM
M  V30 BEGIN BOND
M  V30 1 1 1 2
M  V30 2 1 2 3
M  V30 3 1 3 4
M  V30 4 1 4 5
M  V30 5 1 5 6
M  V30 6 1 6 7
M  V30 7 2 7 8
M  V30 8 1 8 9
M  V30 9 2 9 10
M  V30 10 1 10 11
M  V30 11 1 11 12
M  V30 12 2 12 13
M  V30 13 1 13 14
M  V30 14 2 14 15
M  V30 15 1 15 16
M  V30 16 1 16 17
M  V30 17 1 17 18
M  V30 18 2 18 19
M  V30 19 1 18 20
M  V30 20 2 17 21
M  V30 21 1 21 22
M  V30 22 2 22 23
M  V30 23 2 11 24
M  V30 24 1 24 7
M  V30 25 1 23 12
M  V30 26 1 22 15
M  V30 27 1 1 25
M  V30 28 1 1 26
M  V30 29 1 2 27
M  V30 30 1 2 28
M  V30 31 1 3 29
M  V30 32 1 3 30
M  V30 33 1 4 31
M  V30 34 1 4 32
M  V30 35 1 5 33
M  V30 36 1 5 34
M  V30 37 1 6 35
M  V30 38 1 8 36
M  V30 39 1 9 37
M  V30 40 1 13 38
M  V30 41 1 14 39
M  V30 42 1 20 40
M  V30 43 1 21 41
M  V30 44 1 23 42
M  V30 END BOND
M  V30 END CTAB
M  END
>  <Dataset>  (68) 
ChEMBL_Kinases

>  <Ligand_Instance>  (68) 
nan

>  <PDB_ID>  (68) 
nan

>  <Standardized_SMILES>  (68) 
NCCCCNc1ccnc(-c2ccc3oc(C(=O)O)cc3c2)n1

>  <Name>  (68) 
nan

>  <Pocket>  (68) 
nan

>  <ATP_Site>  (68) 
nan

>  <Peripheral>  (68) 
nan

>  <Num_H_Atoms_ProtBoundConf>  (68) 
nan

>  <Num_Resolved_Atoms>  (68) 
nan

>  <Num_Not_Resolved_Atoms>  (68) 
nan

$$$$
CHEMBL1782510
     RDKit          3D

  0  0  0  0  0  0  0  0  0  0999 V3000
M  V30 BEGIN CTAB
M  V30 COUNTS 40 43 0 0 0
M  V30 BEGIN ATOM
M  V30 1 O -1.864931 -7.154108 4.729376 0
M  V30 2 C -1.070698 -6.830696 3.800988 0
M  V30 3 O -0.205975 -7.886557 3.455991 0
M  V30 4 C -0.953101 -5.553744 3.082319 0
M  V30 5 C -0.075921 -5.215455 2.065479 0
M  V30 6 C -0.402766 -3.908193 1.766723 0
M  V30 7 C 0.116531 -3.012445 0.835960 0
M  V30 8 C -0.414039 -1.736874 0.751251 0
M  V30 9 C 0.114489 -0.772064 -0.220880 0
M  V30 10 C 0.644484 -1.073324 -1.470957 0
M  V30 11 N 1.013272 0.098060 -2.041455 0
M  V30 12 N 0.746585 1.107119 -1.226574 0
M  V30 13 C 1.037898 2.503962 -1.575447 0
M  V30 14 C -0.037662 3.356320 -0.985920 0
M  V30 15 C 0.474964 4.470674 -0.140746 0
M  V30 16 N 1.403551 4.043310 0.878953 0
M  V30 17 C 2.362982 3.074685 0.462750 0
M  V30 18 C 2.404480 2.867960 -1.035312 0
M  V30 19 C 0.196613 0.609881 -0.104891 0
M  V30 20 C -1.457646 -1.327856 1.577346 0
M  V30 21 C -1.981750 -2.225953 2.513895 0
M  V30 22 C -1.438713 -3.493170 2.582511 0
M  V30 23 O -1.709408 -4.514981 3.330032 0
M  V30 24 H 0.225018 -8.483548 4.172802 0
M  V30 25 H 0.671826 -5.852209 1.635989 0
M  V30 26 H 0.926032 -3.340257 0.200003 0
M  V30 27 H 0.709963 -2.092546 -1.838240 0
M  V30 28 H 1.081030 2.622329 -2.672424 0
M  V30 29 H -0.782033 2.744286 -0.397584 0
M  V30 30 H -0.599082 3.831747 -1.834556 0
M  V30 31 H 0.961758 5.258163 -0.745623 0
M  V30 32 H -0.397822 4.951679 0.359841 0
M  V30 33 H 1.782724 4.809550 1.439107 0
M  V30 34 H 2.226887 2.089331 0.965015 0
M  V30 35 H 3.376679 3.433520 0.760262 0
M  V30 36 H 2.811154 3.759726 -1.554979 0
M  V30 37 H 3.103282 2.025826 -1.223783 0
M  V30 38 H -0.127319 1.189255 0.745150 0
M  V30 39 H -1.871239 -0.335198 1.512096 0
M  V30 40 H -2.798617 -1.886648 3.151358 0
M  V30 END ATOM
M  V30 BEGIN BOND
M  V30 1 2 1 2
M  V30 2 1 2 3
M  V30 3 1 2 4
M  V30 4 2 4 5
M  V30 5 1 5 6
M  V30 6 2 6 7
M  V30 7 1 7 8
M  V30 8 1 8 9
M  V30 9 1 9 10
M  V30 10 2 10 11
M  V30 11 1 11 12
M  V30 12 1 12 13
M  V30 13 1 13 14
M  V30 14 1 14 15
M  V30 15 1 15 16
M  V30 16 1 16 17
M  V30 17 1 17 18
M  V30 18 1 12 19
M  V30 19 2 8 20
M  V30 20 1 20 21
M  V30 21 2 21 22
M  V30 22 1 22 23
M  V30 23 1 23 4
M  V30 24 1 22 6
M  V30 25 2 19 9
M  V30 26 1 18 13
M  V30 27 1 3 24
M  V30 28 1 5 25
M  V30 29 1 7 26
M  V30 30 1 10 27
M  V30 31 1 13 28
M  V30 32 1 14 29
M  V30 33 1 14 30
M  V30 34 1 15 31
M  V30 35 1 15 32
M  V30 36 1 16 33
M  V30 37 1 17 34
M  V30 38 1 17 35
M  V30 39 1 18 36
M  V30 40 1 18 37
M  V30 41 1 19 38
M  V30 42 1 20 39
M  V30 43 1 21 40
M  V30 END BOND
M  V30 END CTAB
M  END
>  <Dataset>  (69) 
ChEMBL_Kinases

>  <Ligand_Instance>  (69) 
nan

>  <PDB_ID>  (69) 
nan

>  <Standardized_SMILES>  (69) 
O=C(O)c1cc2cc(-c3cnn(C4CCNCC4)c3)ccc2o1

>  <Name>  (69) 
nan

>  <Pocket>  (69) 
nan

>  <ATP_Site>  (69) 
nan

>  <Peripheral>  (69) 
nan

>  <Num_H_Atoms_ProtBoundConf>  (69) 
nan

>  <Num_Resolved_Atoms>  (69) 
nan

>  <Num_Not_Resolved_Atoms>  (69) 
nan

$$$$
CHEMBL1782509
     RDKit          3D

  0  0  0  0  0  0  0  0  0  0999 V3000
M  V30 BEGIN CTAB
M  V30 COUNTS 46 49 0 0 0
M  V30 BEGIN ATOM
M  V30 1 O 0.296980 -6.224023 3.988506 0
M  V30 2 C -0.465028 -6.614265 3.085044 0
M  V30 3 O -0.915013 -7.937666 3.015720 0
M  V30 4 C -0.904961 -5.669576 2.066521 0
M  V30 5 C -0.516217 -4.346191 2.049862 0
M  V30 6 C -1.151387 -3.813889 0.932566 0
M  V30 7 C -1.118991 -2.515877 0.426692 0
M  V30 8 C -1.840671 -2.222036 -0.710707 0
M  V30 9 C -1.776766 -0.851205 -1.203326 0
M  V30 10 C -2.430071 -0.377399 -2.321297 0
M  V30 11 N -2.345249 0.891460 -2.741303 0
M  V30 12 C -1.596874 1.782531 -2.069745 0
M  V30 13 C -0.940231 1.320086 -0.951912 0
M  V30 14 N -0.113719 2.176495 -0.155951 0
M  V30 15 C 0.618987 1.827510 1.020708 0
M  V30 16 C 1.396568 2.979565 1.622487 0
M  V30 17 C 2.117245 2.454912 2.856024 0
M  V30 18 C 3.130866 1.406246 2.480133 0
M  V30 19 N 3.916341 1.847155 1.369779 0
M  V30 20 C 3.835553 3.273059 1.130146 0
M  V30 21 C 2.404895 3.574944 0.696329 0
M  V30 22 N -1.028847 0.045050 -0.534611 0
M  V30 23 C -2.575668 -3.209315 -1.322633 0
M  V30 24 C -2.604713 -4.501256 -0.814634 0
M  V30 25 C -1.891886 -4.828803 0.324656 0
M  V30 26 O -1.699269 -5.883766 1.043007 0
M  V30 27 H -0.876805 -8.507255 3.851088 0
M  V30 28 H 0.143105 -3.815086 2.749372 0
M  V30 29 H -0.528708 -1.782608 0.943457 0
M  V30 30 H -3.040109 -1.072995 -2.881779 0
M  V30 31 H -1.504019 2.811717 -2.376661 0
M  V30 32 H -0.026130 3.185100 -0.461743 0
M  V30 33 H 1.244972 0.924058 0.900695 0
M  V30 34 H -0.128708 1.539788 1.813299 0
M  V30 35 H 0.721978 3.775249 1.999136 0
M  V30 36 H 1.383064 2.084755 3.587379 0
M  V30 37 H 2.685440 3.274037 3.345664 0
M  V30 38 H 3.781732 1.229421 3.365840 0
M  V30 39 H 2.664059 0.409657 2.276865 0
M  V30 40 H 3.569452 1.372612 0.505796 0
M  V30 41 H 4.166255 3.879617 1.980492 0
M  V30 42 H 4.492069 3.490908 0.263882 0
M  V30 43 H 2.330234 3.163263 -0.343315 0
M  V30 44 H 2.340319 4.683384 0.599053 0
M  V30 45 H -3.144310 -2.992241 -2.212702 0
M  V30 46 H -3.187465 -5.283598 -1.299982 0
M  V30 END ATOM
M  V30 BEGIN BOND
M  V30 1 2 1 2
M  V30 2 1 2 3
M  V30 3 1 2 4
M  V30 4 2 4 5
M  V30 5 1 5 6
M  V30 6 2 6 7
M  V30 7 1 7 8
M  V30 8 1 8 9
M  V30 9 2 9 10
M  V30 10 1 10 11
M  V30 11 2 11 12
M  V30 12 1 12 13
M  V30 13 1 13 14
M  V30 14 1 14 15
M  V30 15 1 15 16
M  V30 16 1 16 17
M  V30 17 1 17 18
M  V30 18 1 18 19
M  V30 19 1 19 20
M  V30 20 1 20 21
M  V30 21 2 13 22
M  V30 22 2 8 23
M  V30 23 1 23 24
M  V30 24 2 24 25
M  V30 25 1 25 26
M  V30 26 1 26 4
M  V30 27 1 25 6
M  V30 28 1 22 9
M  V30 29 1 21 16
M  V30 30 1 3 27
M  V30 31 1 5 28
M  V30 32 1 7 29
M  V30 33 1 10 30
M  V30 34 1 12 31
M  V30 35 1 14 32
M  V30 36 1 15 33
M  V30 37 1 15 34
M  V30 38 1 16 35
M  V30 39 1 17 36
M  V30 40 1 17 37
M  V30 41 1 18 38
M  V30 42 1 18 39
M  V30 43 1 19 40
M  V30 44 1 20 41
M  V30 45 1 20 42
M  V30 46 1 21 43
M  V30 47 1 21 44
M  V30 48 1 23 45
M  V30 49 1 24 46
M  V30 END BOND
M  V30 END CTAB
M  END
>  <Dataset>  (70) 
ChEMBL_Kinases

>  <Ligand_Instance>  (70) 
nan

>  <PDB_ID>  (70) 
nan

>  <Standardized_SMILES>  (70) 
O=C(O)c1cc2cc(-c3cncc(NCC4CCNCC4)n3)ccc2o1

>  <Name>  (70) 
nan

>  <Pocket>  (70) 
nan

>  <ATP_Site>  (70) 
nan

>  <Peripheral>  (70) 
nan

>  <Num_H_Atoms_ProtBoundConf>  (70) 
nan

>  <Num_Resolved_Atoms>  (70) 
nan

>  <Num_Not_Resolved_Atoms>  (70) 
nan

$$$$
CHEMBL1782508
     RDKit          3D

  0  0  0  0  0  0  0  0  0  0999 V3000
M  V30 BEGIN CTAB
M  V30 COUNTS 28 30 0 0 0
M  V30 BEGIN ATOM
M  V30 1 C -1.717883 -2.940226 5.229845 0
M  V30 2 N -0.782592 -2.709609 4.147927 0
M  V30 3 C -0.923256 -1.867001 3.097798 0
M  V30 4 C 0.202693 -1.957289 2.303528 0
M  V30 5 C 0.553131 -1.263337 1.057078 0
M  V30 6 C 1.354065 -1.947585 0.137681 0
M  V30 7 C 1.755120 -1.409434 -1.071920 0
M  V30 8 C 1.324306 -0.126719 -1.355624 0
M  V30 9 O 1.542528 0.615616 -2.396369 0
M  V30 10 C 0.956517 1.784104 -2.291873 0
M  V30 11 C 0.871408 2.969794 -3.141322 0
M  V30 12 O 0.244100 4.023712 -2.861644 0
M  V30 13 O 1.514913 3.013149 -4.385364 0
M  V30 14 C 0.305520 1.762400 -1.052807 0
M  V30 15 C 0.533603 0.542903 -0.442887 0
M  V30 16 C 0.124703 0.018218 0.769969 0
M  V30 17 C 1.007571 -2.880811 2.923451 0
M  V30 18 N 0.400406 -3.336931 4.049644 0
M  V30 19 H -2.747064 -2.923741 4.816411 0
M  V30 20 H -1.610141 -2.185138 6.034555 0
M  V30 21 H -1.558717 -3.961991 5.635767 0
M  V30 22 H -1.761401 -1.217856 2.884899 0
M  V30 23 H 1.693071 -2.959130 0.361783 0
M  V30 24 H 2.363711 -1.935455 -1.764858 0
M  V30 25 H 1.356987 3.766440 -5.064487 0
M  V30 26 H -0.298855 2.562144 -0.599536 0
M  V30 27 H -0.486710 0.548148 1.465033 0
M  V30 28 H 1.987872 -3.237362 2.615933 0
M  V30 END ATOM
M  V30 BEGIN BOND
M  V30 1 1 1 2
M  V30 2 1 2 3
M  V30 3 2 3 4
M  V30 4 1 4 5
M  V30 5 2 5 6
M  V30 6 1 6 7
M  V30 7 2 7 8
M  V30 8 1 8 9
M  V30 9 1 9 10
M  V30 10 1 10 11
M  V30 11 2 11 12
M  V30 12 1 11 13
M  V30 13 2 10 14
M  V30 14 1 14 15
M  V30 15 2 15 16
M  V30 16 1 4 17
M  V30 17 2 17 18
M  V30 18 1 18 2
M  V30 19 1 16 5
M  V30 20 1 15 8
M  V30 21 1 1 19
M  V30 22 1 1 20
M  V30 23 1 1 21
M  V30 24 1 3 22
M  V30 25 1 6 23
M  V30 26 1 7 24
M  V30 27 1 13 25
M  V30 28 1 14 26
M  V30 29 1 16 27
M  V30 30 1 17 28
M  V30 END BOND
M  V30 END CTAB
M  END
>  <Dataset>  (71) 
ChEMBL_Kinases

>  <Ligand_Instance>  (71) 
nan

>  <PDB_ID>  (71) 
nan

>  <Standardized_SMILES>  (71) 
Cn1cc(-c2ccc3oc(C(=O)O)cc3c2)cn1

>  <Name>  (71) 
nan

>  <Pocket>  (71) 
nan

>  <ATP_Site>  (71) 
nan

>  <Peripheral>  (71) 
nan

>  <Num_H_Atoms_ProtBoundConf>  (71) 
nan

>  <Num_Resolved_Atoms>  (71) 
nan

>  <Num_Not_Resolved_Atoms>  (71) 
nan

$$$$
CHEMBL1782507
     RDKit          3D

  0  0  0  0  0  0  0  0  0  0999 V3000
M  V30 BEGIN CTAB
M  V30 COUNTS 26 28 0 0 0
M  V30 BEGIN ATOM
M  V30 1 O 1.604257 -4.303419 4.271284 0
M  V30 2 C 0.454157 -3.769627 4.284638 0
M  V30 3 O -0.497633 -4.148124 5.216287 0
M  V30 4 C 0.164773 -2.742021 3.285415 0
M  V30 5 C 1.044873 -2.303263 2.324332 0
M  V30 6 C 0.356901 -1.341404 1.611146 0
M  V30 7 C 0.673876 -0.522194 0.522927 0
M  V30 8 C -0.216522 0.381354 -0.017028 0
M  V30 9 C 0.217367 1.186176 -1.151390 0
M  V30 10 C -0.588331 2.117292 -1.767372 0
M  V30 11 N -0.130062 2.843475 -2.826438 0
M  V30 12 C 1.126959 2.631822 -3.258281 0
M  V30 13 C 1.959072 1.697804 -2.653107 0
M  V30 14 N 1.465195 0.991723 -1.597642 0
M  V30 15 C -1.455211 0.438293 0.578664 0
M  V30 16 C -1.802296 -0.354350 1.653099 0
M  V30 17 C -0.911217 -1.253610 2.187877 0
M  V30 18 O -0.992425 -2.099602 3.180606 0
M  V30 19 H -0.306720 -4.875823 5.922428 0
M  V30 20 H 2.069154 -2.621439 2.136013 0
M  V30 21 H 1.667993 -0.650472 0.137546 0
M  V30 22 H -1.596420 2.280612 -1.413838 0
M  V30 23 H 1.473996 3.216815 -4.099651 0
M  V30 24 H 2.965329 1.562387 -3.036982 0
M  V30 25 H -2.171367 1.139624 0.172890 0
M  V30 26 H -2.799741 -0.238959 2.054721 0
M  V30 END ATOM
M  V30 BEGIN BOND
M  V30 1 2 1 2
M  V30 2 1 2 3
M  V30 3 1 2 4
M  V30 4 2 4 5
M  V30 5 1 5 6
M  V30 6 2 6 7
M  V30 7 1 7 8
M  V30 8 1 8 9
M  V30 9 2 9 10
M  V30 10 1 10 11
M  V30 11 2 11 12
M  V30 12 1 12 13
M  V30 13 2 13 14
M  V30 14 2 8 15
M  V30 15 1 15 16
M  V30 16 2 16 17
M  V30 17 1 17 18
M  V30 18 1 18 4
M  V30 19 1 17 6
M  V30 20 1 14 9
M  V30 21 1 3 19
M  V30 22 1 5 20
M  V30 23 1 7 21
M  V30 24 1 10 22
M  V30 25 1 12 23
M  V30 26 1 13 24
M  V30 27 1 15 25
M  V30 28 1 16 26
M  V30 END BOND
M  V30 END CTAB
M  END
>  <Dataset>  (72) 
ChEMBL_Kinases

>  <Ligand_Instance>  (72) 
nan

>  <PDB_ID>  (72) 
nan

>  <Standardized_SMILES>  (72) 
O=C(O)c1cc2cc(-c3cnccn3)ccc2o1

>  <Name>  (72) 
nan

>  <Pocket>  (72) 
nan

>  <ATP_Site>  (72) 
nan

>  <Peripheral>  (72) 
nan

>  <Num_H_Atoms_ProtBoundConf>  (72) 
nan

>  <Num_Resolved_Atoms>  (72) 
nan

>  <Num_Not_Resolved_Atoms>  (72) 
nan

$$$$
CHEMBL1782516
     RDKit          3D

  0  0  0  0  0  0  0  0  0  0999 V3000
M  V30 BEGIN CTAB
M  V30 COUNTS 49 52 0 0 0
M  V30 BEGIN ATOM
M  V30 1 N -3.987205 -2.199831 4.347319 0
M  V30 2 C -2.917691 -3.205134 4.363541 0
M  V30 3 C -1.618042 -2.549847 3.920375 0 CFG=1
M  V30 4 C -1.836483 -2.025810 2.534509 0
M  V30 5 C -0.942518 -0.868558 2.164979 0
M  V30 6 C 0.250049 -0.742330 3.057756 0 CFG=2
M  V30 7 N 1.209246 -1.803647 2.817714 0
M  V30 8 C 1.883117 -2.034989 1.588627 0
M  V30 9 C 2.777089 -3.078703 1.458003 0
M  V30 10 N 3.422943 -3.294721 0.276410 0
M  V30 11 C 3.147410 -2.452634 -0.734530 0
M  V30 12 C 2.268506 -1.393123 -0.673514 0
M  V30 13 C 1.996063 -0.499694 -1.795577 0
M  V30 14 C 2.600457 -0.639654 -3.026289 0
M  V30 15 C 2.281601 0.261528 -4.047732 0
M  V30 16 C 1.374403 1.276982 -3.826615 0
M  V30 17 O 0.916509 2.237125 -4.618624 0
M  V30 18 C 0.050915 2.990721 -3.972534 0
M  V30 19 C -0.671080 4.157503 -4.520558 0
M  V30 20 O -1.479240 4.799585 -3.792932 0
M  V30 21 O -0.447434 4.533011 -5.839026 0
M  V30 22 C -0.078010 2.512323 -2.683797 0
M  V30 23 C 0.766007 1.422421 -2.596912 0
M  V30 24 C 1.090388 0.520563 -1.588177 0
M  V30 25 N 1.671420 -1.245044 0.522896 0
M  V30 26 C -0.114605 -0.634324 4.514266 0
M  V30 27 C -1.380749 -1.384147 4.847105 0
M  V30 28 H -4.893302 -2.657298 4.113275 0
M  V30 29 H -4.054034 -1.668691 5.230844 0
M  V30 30 H -3.186519 -4.024678 3.654061 0
M  V30 31 H -2.844708 -3.675203 5.362207 0
M  V30 32 H -0.818775 -3.312860 3.983143 0
M  V30 33 H -2.901085 -1.723922 2.438249 0
M  V30 34 H -1.673293 -2.869581 1.818243 0
M  V30 35 H -1.545591 0.072751 2.239642 0
M  V30 36 H -0.598194 -0.937918 1.117304 0
M  V30 37 H 0.720587 0.249132 2.785367 0
M  V30 38 H 1.410745 -2.444670 3.629357 0
M  V30 39 H 2.984054 -3.744825 2.285230 0
M  V30 40 H 3.679553 -2.659584 -1.649829 0
M  V30 41 H 3.305954 -1.422833 -3.210983 0
M  V30 42 H 2.757555 0.153687 -5.021361 0
M  V30 43 H -0.843797 5.378243 -6.241694 0
M  V30 44 H -0.690540 2.868311 -1.869081 0
M  V30 45 H 0.597367 0.665932 -0.648025 0
M  V30 46 H -0.168673 0.424755 4.838962 0
M  V30 47 H 0.730849 -1.076365 5.097446 0
M  V30 48 H -1.376688 -1.683232 5.901467 0
M  V30 49 H -2.231633 -0.678174 4.695089 0
M  V30 END ATOM
M  V30 BEGIN BOND
M  V30 1 1 1 2
M  V30 2 1 2 3
M  V30 3 1 3 4
M  V30 4 1 4 5
M  V30 5 1 5 6
M  V30 6 1 6 7
M  V30 7 1 7 8
M  V30 8 2 8 9
M  V30 9 1 9 10
M  V30 10 2 10 11
M  V30 11 1 11 12
M  V30 12 1 12 13
M  V30 13 2 13 14
M  V30 14 1 14 15
M  V30 15 2 15 16
M  V30 16 1 16 17
M  V30 17 1 17 18
M  V30 18 1 18 19
M  V30 19 2 19 20
M  V30 20 1 19 21
M  V30 21 2 18 22
M  V30 22 1 22 23
M  V30 23 2 23 24
M  V30 24 2 12 25
M  V30 25 1 6 26
M  V30 26 1 26 27
M  V30 27 1 27 3
M  V30 28 1 25 8
M  V30 29 1 24 13
M  V30 30 1 23 16
M  V30 31 1 1 28
M  V30 32 1 1 29
M  V30 33 1 2 30
M  V30 34 1 2 31
M  V30 35 1 3 32 CFG=3
M  V30 36 1 4 33
M  V30 37 1 4 34
M  V30 38 1 5 35
M  V30 39 1 5 36
M  V30 40 1 6 37 CFG=3
M  V30 41 1 7 38
M  V30 42 1 9 39
M  V30 43 1 11 40
M  V30 44 1 14 41
M  V30 45 1 15 42
M  V30 46 1 21 43
M  V30 47 1 22 44
M  V30 48 1 24 45
M  V30 49 1 26 46
M  V30 50 1 26 47
M  V30 51 1 27 48
M  V30 52 1 27 49
M  V30 END BOND
M  V30 END CTAB
M  END
>  <Dataset>  (73) 
ChEMBL_Kinases

>  <Ligand_Instance>  (73) 
nan

>  <PDB_ID>  (73) 
nan

>  <Standardized_SMILES>  (73) 
NC[C@H]1CC[C@H](Nc2cncc(-c3ccc4oc(C(=O)O)cc4c3)n2)CC1

>  <Name>  (73) 
nan

>  <Pocket>  (73) 
nan

>  <ATP_Site>  (73) 
nan

>  <Peripheral>  (73) 
nan

>  <Num_H_Atoms_ProtBoundConf>  (73) 
nan

>  <Num_Resolved_Atoms>  (73) 
nan

>  <Num_Not_Resolved_Atoms>  (73) 
nan

$$$$
CHEMBL4783704
     RDKit          3D

  0  0  0  0  0  0  0  0  0  0999 V3000
M  V30 BEGIN CTAB
M  V30 COUNTS 55 58 0 0 0
M  V30 BEGIN ATOM
M  V30 1 C 1.958034 -5.320042 2.697330 0
M  V30 2 C 2.465032 -4.229293 2.159026 0
M  V30 3 C 3.122441 -3.307632 3.054941 0
M  V30 4 O 3.179675 -3.582767 4.268319 0
M  V30 5 N 3.746065 -2.069771 2.744287 0
M  V30 6 C 4.295212 -1.429355 3.916838 0
M  V30 7 C 4.632489 0.001242 3.601244 0
M  V30 8 C 3.643375 0.520305 2.625248 0
M  V30 9 C 3.207933 -0.065643 1.522432 0
M  V30 10 C 2.236180 0.545523 0.647421 0
M  V30 11 C 1.717862 1.773682 0.961064 0
M  V30 12 C 0.791151 2.384613 0.147049 0
M  V30 13 C 0.331619 1.803220 -1.024275 0
M  V30 14 C -0.674973 2.436306 -1.932406 0
M  V30 15 C -0.071201 2.720049 -3.294814 0
M  V30 16 C -1.857688 1.551556 -2.031801 0
M  V30 17 O -2.401098 0.970988 -3.015213 0
M  V30 18 N -2.517317 1.301139 -0.777359 0
M  V30 19 C -3.673441 0.466838 -0.715665 0
M  V30 20 C -3.864703 -0.884312 -0.521708 0
M  V30 21 C -5.246451 -1.043471 -0.577842 0
M  V30 22 C -5.855131 -2.393122 -0.407588 0
M  V30 23 C -5.094866 -3.605260 -0.713719 0
M  V30 24 C -5.313889 -3.251661 0.711158 0
M  V30 25 N -5.847995 0.154109 -0.794278 0
M  V30 26 N -4.879675 1.026732 -0.870257 0
M  V30 27 C 0.844375 0.565037 -1.355418 0
M  V30 28 C 1.772956 -0.016058 -0.512677 0
M  V30 29 F 2.213689 -1.215076 -0.922926 0
M  V30 30 C 3.914759 -1.362673 1.471803 0
M  V30 31 H 1.444587 -6.077197 2.116385 0
M  V30 32 H 2.003178 -5.560453 3.745191 0
M  V30 33 H 2.363241 -4.087188 1.096747 0
M  V30 34 H 5.222060 -1.971744 4.207090 0
M  V30 35 H 3.588339 -1.476563 4.770052 0
M  V30 36 H 5.676789 0.107509 3.233549 0
M  V30 37 H 4.525258 0.550779 4.574805 0
M  V30 38 H 3.270840 1.521792 2.917701 0
M  V30 39 H 1.934917 2.388308 1.810639 0
M  V30 40 H 0.346140 3.350014 0.336247 0
M  V30 41 H -1.021086 3.408405 -1.526822 0
M  V30 42 H 0.603730 1.935935 -3.656010 0
M  V30 43 H -0.937552 2.897153 -3.961560 0
M  V30 44 H 0.457481 3.699579 -3.200342 0
M  V30 45 H -2.195491 1.705843 0.138009 0
M  V30 46 H -3.011191 -1.512558 -0.378852 0
M  V30 47 H -6.971616 -2.445168 -0.497945 0
M  V30 48 H -4.047048 -3.581698 -1.063062 0
M  V30 49 H -5.637483 -4.521243 -1.061200 0
M  V30 50 H -4.474662 -2.843507 1.325872 0
M  V30 51 H -6.027432 -3.833238 1.327129 0
M  V30 52 H -6.892290 0.154231 -0.854270 0
M  V30 53 H 0.504990 0.087886 -2.261766 0
M  V30 54 H 4.988333 -1.283577 1.206582 0
M  V30 55 H 3.456632 -1.999438 0.702865 0
M  V30 END ATOM
M  V30 BEGIN BOND
M  V30 1 2 1 2
M  V30 2 1 2 3
M  V30 3 2 3 4
M  V30 4 1 3 5
M  V30 5 1 5 6
M  V30 6 1 6 7
M  V30 7 1 7 8
M  V30 8 2 8 9
M  V30 9 1 9 10
M  V30 10 2 10 11
M  V30 11 1 11 12
M  V30 12 2 12 13
M  V30 13 1 13 14
M  V30 14 1 14 15
M  V30 15 1 14 16
M  V30 16 2 16 17
M  V30 17 1 16 18
M  V30 18 1 18 19
M  V30 19 1 19 20
M  V30 20 2 20 21
M  V30 21 1 21 22
M  V30 22 1 22 23
M  V30 23 1 23 24
M  V30 24 1 21 25
M  V30 25 1 25 26
M  V30 26 1 13 27
M  V30 27 2 27 28
M  V30 28 1 28 29
M  V30 29 1 9 30
M  V30 30 1 30 5
M  V30 31 1 28 10
M  V30 32 2 26 19
M  V30 33 1 24 22
M  V30 34 1 1 31
M  V30 35 1 1 32
M  V30 36 1 2 33
M  V30 37 1 6 34
M  V30 38 1 6 35
M  V30 39 1 7 36
M  V30 40 1 7 37
M  V30 41 1 8 38
M  V30 42 1 11 39
M  V30 43 1 12 40
M  V30 44 1 14 41
M  V30 45 1 15 42
M  V30 46 1 15 43
M  V30 47 1 15 44
M  V30 48 1 18 45
M  V30 49 1 20 46
M  V30 50 1 22 47
M  V30 51 1 23 48
M  V30 52 1 23 49
M  V30 53 1 24 50
M  V30 54 1 24 51
M  V30 55 1 25 52
M  V30 56 1 27 53
M  V30 57 1 30 54
M  V30 58 1 30 55
M  V30 END BOND
M  V30 END CTAB
M  END
>  <Dataset>  (74) 
ChEMBL_Kinases

>  <Ligand_Instance>  (74) 
nan

>  <PDB_ID>  (74) 
nan

>  <Standardized_SMILES>  (74) 
C=CC(=O)N1CCC=C(c2ccc(C(C)C(=O)Nc3cc(C4CC4)[nH]n3)cc2F)C1

>  <Name>  (74) 
nan

>  <Pocket>  (74) 
nan

>  <ATP_Site>  (74) 
nan

>  <Peripheral>  (74) 
nan

>  <Num_H_Atoms_ProtBoundConf>  (74) 
nan

>  <Num_Resolved_Atoms>  (74) 
nan

>  <Num_Not_Resolved_Atoms>  (74) 
nan

$$$$
CHEMBL496784
     RDKit          3D

  0  0  0  0  0  0  0  0  0  0999 V3000
M  V30 BEGIN CTAB
M  V30 COUNTS 28 29 0 0 0
M  V30 BEGIN ATOM
M  V30 1 O 0.909688 -2.377672 5.456713 0
M  V30 2 C 1.687940 -2.453874 4.485199 0
M  V30 3 N 3.126641 -2.421993 4.334759 0
M  V30 4 C 3.565473 -2.059862 3.017429 0
M  V30 5 O 4.823063 -2.000849 2.778186 0
M  V30 6 C 2.531456 -1.787859 2.056166 0
M  V30 7 C 2.567326 -1.081292 0.939392 0
M  V30 8 C 1.306293 -1.001719 0.171610 0
M  V30 9 C 0.559295 -2.157694 0.007334 0
M  V30 10 C -0.629865 -2.141892 -0.668748 0
M  V30 11 C -1.117646 -0.962246 -1.208680 0
M  V30 12 C -0.366366 0.184026 -1.040483 0
M  V30 13 O -0.885562 1.343435 -1.594422 0
M  V30 14 C -1.728659 2.175081 -0.855580 0
M  V30 15 F -2.072399 3.238080 -1.690688 0
M  V30 16 F -1.099555 2.688653 0.273882 0
M  V30 17 C -3.003090 1.543822 -0.388907 0
M  V30 18 F -2.723640 0.463842 0.428731 0
M  V30 19 F -3.779613 1.081860 -1.435042 0
M  V30 20 C 0.831942 0.186638 -0.363248 0
M  V30 21 S 1.107625 -2.653255 2.779383 0
M  V30 22 H 3.729126 -2.660244 5.170035 0
M  V30 23 H 3.543645 -0.652971 0.745187 0
M  V30 24 H 0.823409 -3.134737 0.362980 0
M  V30 25 H -1.246357 -3.044551 -0.813229 0
M  V30 26 H -2.078933 -0.997493 -1.742011 0
M  V30 27 H -3.575662 2.348750 0.137726 0
M  V30 28 H 1.400029 1.083028 -0.241063 0
M  V30 END ATOM
M  V30 BEGIN BOND
M  V30 1 2 1 2
M  V30 2 1 2 3
M  V30 3 1 3 4
M  V30 4 2 4 5
M  V30 5 1 4 6
M  V30 6 2 6 7
M  V30 7 1 7 8
M  V30 8 2 8 9
M  V30 9 1 9 10
M  V30 10 2 10 11
M  V30 11 1 11 12
M  V30 12 1 12 13
M  V30 13 1 13 14
M  V30 14 1 14 15
M  V30 15 1 14 16
M  V30 16 1 14 17
M  V30 17 1 17 18
M  V30 18 1 17 19
M  V30 19 2 12 20
M  V30 20 1 6 21
M  V30 21 1 21 2
M  V30 22 1 20 8
M  V30 23 1 3 22
M  V30 24 1 7 23
M  V30 25 1 9 24
M  V30 26 1 10 25
M  V30 27 1 11 26
M  V30 28 1 17 27
M  V30 29 1 20 28
M  V30 END BOND
M  V30 END CTAB
M  END
>  <Dataset>  (75) 
ChEMBL_Kinases

>  <Ligand_Instance>  (75) 
nan

>  <PDB_ID>  (75) 
nan

>  <Standardized_SMILES>  (75) 
O=C1NC(=O)/C(=C/c2cccc(OC(F)(F)C(F)F)c2)S1

>  <Name>  (75) 
nan

>  <Pocket>  (75) 
nan

>  <ATP_Site>  (75) 
nan

>  <Peripheral>  (75) 
nan

>  <Num_H_Atoms_ProtBoundConf>  (75) 
nan

>  <Num_Resolved_Atoms>  (75) 
nan

>  <Num_Not_Resolved_Atoms>  (75) 
nan

$$$$
CHEMBL496783
     RDKit          3D

  0  0  0  0  0  0  0  0  0  0999 V3000
M  V30 BEGIN CTAB
M  V30 COUNTS 25 26 0 0 0
M  V30 BEGIN ATOM
M  V30 1 O -3.604066 1.160479 4.057676 0
M  V30 2 C -2.554218 1.319763 3.388697 0
M  V30 3 N -1.665160 2.336979 3.829481 0
M  V30 4 C -0.328638 2.342736 3.400129 0
M  V30 5 O 0.675817 3.067776 3.594898 0
M  V30 6 C -0.054612 1.205237 2.493538 0
M  V30 7 C 1.029910 0.578893 2.061569 0
M  V30 8 C 1.126168 -0.550582 1.149858 0
M  V30 9 C 2.072800 -1.496916 1.486517 0
M  V30 10 C 2.260926 -2.614949 0.690318 0
M  V30 11 C 1.463131 -2.728491 -0.440306 0
M  V30 12 C 0.529644 -1.767147 -0.746747 0
M  V30 13 O -0.305465 -1.837110 -1.885297 0
M  V30 14 C 0.293041 -1.203796 -3.033182 0
M  V30 15 F 0.508732 0.124801 -2.689734 0
M  V30 16 F 1.534399 -1.816636 -3.159513 0
M  V30 17 F -0.440874 -1.356536 -4.167114 0
M  V30 18 C 0.333806 -0.661272 0.029426 0
M  V30 19 S -1.694257 0.656045 1.937482 0
M  V30 20 H -1.858067 3.160133 4.481721 0
M  V30 21 H 1.950903 1.015146 2.484690 0
M  V30 22 H 2.728428 -1.483682 2.342139 0
M  V30 23 H 2.969930 -3.431876 0.845284 0
M  V30 24 H 1.498217 -3.542592 -1.151063 0
M  V30 25 H -0.385048 0.118961 -0.170506 0
M  V30 END ATOM
M  V30 BEGIN BOND
M  V30 1 2 1 2
M  V30 2 1 2 3
M  V30 3 1 3 4
M  V30 4 2 4 5
M  V30 5 1 4 6
M  V30 6 2 6 7
M  V30 7 1 7 8
M  V30 8 2 8 9
M  V30 9 1 9 10
M  V30 10 2 10 11
M  V30 11 1 11 12
M  V30 12 1 12 13
M  V30 13 1 13 14
M  V30 14 1 14 15
M  V30 15 1 14 16
M  V30 16 1 14 17
M  V30 17 2 12 18
M  V30 18 1 6 19
M  V30 19 1 19 2
M  V30 20 1 18 8
M  V30 21 1 3 20
M  V30 22 1 7 21
M  V30 23 1 9 22
M  V30 24 1 10 23
M  V30 25 1 11 24
M  V30 26 1 18 25
M  V30 END BOND
M  V30 END CTAB
M  END
>  <Dataset>  (76) 
ChEMBL_Kinases

>  <Ligand_Instance>  (76) 
nan

>  <PDB_ID>  (76) 
nan

>  <Standardized_SMILES>  (76) 
O=C1NC(=O)/C(=C/c2cccc(OC(F)(F)F)c2)S1

>  <Name>  (76) 
nan

>  <Pocket>  (76) 
nan

>  <ATP_Site>  (76) 
nan

>  <Peripheral>  (76) 
nan

>  <Num_H_Atoms_ProtBoundConf>  (76) 
nan

>  <Num_Resolved_Atoms>  (76) 
nan

>  <Num_Not_Resolved_Atoms>  (76) 
nan

$$$$
CHEMBL496782
     RDKit          3D

  0  0  0  0  0  0  0  0  0  0999 V3000
M  V30 BEGIN CTAB
M  V30 COUNTS 25 26 0 0 0
M  V30 BEGIN ATOM
M  V30 1 C -2.008675 -3.178413 0.826264 0
M  V30 2 O -0.872078 -3.301320 1.671694 0
M  V30 3 C -0.048549 -2.239594 1.939645 0
M  V30 4 C 0.993841 -2.598399 2.807576 0
M  V30 5 C 1.924805 -1.671701 3.199033 0
M  V30 6 C 1.882399 -0.369482 2.769149 0
M  V30 7 C 0.842380 -0.012261 1.901700 0
M  V30 8 C 0.659280 1.340425 1.390533 0
M  V30 9 C 0.464376 1.587067 0.129274 0
M  V30 10 S 0.368973 0.424636 -1.267836 0
M  V30 11 C 1.236488 1.548273 -2.416314 0
M  V30 12 O 2.062890 1.660581 -3.389095 0
M  V30 13 N 0.696093 2.809982 -1.954751 0
M  V30 14 C 0.271203 2.870434 -0.597024 0
M  V30 15 O -0.230935 3.842037 0.047241 0
M  V30 16 C -0.096683 -0.938325 1.502979 0
M  V30 17 H -2.509891 -4.159532 0.687219 0
M  V30 18 H -2.676094 -2.427756 1.277345 0
M  V30 19 H -1.660363 -2.786605 -0.164444 0
M  V30 20 H 1.166488 -3.562013 3.232362 0
M  V30 21 H 2.753822 -1.865756 3.849725 0
M  V30 22 H 2.537613 0.452455 2.993965 0
M  V30 23 H 0.676257 2.190493 2.063073 0
M  V30 24 H 0.575296 3.718086 -2.504867 0
M  V30 25 H -0.923488 -0.737950 0.835517 0
M  V30 END ATOM
M  V30 BEGIN BOND
M  V30 1 1 1 2
M  V30 2 1 2 3
M  V30 3 2 3 4
M  V30 4 1 4 5
M  V30 5 2 5 6
M  V30 6 1 6 7
M  V30 7 1 7 8
M  V30 8 2 8 9
M  V30 9 1 9 10
M  V30 10 1 10 11
M  V30 11 2 11 12
M  V30 12 1 11 13
M  V30 13 1 13 14
M  V30 14 2 14 15
M  V30 15 2 7 16
M  V30 16 1 16 3
M  V30 17 1 14 9
M  V30 18 1 1 17
M  V30 19 1 1 18
M  V30 20 1 1 19
M  V30 21 1 4 20
M  V30 22 1 5 21
M  V30 23 1 6 22
M  V30 24 1 8 23
M  V30 25 1 13 24
M  V30 26 1 16 25
M  V30 END BOND
M  V30 END CTAB
M  END
>  <Dataset>  (77) 
ChEMBL_Kinases

>  <Ligand_Instance>  (77) 
nan

>  <PDB_ID>  (77) 
nan

>  <Standardized_SMILES>  (77) 
COc1cccc(/C=C2\SC(=O)NC2=O)c1

>  <Name>  (77) 
nan

>  <Pocket>  (77) 
nan

>  <ATP_Site>  (77) 
nan

>  <Peripheral>  (77) 
nan

>  <Num_H_Atoms_ProtBoundConf>  (77) 
nan

>  <Num_Resolved_Atoms>  (77) 
nan

>  <Num_Not_Resolved_Atoms>  (77) 
nan

$$$$
CHEMBL496587
     RDKit          3D

  0  0  0  0  0  0  0  0  0  0999 V3000
M  V30 BEGIN CTAB
M  V30 COUNTS 21 22 0 0 0
M  V30 BEGIN ATOM
M  V30 1 O -0.528082 -2.543775 4.477323 0
M  V30 2 C 0.269396 -1.916351 3.753253 0
M  V30 3 N 1.610698 -1.556536 4.059083 0
M  V30 4 C 2.259675 -0.712212 3.154725 0
M  V30 5 O 3.461537 -0.294571 3.284362 0
M  V30 6 C 1.468936 -0.302376 1.995503 0
M  V30 7 C 1.733216 0.581393 1.078915 0
M  V30 8 C 0.791503 0.842332 -0.014043 0
M  V30 9 C 0.386270 -0.348557 -0.588557 0
M  V30 10 C -0.512435 -0.351006 -1.649404 0
M  V30 11 C -0.989751 0.880721 -2.114320 0
M  V30 12 C -0.580205 2.055444 -1.535549 0
M  V30 13 Br -1.173539 3.777183 -2.099752 0
M  V30 14 C 0.314491 2.035686 -0.479085 0
M  V30 15 S -0.047417 -1.278945 2.098172 0
M  V30 16 H 2.071350 -1.925686 4.934363 0
M  V30 17 H 2.679087 1.101899 1.163418 0
M  V30 18 H 0.680500 -1.365687 -0.325338 0
M  V30 19 H -0.882400 -1.225687 -2.154527 0
M  V30 20 H -1.691263 0.939933 -2.935880 0
M  V30 21 H 0.726273 2.891963 0.065894 0
M  V30 END ATOM
M  V30 BEGIN BOND
M  V30 1 2 1 2
M  V30 2 1 2 3
M  V30 3 1 3 4
M  V30 4 2 4 5
M  V30 5 1 4 6
M  V30 6 2 6 7
M  V30 7 1 7 8
M  V30 8 2 8 9
M  V30 9 1 9 10
M  V30 10 2 10 11
M  V30 11 1 11 12
M  V30 12 1 12 13
M  V30 13 2 12 14
M  V30 14 1 6 15
M  V30 15 1 15 2
M  V30 16 1 14 8
M  V30 17 1 3 16
M  V30 18 1 7 17
M  V30 19 1 9 18
M  V30 20 1 10 19
M  V30 21 1 11 20
M  V30 22 1 14 21
M  V30 END BOND
M  V30 END CTAB
M  END
>  <Dataset>  (78) 
ChEMBL_Kinases

>  <Ligand_Instance>  (78) 
nan

>  <PDB_ID>  (78) 
nan

>  <Standardized_SMILES>  (78) 
O=C1NC(=O)/C(=C/c2cccc(Br)c2)S1

>  <Name>  (78) 
nan

>  <Pocket>  (78) 
nan

>  <ATP_Site>  (78) 
nan

>  <Peripheral>  (78) 
nan

>  <Num_H_Atoms_ProtBoundConf>  (78) 
nan

>  <Num_Resolved_Atoms>  (78) 
nan

>  <Num_Not_Resolved_Atoms>  (78) 
nan

$$$$
CHEMBL4784095
     RDKit          3D

  0  0  0  0  0  0  0  0  0  0999 V3000
M  V30 BEGIN CTAB
M  V30 COUNTS 57 60 0 0 0
M  V30 BEGIN ATOM
M  V30 1 C 2.382743 -1.499652 0.118217 0
M  V30 2 C 2.835324 -1.550669 -1.319003 0
M  V30 3 C 1.642582 -2.079021 -2.105693 0
M  V30 4 N 3.250563 -0.347405 -1.866125 0
M  V30 5 C 4.328598 0.385476 -1.336452 0
M  V30 6 C 4.686631 1.435567 -2.359360 0
M  V30 7 C 3.454225 1.525996 -3.237679 0 CFG=2
M  V30 8 N 2.511140 2.425342 -2.611205 0
M  V30 9 C 1.686875 3.507932 -2.268462 0
M  V30 10 O 1.495973 4.579188 -2.761863 0
M  V30 11 C 0.988068 3.091114 -1.044259 0
M  V30 12 C 0.788043 2.157904 -0.114601 0
M  V30 13 C -0.078359 2.408758 0.882423 0
M  V30 14 N -0.324366 1.439827 1.900080 0
M  V30 15 C -1.606134 0.972140 2.011699 0
M  V30 16 C -1.645523 0.043206 3.063915 0
M  V30 17 N -2.781971 -0.682658 3.522852 0
M  V30 18 C -3.054713 -1.951970 2.974409 0
M  V30 19 O -2.252396 -2.321768 2.125575 0
M  V30 20 N -4.118612 -2.793959 3.300405 0
M  V30 21 C -4.582798 -4.075392 2.929416 0
M  V30 22 C -5.895404 -4.341306 3.213581 0
M  V30 23 C -6.442179 -5.565807 2.906598 0
M  V30 24 C -5.693349 -6.553872 2.309381 0
M  V30 25 C -4.389862 -6.274773 2.034757 0
M  V30 26 C -3.854409 -5.051764 2.344971 0
M  V30 27 Cl -2.184468 -4.927996 1.949073 0
M  V30 28 C -0.357329 -0.006318 3.545743 0
M  V30 29 N 0.422232 0.841715 2.831152 0
M  V30 30 C -0.748663 3.616600 0.937008 0
M  V30 31 S -0.060617 4.464861 -0.596251 0
M  V30 32 C 2.777557 0.167877 -3.065067 0
M  V30 33 H 2.966918 -2.251325 0.682107 0
M  V30 34 H 2.586982 -0.538119 0.619536 0
M  V30 35 H 1.320100 -1.769859 0.262026 0
M  V30 36 H 3.649130 -2.302940 -1.413946 0
M  V30 37 H 1.953802 -2.381319 -3.104761 0
M  V30 38 H 0.842831 -1.298973 -2.127217 0
M  V30 39 H 1.292240 -2.977210 -1.514162 0
M  V30 40 H 5.166611 -0.311627 -1.150808 0
M  V30 41 H 4.128596 0.853313 -0.343381 0
M  V30 42 H 5.525721 1.137401 -2.960386 0
M  V30 43 H 4.852920 2.384088 -1.796097 0
M  V30 44 H 3.769822 1.698641 -4.249329 0
M  V30 45 H 2.914174 2.940786 -3.349639 0
M  V30 46 H 1.398002 1.302642 -0.335657 0
M  V30 47 H -2.509746 1.196111 1.456468 0
M  V30 48 H -3.424353 -0.296909 4.262618 0
M  V30 49 H -4.696026 -2.278057 4.038308 0
M  V30 50 H -6.564752 -3.609217 3.687824 0
M  V30 51 H -7.467928 -5.730115 3.145325 0
M  V30 52 H -6.211704 -7.475438 2.105711 0
M  V30 53 H -3.864467 -7.108698 1.562515 0
M  V30 54 H 0.017018 -0.614195 4.364422 0
M  V30 55 H -1.475758 3.970916 1.666646 0
M  V30 56 H 1.657392 0.320417 -3.069089 0
M  V30 57 H 3.055087 -0.413240 -3.963180 0
M  V30 END ATOM
M  V30 BEGIN BOND
M  V30 1 1 1 2
M  V30 2 1 2 3
M  V30 3 1 2 4
M  V30 4 1 4 5
M  V30 5 1 5 6
M  V30 6 1 6 7
M  V30 7 1 7 8
M  V30 8 1 8 9
M  V30 9 2 9 10
M  V30 10 1 9 11
M  V30 11 2 11 12
M  V30 12 1 12 13
M  V30 13 1 13 14
M  V30 14 1 14 15
M  V30 15 2 15 16
M  V30 16 1 16 17
M  V30 17 1 17 18
M  V30 18 2 18 19
M  V30 19 1 18 20
M  V30 20 1 20 21
M  V30 21 2 21 22
M  V30 22 1 22 23
M  V30 23 2 23 24
M  V30 24 1 24 25
M  V30 25 2 25 26
M  V30 26 1 26 27
M  V30 27 1 16 28
M  V30 28 2 28 29
M  V30 29 2 13 30
M  V30 30 1 30 31
M  V30 31 1 7 32
M  V30 32 1 32 4
M  V30 33 1 31 11
M  V30 34 1 29 14
M  V30 35 1 26 21
M  V30 36 1 1 33
M  V30 37 1 1 34
M  V30 38 1 1 35
M  V30 39 1 2 36
M  V30 40 1 3 37
M  V30 41 1 3 38
M  V30 42 1 3 39
M  V30 43 1 5 40
M  V30 44 1 5 41
M  V30 45 1 6 42
M  V30 46 1 6 43
M  V30 47 1 7 44 CFG=3
M  V30 48 1 8 45
M  V30 49 1 12 46
M  V30 50 1 15 47
M  V30 51 1 17 48
M  V30 52 1 20 49
M  V30 53 1 22 50
M  V30 54 1 23 51
M  V30 55 1 24 52
M  V30 56 1 25 53
M  V30 57 1 28 54
M  V30 58 1 30 55
M  V30 59 1 32 56
M  V30 60 1 32 57
M  V30 END BOND
M  V30 END CTAB
M  END
>  <Dataset>  (79) 
ChEMBL_Kinases

>  <Ligand_Instance>  (79) 
nan

>  <PDB_ID>  (79) 
nan

>  <Standardized_SMILES>  (79) 
CC(C)N1CC[C@H](NC(=O)c2cc(-n3cc(NC(=O)Nc4ccccc4Cl)cn3)cs2)C1

>  <Name>  (79) 
nan

>  <Pocket>  (79) 
nan

>  <ATP_Site>  (79) 
nan

>  <Peripheral>  (79) 
nan

>  <Num_H_Atoms_ProtBoundConf>  (79) 
nan

>  <Num_Resolved_Atoms>  (79) 
nan

>  <Num_Not_Resolved_Atoms>  (79) 
nan

$$$$
CHEMBL4784124
     RDKit          3D

  0  0  0  0  0  0  0  0  0  0999 V3000
M  V30 BEGIN CTAB
M  V30 COUNTS 52 56 0 0 0
M  V30 BEGIN ATOM
M  V30 1 C 2.339811 -1.516890 5.488785 0
M  V30 2 C 2.313969 -2.053878 4.085775 0
M  V30 3 C 2.539458 -3.395347 3.838331 0
M  V30 4 C 2.493706 -3.788592 2.517113 0
M  V30 5 C 2.232035 -2.837792 1.556779 0
M  V30 6 C 2.012900 -1.498041 1.871793 0
M  V30 7 C 1.750650 -0.629320 0.753442 0
M  V30 8 N 2.337769 0.436736 0.183690 0
M  V30 9 C 1.638449 0.892441 -0.898455 0
M  V30 10 C 2.229359 2.068973 -1.587263 0
M  V30 11 N 1.725904 3.277072 -0.970356 0
M  V30 12 C 0.420723 3.815727 -0.914742 0
M  V30 13 C 0.147140 4.994370 -0.237336 0
M  V30 14 C -1.124708 5.502335 -0.204705 0
M  V30 15 C -2.173360 4.884802 -0.827557 0
M  V30 16 F -3.399006 5.454472 -0.745090 0
M  V30 17 C -1.967010 3.718784 -1.512291 0
M  V30 18 C -0.658139 3.223598 -1.528700 0
M  V30 19 N 0.587066 0.059771 -0.976289 0
M  V30 20 C 0.621439 -0.864908 -0.002326 0
M  V30 21 C -0.448894 -1.853694 0.062770 0
M  V30 22 C -1.297686 -1.936864 1.157990 0
M  V30 23 C -2.292298 -2.897813 1.153857 0
M  V30 24 C -2.437452 -3.757152 0.081015 0
M  V30 25 C -1.591470 -3.679461 -1.018516 0
M  V30 26 C -1.962674 -4.656398 -1.942534 0
M  V30 27 N -2.996949 -5.278072 -1.383854 0
M  V30 28 N -3.294428 -4.769739 -0.198117 0
M  V30 29 C -4.369706 -5.210030 0.689859 0
M  V30 30 C -0.600627 -2.719432 -1.010277 0
M  V30 31 N 2.058689 -1.126259 3.148895 0
M  V30 32 H 1.384017 -0.999652 5.721973 0
M  V30 33 H 2.481905 -2.352129 6.176117 0
M  V30 34 H 3.217966 -0.831261 5.574435 0
M  V30 35 H 2.738224 -4.081552 4.639675 0
M  V30 36 H 2.658328 -4.812042 2.245227 0
M  V30 37 H 2.205546 -3.197975 0.521764 0
M  V30 38 H 3.237974 0.751734 0.656178 0
M  V30 39 H 3.312453 2.034818 -1.646818 0
M  V30 40 H 1.758830 2.065175 -2.621766 0
M  V30 41 H 2.480591 3.845429 -0.477754 0
M  V30 42 H 0.953900 5.500402 0.261330 0
M  V30 43 H -1.261979 6.425725 0.343534 0
M  V30 44 H -2.776836 3.222232 -2.005600 0
M  V30 45 H -0.556188 2.305898 -2.089683 0
M  V30 46 H -1.131432 -1.234108 1.966830 0
M  V30 47 H -2.947354 -2.955518 2.008662 0
M  V30 48 H -1.449541 -4.795663 -2.887402 0
M  V30 49 H -4.955697 -5.986477 0.185091 0
M  V30 50 H -3.931876 -5.680850 1.608284 0
M  V30 51 H -4.980194 -4.355549 1.033000 0
M  V30 52 H 0.091043 -2.624577 -1.861076 0
M  V30 END ATOM
M  V30 BEGIN BOND
M  V30 1 1 1 2
M  V30 2 2 2 3
M  V30 3 1 3 4
M  V30 4 2 4 5
M  V30 5 1 5 6
M  V30 6 1 6 7
M  V30 7 1 7 8
M  V30 8 1 8 9
M  V30 9 1 9 10
M  V30 10 1 10 11
M  V30 11 1 11 12
M  V30 12 2 12 13
M  V30 13 1 13 14
M  V30 14 2 14 15
M  V30 15 1 15 16
M  V30 16 1 15 17
M  V30 17 2 17 18
M  V30 18 2 9 19
M  V30 19 1 19 20
M  V30 20 1 20 21
M  V30 21 2 21 22
M  V30 22 1 22 23
M  V30 23 2 23 24
M  V30 24 1 24 25
M  V30 25 1 25 26
M  V30 26 2 26 27
M  V30 27 1 27 28
M  V30 28 1 28 29
M  V30 29 2 25 30
M  V30 30 2 6 31
M  V30 31 1 31 2
M  V30 32 2 20 7
M  V30 33 1 30 21
M  V30 34 1 18 12
M  V30 35 1 28 24
M  V30 36 1 1 32
M  V30 37 1 1 33
M  V30 38 1 1 34
M  V30 39 1 3 35
M  V30 40 1 4 36
M  V30 41 1 5 37
M  V30 42 1 8 38
M  V30 43 1 10 39
M  V30 44 1 10 40
M  V30 45 1 11 41
M  V30 46 1 13 42
M  V30 47 1 14 43
M  V30 48 1 17 44
M  V30 49 1 18 45
M  V30 50 1 22 46
M  V30 51 1 23 47
M  V30 52 1 26 48
M  V30 53 1 29 49
M  V30 54 1 29 50
M  V30 55 1 29 51
M  V30 56 1 30 52
M  V30 END BOND
M  V30 END CTAB
M  END
>  <Dataset>  (80) 
ChEMBL_Kinases

>  <Ligand_Instance>  (80) 
nan

>  <PDB_ID>  (80) 
nan

>  <Standardized_SMILES>  (80) 
Cc1cccc(-c2[nH]c(CNc3ccc(F)cc3)nc2-c2ccc3c(cnn3C)c2)n1

>  <Name>  (80) 
nan

>  <Pocket>  (80) 
nan

>  <ATP_Site>  (80) 
nan

>  <Peripheral>  (80) 
nan

>  <Num_H_Atoms_ProtBoundConf>  (80) 
nan

>  <Num_Resolved_Atoms>  (80) 
nan

>  <Num_Not_Resolved_Atoms>  (80) 
nan

$$$$
CHEMBL4784181
     RDKit          3D

  0  0  0  0  0  0  0  0  0  0999 V3000
M  V30 BEGIN CTAB
M  V30 COUNTS 63 68 0 0 0
M  V30 BEGIN ATOM
M  V30 1 C 2.571524 -1.220399 4.342515 0
M  V30 2 C 3.779388 -1.197764 3.446577 0
M  V30 3 C 3.799622 -2.436008 2.549860 0
M  V30 4 O 4.948092 -1.190172 4.244179 0
M  V30 5 C 5.748382 -0.092302 3.974336 0
M  V30 6 O 6.858828 0.162221 4.519868 0
M  V30 7 C 5.041033 0.653546 2.968453 0
M  V30 8 C 5.366877 1.829644 2.346876 0
M  V30 9 C 4.520925 2.366975 1.416913 0
M  V30 10 C 3.321553 1.803215 1.037591 0
M  V30 11 N 2.514641 2.449177 0.067771 0
M  V30 12 C 1.272810 2.032093 -0.474192 0
M  V30 13 N 0.675973 2.854553 -1.353347 0
M  V30 14 C -0.497980 2.564684 -1.925324 0
M  V30 15 C -1.160914 1.392644 -1.636803 0
M  V30 16 C -2.440518 1.115295 -2.280008 0
M  V30 17 N -3.347667 0.136187 -2.260509 0
M  V30 18 C -4.391436 0.355312 -3.055821 0
M  V30 19 C -5.506208 -0.643416 -3.157571 0
M  V30 20 C -6.118527 -0.754522 -4.481802 0
M  V30 21 C -6.901367 -0.173093 -3.322148 0
M  V30 22 N -4.105920 1.544890 -3.597616 0
M  V30 23 O -2.974236 1.976028 -3.141745 0
M  V30 24 C -0.562442 0.538442 -0.737938 0
M  V30 25 N -1.174276 -0.691212 -0.370007 0
M  V30 26 C -0.654140 -1.676632 0.546583 0 CFG=2
M  V30 27 C 0.619806 -2.297344 0.057681 0
M  V30 28 O 1.127334 -3.245373 0.940996 0
M  V30 29 C -1.708424 -2.616891 0.918109 0
M  V30 30 C -1.756769 -3.981085 1.001314 0
M  V30 31 C -2.859641 -4.680738 1.376742 0
M  V30 32 C -4.025168 -4.009495 1.702729 0
M  V30 33 C -4.032463 -2.626537 1.635801 0
M  V30 34 C -2.883489 -1.938046 1.246812 0
M  V30 35 N 0.618050 0.894381 -0.201779 0
M  V30 36 C 3.042952 0.623876 1.691603 0
M  V30 37 C 3.857193 0.037266 2.635376 0
M  V30 38 H 1.671978 -1.691640 3.865249 0
M  V30 39 H 2.793421 -1.849887 5.223615 0
M  V30 40 H 2.276857 -0.195006 4.648832 0
M  V30 41 H 4.826032 -2.839735 2.549554 0
M  V30 42 H 3.588369 -2.155465 1.497186 0
M  V30 43 H 3.043328 -3.141287 2.934695 0
M  V30 44 H 6.303847 2.324347 2.604733 0
M  V30 45 H 4.864924 3.310533 0.971292 0
M  V30 46 H 2.907402 3.371804 -0.293836 0
M  V30 47 H -0.885856 3.313965 -2.626980 0
M  V30 48 H -5.381856 -1.562001 -2.554836 0
M  V30 49 H -6.363640 -1.752671 -4.875833 0
M  V30 50 H -5.847530 -0.025034 -5.287905 0
M  V30 51 H -7.716931 -0.835985 -2.984342 0
M  V30 52 H -7.141591 0.900716 -3.286589 0
M  V30 53 H -2.080032 -0.950115 -0.774250 0
M  V30 54 H -0.384129 -1.125497 1.490246 0
M  V30 55 H 0.472564 -2.836266 -0.901269 0
M  V30 56 H 1.404706 -1.535825 -0.101687 0
M  V30 57 H 1.798554 -3.828584 0.517427 0
M  V30 58 H -0.828574 -4.449039 0.735954 0
M  V30 59 H -2.782668 -5.756199 1.406713 0
M  V30 60 H -4.890463 -4.615208 1.999841 0
M  V30 61 H -4.962582 -2.142939 1.898379 0
M  V30 62 H -3.047521 -0.852738 1.242815 0
M  V30 63 H 2.122530 0.127785 1.449214 0
M  V30 END ATOM
M  V30 BEGIN BOND
M  V30 1 1 1 2
M  V30 2 1 2 3
M  V30 3 1 2 4
M  V30 4 1 4 5
M  V30 5 2 5 6
M  V30 6 1 5 7
M  V30 7 2 7 8
M  V30 8 1 8 9
M  V30 9 2 9 10
M  V30 10 1 10 11
M  V30 11 1 11 12
M  V30 12 2 12 13
M  V30 13 1 13 14
M  V30 14 2 14 15
M  V30 15 1 15 16
M  V30 16 2 16 17
M  V30 17 1 17 18
M  V30 18 1 18 19
M  V30 19 1 19 20
M  V30 20 1 20 21
M  V30 21 2 18 22
M  V30 22 1 22 23
M  V30 23 1 15 24
M  V30 24 1 24 25
M  V30 25 1 25 26
M  V30 26 1 26 27
M  V30 27 1 27 28
M  V30 28 1 26 29
M  V30 29 2 29 30
M  V30 30 1 30 31
M  V30 31 2 31 32
M  V30 32 1 32 33
M  V30 33 2 33 34
M  V30 34 2 24 35
M  V30 35 1 10 36
M  V30 36 2 36 37
M  V30 37 1 37 2
M  V30 38 1 37 7
M  V30 39 1 35 12
M  V30 40 1 23 16
M  V30 41 1 34 29
M  V30 42 1 21 19
M  V30 43 1 1 38
M  V30 44 1 1 39
M  V30 45 1 1 40
M  V30 46 1 3 41
M  V30 47 1 3 42
M  V30 48 1 3 43
M  V30 49 1 8 44
M  V30 50 1 9 45
M  V30 51 1 11 46
M  V30 52 1 14 47
M  V30 53 1 19 48
M  V30 54 1 20 49
M  V30 55 1 20 50
M  V30 56 1 21 51
M  V30 57 1 21 52
M  V30 58 1 25 53
M  V30 59 1 26 54 CFG=1
M  V30 60 1 27 55
M  V30 61 1 27 56
M  V30 62 1 28 57
M  V30 63 1 30 58
M  V30 64 1 31 59
M  V30 65 1 32 60
M  V30 66 1 33 61
M  V30 67 1 34 62
M  V30 68 1 36 63
M  V30 END BOND
M  V30 END CTAB
M  END
>  <Dataset>  (81) 
ChEMBL_Kinases

>  <Ligand_Instance>  (81) 
nan

>  <PDB_ID>  (81) 
nan

>  <Standardized_SMILES>  (81) 
CC1(C)OC(=O)c2ccc(Nc3ncc(-c4nc(C5CC5)no4)c(N[C@H](CO)c4ccccc4)n3)cc21

>  <Name>  (81) 
nan

>  <Pocket>  (81) 
nan

>  <ATP_Site>  (81) 
nan

>  <Peripheral>  (81) 
nan

>  <Num_H_Atoms_ProtBoundConf>  (81) 
nan

>  <Num_Resolved_Atoms>  (81) 
nan

>  <Num_Not_Resolved_Atoms>  (81) 
nan

$$$$
CHEMBL4784194
     RDKit          3D

  0  0  0  0  0  0  0  0  0  0999 V3000
M  V30 BEGIN CTAB
M  V30 COUNTS 60 65 0 0 0
M  V30 BEGIN ATOM
M  V30 1 C 2.917054 -0.298732 3.724730 0
M  V30 2 C 3.341606 -1.115749 2.506775 0
M  V30 3 C 2.082856 -1.809327 1.988688 0
M  V30 4 O 4.266554 -2.090978 2.801246 0
M  V30 5 C 3.874793 -0.139546 1.533245 0
M  V30 6 C 3.051232 0.430323 0.583834 0
M  V30 7 C 3.626765 1.343103 -0.274691 0
M  V30 8 N 2.864842 1.978756 -1.292642 0
M  V30 9 C 1.580770 1.418638 -1.644036 0
M  V30 10 C 0.346686 1.558905 -1.049647 0
M  V30 11 C -0.715810 0.905322 -1.626939 0
M  V30 12 O -1.941397 1.033467 -1.053077 0
M  V30 13 C -2.578778 0.373293 -0.075620 0
M  V30 14 C -2.969251 1.125439 1.029252 0
M  V30 15 N -3.598371 0.369019 1.939536 0
M  V30 16 C -4.184267 0.665401 3.230831 0
M  V30 17 C -4.391520 -0.453956 4.202750 0
M  V30 18 C -3.229418 0.417716 4.445584 0
M  V30 19 N -3.620619 -0.853045 1.445693 0
M  V30 20 C -3.018667 -0.888169 0.242357 0
M  V30 21 C -2.860784 -2.048053 -0.616116 0
M  V30 22 C -4.049004 -2.735202 -0.843649 0
M  V30 23 C -4.024807 -3.886863 -1.636785 0
M  V30 24 C -2.859931 -4.361641 -2.199960 0
M  V30 25 C -1.704999 -3.677714 -1.967245 0
M  V30 26 C -1.712290 -2.547169 -1.191511 0
M  V30 27 O -0.618135 -4.293875 -2.610680 0
M  V30 28 C -1.061172 -5.597817 -2.967957 0
M  V30 29 O -2.458017 -5.424262 -3.010470 0
M  V30 30 C -0.431900 0.156187 -2.772587 0
M  V30 31 C 0.787234 0.012247 -3.367338 0
M  V30 32 N 1.791819 0.682867 -2.746894 0
M  V30 33 C 4.975470 1.668026 -0.180969 0
M  V30 34 C 5.751892 1.056078 0.800293 0
M  V30 35 N 5.176249 0.165598 1.632970 0
M  V30 36 H 2.728304 -1.029575 4.538697 0
M  V30 37 H 2.059221 0.310473 3.432970 0
M  V30 38 H 3.766426 0.384761 4.010213 0
M  V30 39 H 1.191738 -1.150452 2.149228 0
M  V30 40 H 2.202750 -2.139039 0.946438 0
M  V30 41 H 1.968497 -2.743944 2.608775 0
M  V30 42 H 5.010527 -2.160975 2.161346 0
M  V30 43 H 1.997686 0.174603 0.511544 0
M  V30 44 H 3.196765 2.823510 -1.786676 0
M  V30 45 H 0.372428 2.176499 -0.189607 0
M  V30 46 H -2.867492 2.188594 1.300655 0
M  V30 47 H -4.771192 1.612474 3.312415 0
M  V30 48 H -5.244120 -0.342839 4.920396 0
M  V30 49 H -4.207838 -1.461185 3.764696 0
M  V30 50 H -2.223741 0.010036 4.203302 0
M  V30 51 H -3.235584 1.196162 5.224244 0
M  V30 52 H -5.014200 -2.448491 -0.450514 0
M  V30 53 H -4.920533 -4.455591 -1.843321 0
M  V30 54 H -0.833341 -1.998991 -0.978635 0
M  V30 55 H -0.753492 -6.278112 -2.134171 0
M  V30 56 H -0.626273 -5.956100 -3.919455 0
M  V30 57 H -1.296680 -0.342614 -3.196650 0
M  V30 58 H 0.840219 -0.601341 -4.247637 0
M  V30 59 H 5.418829 2.389750 -0.863497 0
M  V30 60 H 6.791086 1.359138 0.811146 0
M  V30 END ATOM
M  V30 BEGIN BOND
M  V30 1 1 1 2
M  V30 2 1 2 3
M  V30 3 1 2 4
M  V30 4 1 2 5
M  V30 5 2 5 6
M  V30 6 1 6 7
M  V30 7 1 7 8
M  V30 8 1 8 9
M  V30 9 2 9 10
M  V30 10 1 10 11
M  V30 11 1 11 12
M  V30 12 1 12 13
M  V30 13 2 13 14
M  V30 14 1 14 15
M  V30 15 1 15 16
M  V30 16 1 16 17
M  V30 17 1 17 18
M  V30 18 1 15 19
M  V30 19 2 19 20
M  V30 20 1 20 21
M  V30 21 2 21 22
M  V30 22 1 22 23
M  V30 23 2 23 24
M  V30 24 1 24 25
M  V30 25 2 25 26
M  V30 26 1 25 27
M  V30 27 1 27 28
M  V30 28 1 28 29
M  V30 29 2 11 30
M  V30 30 1 30 31
M  V30 31 2 31 32
M  V30 32 2 7 33
M  V30 33 1 33 34
M  V30 34 2 34 35
M  V30 35 1 35 5
M  V30 36 1 32 9
M  V30 37 1 20 13
M  V30 38 1 26 21
M  V30 39 1 18 16
M  V30 40 1 29 24
M  V30 41 1 1 36
M  V30 42 1 1 37
M  V30 43 1 1 38
M  V30 44 1 3 39
M  V30 45 1 3 40
M  V30 46 1 3 41
M  V30 47 1 4 42
M  V30 48 1 6 43
M  V30 49 1 8 44
M  V30 50 1 10 45
M  V30 51 1 14 46
M  V30 52 1 16 47
M  V30 53 1 17 48
M  V30 54 1 17 49
M  V30 55 1 18 50
M  V30 56 1 18 51
M  V30 57 1 22 52
M  V30 58 1 23 53
M  V30 59 1 26 54
M  V30 60 1 28 55
M  V30 61 1 28 56
M  V30 62 1 30 57
M  V30 63 1 31 58
M  V30 64 1 33 59
M  V30 65 1 34 60
M  V30 END BOND
M  V30 END CTAB
M  END
>  <Dataset>  (82) 
ChEMBL_Kinases

>  <Ligand_Instance>  (82) 
nan

>  <PDB_ID>  (82) 
nan

>  <Standardized_SMILES>  (82) 
CC(C)(O)c1cc(Nc2cc(Oc3cn(C4CC4)nc3-c3ccc4c(c3)OCO4)ccn2)ccn1

>  <Name>  (82) 
nan

>  <Pocket>  (82) 
nan

>  <ATP_Site>  (82) 
nan

>  <Peripheral>  (82) 
nan

>  <Num_H_Atoms_ProtBoundConf>  (82) 
nan

>  <Num_Resolved_Atoms>  (82) 
nan

>  <Num_Not_Resolved_Atoms>  (82) 
nan

$$$$
CHEMBL4781586
     RDKit          3D

  0  0  0  0  0  0  0  0  0  0999 V3000
M  V30 BEGIN CTAB
M  V30 COUNTS 57 61 0 0 0
M  V30 BEGIN ATOM
M  V30 1 C 0.915273 -3.695864 2.004911 0
M  V30 2 N 1.486956 -2.597806 1.216411 0
M  V30 3 C 2.032306 -1.445717 1.700331 0
M  V30 4 C 2.444074 -0.703209 0.587823 0
M  V30 5 C 3.063514 0.571072 0.897563 0
M  V30 6 N 4.001249 0.909752 1.797974 0
M  V30 7 N 4.245451 2.219976 1.709885 0
M  V30 8 C 5.241005 2.755902 2.618088 0
M  V30 9 C 4.793540 3.664749 3.731845 0
M  V30 10 C 5.139450 2.273192 4.096389 0
M  V30 11 C 3.443543 2.725209 0.730173 0
M  V30 12 C 2.674969 1.685840 0.192887 0
M  V30 13 O 1.836006 2.098554 -0.801792 0
M  V30 14 C 0.457506 1.995286 -0.824179 0
M  V30 15 C -0.162647 3.070107 -0.180541 0
M  V30 16 C -1.556369 3.131525 -0.107063 0
M  V30 17 N -2.320876 2.162107 -0.652350 0
M  V30 18 C -1.725964 1.112584 -1.280528 0
M  V30 19 N -2.380062 0.009425 -1.905372 0
M  V30 20 C -2.593834 -1.147182 -1.104587 0
M  V30 21 C -2.183018 -1.184363 0.211728 0
M  V30 22 C -2.356340 -2.273127 1.039859 0
M  V30 23 N -2.970933 -3.361542 0.503375 0
M  V30 24 C -3.391179 -3.366259 -0.788923 0
M  V30 25 C -4.036274 -4.622878 -1.214051 0
M  V30 26 C -4.500897 -4.590023 -2.653061 0
M  V30 27 C -5.233946 -4.983010 -0.358136 0
M  V30 28 O -3.135328 -5.709764 -1.122591 0
M  V30 29 C -3.216577 -2.277848 -1.611800 0
M  V30 30 C -0.352767 1.026191 -1.367785 0
M  V30 31 C 2.133635 -1.432306 -0.535612 0
M  V30 32 N 1.551017 -2.581172 -0.105537 0
M  V30 33 H 1.755835 -4.264411 2.421279 0
M  V30 34 H 0.376681 -3.242476 2.886492 0
M  V30 35 H 0.206020 -4.261923 1.398816 0
M  V30 36 H 2.066894 -1.280479 2.785644 0
M  V30 37 H 6.297702 2.804864 2.276406 0
M  V30 38 H 3.725435 3.935323 3.744476 0
M  V30 39 H 5.456935 4.513240 4.018784 0
M  V30 40 H 4.296659 1.576139 4.300404 0
M  V30 41 H 6.064476 2.090423 4.644221 0
M  V30 42 H 3.561808 3.791791 0.574024 0
M  V30 43 H 0.341363 3.904109 0.291147 0
M  V30 44 H -2.102982 3.931034 0.374675 0
M  V30 45 H -2.713930 -0.014012 -2.903164 0
M  V30 46 H -1.687224 -0.307737 0.646365 0
M  V30 47 H -2.008321 -2.228590 2.060477 0
M  V30 48 H -3.685458 -4.327469 -3.346700 0
M  V30 49 H -4.767697 -5.651956 -2.906115 0
M  V30 50 H -5.420823 -3.993347 -2.790097 0
M  V30 51 H -5.021294 -4.932179 0.727841 0
M  V30 52 H -5.429118 -6.070308 -0.570660 0
M  V30 53 H -6.135717 -4.434592 -0.660027 0
M  V30 54 H -3.467398 -6.408188 -1.738513 0
M  V30 55 H -3.561631 -2.314249 -2.629544 0
M  V30 56 H 0.188906 0.240416 -1.842827 0
M  V30 57 H 2.382408 -1.008575 -1.497651 0
M  V30 END ATOM
M  V30 BEGIN BOND
M  V30 1 1 1 2
M  V30 2 1 2 3
M  V30 3 2 3 4
M  V30 4 1 4 5
M  V30 5 2 5 6
M  V30 6 1 6 7
M  V30 7 1 7 8
M  V30 8 1 8 9
M  V30 9 1 9 10
M  V30 10 1 7 11
M  V30 11 2 11 12
M  V30 12 1 12 13
M  V30 13 1 13 14
M  V30 14 2 14 15
M  V30 15 1 15 16
M  V30 16 2 16 17
M  V30 17 1 17 18
M  V30 18 1 18 19
M  V30 19 1 19 20
M  V30 20 2 20 21
M  V30 21 1 21 22
M  V30 22 2 22 23
M  V30 23 1 23 24
M  V30 24 1 24 25
M  V30 25 1 25 26
M  V30 26 1 25 27
M  V30 27 1 25 28
M  V30 28 2 24 29
M  V30 29 2 18 30
M  V30 30 1 4 31
M  V30 31 2 31 32
M  V30 32 1 32 2
M  V30 33 1 12 5
M  V30 34 1 30 14
M  V30 35 1 10 8
M  V30 36 1 29 20
M  V30 37 1 1 33
M  V30 38 1 1 34
M  V30 39 1 1 35
M  V30 40 1 3 36
M  V30 41 1 8 37
M  V30 42 1 9 38
M  V30 43 1 9 39
M  V30 44 1 10 40
M  V30 45 1 10 41
M  V30 46 1 11 42
M  V30 47 1 15 43
M  V30 48 1 16 44
M  V30 49 1 19 45
M  V30 50 1 21 46
M  V30 51 1 22 47
M  V30 52 1 26 48
M  V30 53 1 26 49
M  V30 54 1 26 50
M  V30 55 1 27 51
M  V30 56 1 27 52
M  V30 57 1 27 53
M  V30 58 1 28 54
M  V30 59 1 29 55
M  V30 60 1 30 56
M  V30 61 1 31 57
M  V30 END BOND
M  V30 END CTAB
M  END
>  <Dataset>  (83) 
ChEMBL_Kinases

>  <Ligand_Instance>  (83) 
nan

>  <PDB_ID>  (83) 
nan

>  <Standardized_SMILES>  (83) 
Cn1cc(-c2nn(C3CC3)cc2Oc2ccnc(Nc3ccnc(C(C)(C)O)c3)c2)cn1

>  <Name>  (83) 
nan

>  <Pocket>  (83) 
nan

>  <ATP_Site>  (83) 
nan

>  <Peripheral>  (83) 
nan

>  <Num_H_Atoms_ProtBoundConf>  (83) 
nan

>  <Num_Resolved_Atoms>  (83) 
nan

>  <Num_Not_Resolved_Atoms>  (83) 
nan

$$$$
CHEMBL4784425
     RDKit          3D

  0  0  0  0  0  0  0  0  0  0999 V3000
M  V30 BEGIN CTAB
M  V30 COUNTS 41 43 0 0 0
M  V30 BEGIN ATOM
M  V30 1 C -2.173405 -4.455057 0.361029 0
M  V30 2 O -1.739584 -3.902793 1.558786 0
M  V30 3 C -0.812813 -2.915580 1.759556 0
M  V30 4 C -0.113498 -2.265800 0.746124 0
M  V30 5 C 0.805467 -1.277324 1.062318 0
M  V30 6 N 1.461900 -0.682293 -0.071270 0
M  V30 7 C 0.828984 0.469513 -0.652294 0
M  V30 8 O -0.186599 0.551085 0.129240 0
M  V30 9 C 1.534714 1.044146 -1.807840 0 CFG=2
M  V30 10 O 2.696657 0.342380 -2.127052 0
M  V30 11 C 1.749136 2.491652 -1.778640 0
M  V30 12 C 3.036285 2.952396 -2.093734 0
M  V30 13 C 3.437076 4.256033 -2.113195 0
M  V30 14 C 2.514214 5.224174 -1.799246 0
M  V30 15 C 1.229603 4.837086 -1.480049 0
M  V30 16 C 0.875015 3.504760 -1.475159 0
M  V30 17 Cl -0.756678 3.009529 -1.084384 0
M  V30 18 C 1.051523 -0.911853 2.381121 0
M  V30 19 C 0.353588 -1.561332 3.380597 0
M  V30 20 C -0.565721 -2.548737 3.081902 0
M  V30 21 C -1.268295 -3.193910 4.193434 0
M  V30 22 C -2.630938 -3.472645 4.273710 0
M  V30 23 N -2.905437 -4.070680 5.446278 0
M  V30 24 N -1.760693 -4.191903 6.137242 0
M  V30 25 C -0.763012 -3.666307 5.392345 0
M  V30 26 H -3.294823 -4.367698 0.354362 0
M  V30 27 H -1.859508 -3.908633 -0.552553 0
M  V30 28 H -1.966365 -5.541859 0.265396 0
M  V30 29 H -0.335356 -2.580493 -0.261186 0
M  V30 30 H 2.365492 -1.181492 -0.352710 0
M  V30 31 H 0.851135 0.845017 -2.692856 0
M  V30 32 H 2.839030 0.340739 -3.097199 0
M  V30 33 H 3.816031 2.220392 -2.353163 0
M  V30 34 H 4.446248 4.534865 -2.365822 0
M  V30 35 H 2.724495 6.281811 -1.783954 0
M  V30 36 H 0.458823 5.551780 -1.224229 0
M  V30 37 H 1.784228 -0.129769 2.559662 0
M  V30 38 H 0.552206 -1.269740 4.403196 0
M  V30 39 H -3.308162 -3.217135 3.472705 0
M  V30 40 H -1.704178 -4.628692 7.090708 0
M  V30 41 H 0.286051 -3.611687 5.671906 0
M  V30 END ATOM
M  V30 BEGIN BOND
M  V30 1 1 1 2
M  V30 2 1 2 3
M  V30 3 2 3 4
M  V30 4 1 4 5
M  V30 5 1 5 6
M  V30 6 1 6 7
M  V30 7 2 7 8
M  V30 8 1 7 9
M  V30 9 1 9 10
M  V30 10 1 9 11
M  V30 11 2 11 12
M  V30 12 1 12 13
M  V30 13 2 13 14
M  V30 14 1 14 15
M  V30 15 2 15 16
M  V30 16 1 16 17
M  V30 17 2 5 18
M  V30 18 1 18 19
M  V30 19 2 19 20
M  V30 20 1 20 21
M  V30 21 1 21 22
M  V30 22 2 22 23
M  V30 23 1 23 24
M  V30 24 1 24 25
M  V30 25 1 20 3
M  V30 26 2 25 21
M  V30 27 1 16 11
M  V30 28 1 1 26
M  V30 29 1 1 27
M  V30 30 1 1 28
M  V30 31 1 4 29
M  V30 32 1 6 30
M  V30 33 1 9 31 CFG=3
M  V30 34 1 10 32
M  V30 35 1 12 33
M  V30 36 1 13 34
M  V30 37 1 14 35
M  V30 38 1 15 36
M  V30 39 1 18 37
M  V30 40 1 19 38
M  V30 41 1 22 39
M  V30 42 1 24 40
M  V30 43 1 25 41
M  V30 END BOND
M  V30 END CTAB
M  END
>  <Dataset>  (84) 
ChEMBL_Kinases

>  <Ligand_Instance>  (84) 
nan

>  <PDB_ID>  (84) 
nan

>  <Standardized_SMILES>  (84) 
COc1cc(NC(=O)[C@H](O)c2ccccc2Cl)ccc1-c1cn[nH]c1

>  <Name>  (84) 
nan

>  <Pocket>  (84) 
nan

>  <ATP_Site>  (84) 
nan

>  <Peripheral>  (84) 
nan

>  <Num_H_Atoms_ProtBoundConf>  (84) 
nan

>  <Num_Resolved_Atoms>  (84) 
nan

>  <Num_Not_Resolved_Atoms>  (84) 
nan

$$$$
CHEMBL495758
     RDKit          3D

  0  0  0  0  0  0  0  0  0  0999 V3000
M  V30 BEGIN CTAB
M  V30 COUNTS 22 24 0 0 0
M  V30 BEGIN ATOM
M  V30 1 C 0.411982 0.788671 4.764460 0
M  V30 2 C 0.445399 -0.576455 4.679333 0
M  V30 3 C 0.454090 -1.253399 3.476520 0
M  V30 4 C 0.427261 -0.493057 2.314008 0
M  V30 5 N 0.428023 -0.876578 1.017194 0
M  V30 6 C 0.395333 0.231070 0.263856 0
M  V30 7 C 0.381391 0.395362 -1.188143 0
M  V30 8 C 0.402863 -0.700577 -2.045544 0
M  V30 9 C 0.382736 -0.247613 -3.350066 0
M  V30 10 N 0.349805 1.098637 -3.262234 0
M  V30 11 N 0.348963 1.480772 -1.983925 0
M  V30 12 N 0.374189 1.305830 1.093448 0
M  V30 13 C 0.393182 0.888325 2.361231 0
M  V30 14 C 0.385534 1.531718 3.594442 0
M  V30 15 H 0.407019 1.255165 5.740876 0
M  V30 16 H 0.466511 -1.183398 5.567120 0
M  V30 17 H 0.480721 -2.346228 3.387198 0
M  V30 18 H 0.449258 -1.842691 0.601047 0
M  V30 19 H 0.430947 -1.784127 -1.884014 0
M  V30 20 H 0.387641 -0.711123 -4.328327 0
M  V30 21 H 0.324933 1.913164 -3.938597 0
M  V30 22 H 0.358745 2.618948 3.636374 0
M  V30 END ATOM
M  V30 BEGIN BOND
M  V30 1 2 1 2
M  V30 2 1 2 3
M  V30 3 2 3 4
M  V30 4 1 4 5
M  V30 5 1 5 6
M  V30 6 1 6 7
M  V30 7 1 7 8
M  V30 8 2 8 9
M  V30 9 1 9 10
M  V30 10 1 10 11
M  V30 11 2 6 12
M  V30 12 1 12 13
M  V30 13 2 13 14
M  V30 14 1 14 1
M  V30 15 1 13 4
M  V30 16 2 11 7
M  V30 17 1 1 15
M  V30 18 1 2 16
M  V30 19 1 3 17
M  V30 20 1 5 18
M  V30 21 1 8 19
M  V30 22 1 9 20
M  V30 23 1 10 21
M  V30 24 1 14 22
M  V30 END BOND
M  V30 END CTAB
M  END
>  <Dataset>  (85) 
ChEMBL_Kinases

>  <Ligand_Instance>  (85) 
nan

>  <PDB_ID>  (85) 
nan

>  <Standardized_SMILES>  (85) 
c1ccc2[nH]c(-c3cc[nH]n3)nc2c1

>  <Name>  (85) 
nan

>  <Pocket>  (85) 
nan

>  <ATP_Site>  (85) 
nan

>  <Peripheral>  (85) 
nan

>  <Num_H_Atoms_ProtBoundConf>  (85) 
nan

>  <Num_Resolved_Atoms>  (85) 
nan

>  <Num_Not_Resolved_Atoms>  (85) 
nan

$$$$
CHEMBL4784584
     RDKit          3D

  0  0  0  0  0  0  0  0  0  0999 V3000
M  V30 BEGIN CTAB
M  V30 COUNTS 55 59 0 0 0
M  V30 BEGIN ATOM
M  V30 1 C 1.167724 -1.703112 -3.208784 0
M  V30 2 N 2.337947 -1.084627 -2.659250 0
M  V30 3 C 2.995627 -1.847317 -1.637444 0
M  V30 4 C 3.115469 -1.060512 -0.334014 0
M  V30 5 C 1.719921 -0.761601 0.113295 0
M  V30 6 N 1.609603 -0.144006 1.403419 0
M  V30 7 C 2.179175 -0.946766 2.473682 0
M  V30 8 C 0.977289 1.125838 1.459839 0
M  V30 9 C 1.562014 2.351400 1.352820 0
M  V30 10 N 2.969361 2.388354 1.176576 0 CHG=1 VAL=4
M  V30 11 O 3.545542 3.333716 0.586818 0
M  V30 12 O 4.203033 1.821687 1.355479 0 CHG=-1 VAL=1
M  V30 13 C 0.915803 3.554194 1.404854 0
M  V30 14 N -0.403076 3.474212 1.577076 0
M  V30 15 C -1.046515 2.311544 1.690272 0
M  V30 16 C -2.422184 2.344960 1.867256 0
M  V30 17 C -3.092927 1.140423 1.985312 0
M  V30 18 C -2.464255 -0.087699 1.935932 0
M  V30 19 C -3.230318 -1.323993 2.068131 0
M  V30 20 C -4.222888 -1.576208 3.012695 0
M  V30 21 N -4.726001 -2.820742 2.853677 0
M  V30 22 C -4.090280 -3.416899 1.815840 0
M  V30 23 N -4.165499 -4.612161 1.215045 0
M  V30 24 C -3.384194 -4.939108 0.170764 0
M  V30 25 C -2.441056 -4.061215 -0.362165 0
M  V30 26 C -2.380848 -2.832864 0.274038 0
M  V30 27 C -3.178931 -2.503809 1.337846 0
M  V30 28 C -1.086789 -0.123371 1.758766 0
M  V30 29 C -0.390686 1.083666 1.637489 0
M  V30 30 C 1.025829 0.021316 -0.984900 0
M  V30 31 C 1.990097 0.205553 -2.136521 0
M  V30 32 H 0.755116 -2.521192 -2.605273 0
M  V30 33 H 1.436442 -2.067258 -4.231449 0
M  V30 34 H 0.323966 -0.976229 -3.374872 0
M  V30 35 H 2.416809 -2.761089 -1.390965 0
M  V30 36 H 3.991134 -2.211282 -1.968883 0
M  V30 37 H 3.564259 -1.779650 0.395034 0
M  V30 38 H 3.792228 -0.216643 -0.420080 0
M  V30 39 H 1.225535 -1.772468 0.228513 0
M  V30 40 H 1.974354 -0.480104 3.476090 0
M  V30 41 H 3.266196 -1.046716 2.375960 0
M  V30 42 H 1.658006 -1.945329 2.526512 0
M  V30 43 H 1.444016 4.492837 1.312343 0
M  V30 44 H -2.917515 3.294712 1.906571 0
M  V30 45 H -4.173665 1.236845 2.122721 0
M  V30 46 H -4.551178 -0.864726 3.779044 0
M  V30 47 H -5.486144 -3.262038 3.435579 0
M  V30 48 H -3.502783 -5.907214 -0.252236 0
M  V30 49 H -1.846289 -4.385751 -1.200268 0
M  V30 50 H -1.656329 -2.131172 -0.119536 0
M  V30 51 H -0.539215 -1.046450 1.711856 0
M  V30 52 H 0.182945 -0.565744 -1.366694 0
M  V30 53 H 0.729354 1.034254 -0.643463 0
M  V30 54 H 2.848972 0.852072 -1.873442 0
M  V30 55 H 1.420879 0.778545 -2.919658 0
M  V30 END ATOM
M  V30 BEGIN BOND
M  V30 1 1 1 2
M  V30 2 1 2 3
M  V30 3 1 3 4
M  V30 4 1 4 5
M  V30 5 1 5 6
M  V30 6 1 6 7
M  V30 7 1 6 8
M  V30 8 2 8 9
M  V30 9 1 9 10
M  V30 10 2 10 11
M  V30 11 1 10 12
M  V30 12 1 9 13
M  V30 13 2 13 14
M  V30 14 1 14 15
M  V30 15 2 15 16
M  V30 16 1 16 17
M  V30 17 2 17 18
M  V30 18 1 18 19
M  V30 19 2 19 20
M  V30 20 1 20 21
M  V30 21 1 21 22
M  V30 22 2 22 23
M  V30 23 1 23 24
M  V30 24 2 24 25
M  V30 25 1 25 26
M  V30 26 2 26 27
M  V30 27 1 18 28
M  V30 28 2 28 29
M  V30 29 1 5 30
M  V30 30 1 30 31
M  V30 31 1 31 2
M  V30 32 1 29 8
M  V30 33 1 29 15
M  V30 34 1 27 19
M  V30 35 1 27 22
M  V30 36 1 1 32
M  V30 37 1 1 33
M  V30 38 1 1 34
M  V30 39 1 3 35
M  V30 40 1 3 36
M  V30 41 1 4 37
M  V30 42 1 4 38
M  V30 43 1 5 39
M  V30 44 1 7 40
M  V30 45 1 7 41
M  V30 46 1 7 42
M  V30 47 1 13 43
M  V30 48 1 16 44
M  V30 49 1 17 45
M  V30 50 1 20 46
M  V30 51 1 21 47
M  V30 52 1 24 48
M  V30 53 1 25 49
M  V30 54 1 26 50
M  V30 55 1 28 51
M  V30 56 1 30 52
M  V30 57 1 30 53
M  V30 58 1 31 54
M  V30 59 1 31 55
M  V30 END BOND
M  V30 END CTAB
M  END
>  <Dataset>  (86) 
ChEMBL_Kinases

>  <Ligand_Instance>  (86) 
nan

>  <PDB_ID>  (86) 
nan

>  <Standardized_SMILES>  (86) 
CN1CCC(N(C)c2c([N+](=O)[O-])cnc3ccc(-c4c[nH]c5ncccc45)cc23)CC1

>  <Name>  (86) 
nan

>  <Pocket>  (86) 
nan

>  <ATP_Site>  (86) 
nan

>  <Peripheral>  (86) 
nan

>  <Num_H_Atoms_ProtBoundConf>  (86) 
nan

>  <Num_Resolved_Atoms>  (86) 
nan

>  <Num_Not_Resolved_Atoms>  (86) 
nan

$$$$
CHEMBL4784622
     RDKit          3D

  0  0  0  0  0  0  0  0  0  0999 V3000
M  V30 BEGIN CTAB
M  V30 COUNTS 73 80 0 0 0
M  V30 BEGIN ATOM
M  V30 1 O 3.275055 -3.847380 2.336611 0
M  V30 2 C 2.738872 -2.772389 1.967970 0
M  V30 3 C 2.800534 -3.018839 3.391635 0
M  V30 4 C 3.011844 -1.953125 4.393525 0
M  V30 5 C 1.686577 -2.687679 4.315722 0
M  V30 6 N 2.667054 -2.511288 0.602634 0
M  V30 7 C 3.074955 -3.193349 -0.595538 0
M  V30 8 C 3.002910 -1.891734 -1.286941 0
M  V30 9 C 2.149881 -1.436357 -0.197380 0
M  V30 10 C 2.489791 -1.914658 -2.683128 0
M  V30 11 C 3.497169 -0.835378 -2.998958 0
M  V30 12 O 4.336138 -1.202824 -4.075667 0
M  V30 13 C 2.996489 0.530316 -3.142609 0
M  V30 14 C 1.716752 0.992377 -3.030973 0
M  V30 15 C 1.296084 2.279145 -3.174056 0
M  V30 16 N -0.065384 2.669987 -3.039226 0
M  V30 17 C -0.972422 1.616674 -2.739321 0
M  V30 18 C -1.305930 1.197977 -1.443699 0
M  V30 19 C -2.205399 0.155687 -1.201617 0
M  V30 20 O -2.332176 -0.025840 0.123211 0
M  V30 21 C -3.023282 -0.865609 0.911188 0
M  V30 22 C -3.909045 -1.912455 0.810609 0
M  V30 23 N -4.234448 -2.330810 2.039756 0
M  V30 24 C -5.158888 -3.431421 2.240491 0
M  V30 25 C -6.470539 -3.468896 1.569927 0
M  V30 26 C -6.426719 -3.008750 3.001098 0
M  V30 27 N -3.592459 -1.593731 2.921821 0
M  V30 28 C -2.822233 -0.664383 2.288020 0
M  V30 29 C -2.056658 0.219674 3.186434 0
M  V30 30 C -2.794213 1.477082 3.609559 0
M  V30 31 C -1.885078 2.281132 2.734010 0
M  V30 32 F -2.385337 2.679157 1.514049 0
M  V30 33 F -1.242918 3.331290 3.361629 0
M  V30 34 C -0.998574 1.055474 2.546674 0
M  V30 35 C -2.747368 -0.438765 -2.322809 0
M  V30 36 C -2.415813 -0.022251 -3.595421 0
M  V30 37 N -1.544443 0.986286 -3.779603 0
M  V30 38 C 2.327197 3.180525 -3.465060 0
M  V30 39 C 3.655832 2.761957 -3.590378 0
M  V30 40 N 3.941192 1.449823 -3.424214 0
M  V30 41 C 4.215574 -1.151705 -1.677331 0
M  V30 42 H 3.296821 -4.003918 3.643772 0
M  V30 43 H 3.678546 -2.148021 5.250894 0
M  V30 44 H 2.928426 -0.880456 4.135287 0
M  V30 45 H 1.469684 -3.333877 5.182583 0
M  V30 46 H 0.782393 -2.154424 3.953924 0
M  V30 47 H 2.315933 -3.901446 -1.022212 0
M  V30 48 H 4.068217 -3.685872 -0.550253 0
M  V30 49 H 1.057890 -1.349732 -0.311627 0
M  V30 50 H 2.508253 -0.451205 0.226263 0
M  V30 51 H 2.783344 -2.898040 -3.156569 0
M  V30 52 H 1.442874 -1.729708 -2.883129 0
M  V30 53 H 3.759353 -1.636236 -4.755910 0
M  V30 54 H 0.969091 0.243459 -2.805121 0
M  V30 55 H -0.251933 3.707982 -3.178027 0
M  V30 56 H -0.757549 1.808928 -0.710156 0
M  V30 57 H -4.232978 -2.272232 -0.148142 0
M  V30 58 H -4.693373 -4.355110 2.601217 0
M  V30 59 H -6.907819 -4.472960 1.418963 0
M  V30 60 H -6.722295 -2.757404 0.762572 0
M  V30 61 H -6.774320 -3.667191 3.804430 0
M  V30 62 H -6.630524 -1.925826 3.107093 0
M  V30 63 H -1.594974 -0.336094 4.044373 0
M  V30 64 H -2.619294 1.667677 4.698143 0
M  V30 65 H -3.883539 1.497983 3.359038 0
M  V30 66 H -0.036275 1.133279 3.133450 0
M  V30 67 H -0.737721 0.794917 1.528072 0
M  V30 68 H -3.422500 -1.221406 -2.086811 0
M  V30 69 H -2.925638 -0.587344 -4.376646 0
M  V30 70 H 2.072993 4.234033 -3.594607 0
M  V30 71 H 4.386961 3.526041 -3.815251 0
M  V30 72 H 4.479252 -0.269857 -1.080382 0
M  V30 73 H 5.140858 -1.766509 -1.814747 0
M  V30 END ATOM
M  V30 BEGIN BOND
M  V30 1 2 1 2
M  V30 2 1 2 3
M  V30 3 1 3 4
M  V30 4 1 4 5
M  V30 5 1 2 6
M  V30 6 1 6 7
M  V30 7 1 7 8
M  V30 8 1 8 9
M  V30 9 1 8 10
M  V30 10 1 10 11
M  V30 11 1 11 12
M  V30 12 1 11 13
M  V30 13 2 13 14
M  V30 14 1 14 15
M  V30 15 1 15 16
M  V30 16 1 16 17
M  V30 17 2 17 18
M  V30 18 1 18 19
M  V30 19 1 19 20
M  V30 20 1 20 21
M  V30 21 2 21 22
M  V30 22 1 22 23
M  V30 23 1 23 24
M  V30 24 1 24 25
M  V30 25 1 25 26
M  V30 26 1 23 27
M  V30 27 2 27 28
M  V30 28 1 28 29
M  V30 29 1 29 30
M  V30 30 1 30 31
M  V30 31 1 31 32
M  V30 32 1 31 33
M  V30 33 1 31 34
M  V30 34 2 19 35
M  V30 35 1 35 36
M  V30 36 2 36 37
M  V30 37 2 15 38
M  V30 38 1 38 39
M  V30 39 2 39 40
M  V30 40 1 11 41
M  V30 41 1 5 3
M  V30 42 1 9 6
M  V30 43 1 40 13
M  V30 44 1 41 8
M  V30 45 1 37 17
M  V30 46 1 28 21
M  V30 47 1 34 29
M  V30 48 1 26 24
M  V30 49 1 3 42
M  V30 50 1 4 43
M  V30 51 1 4 44
M  V30 52 1 5 45
M  V30 53 1 5 46
M  V30 54 1 7 47
M  V30 55 1 7 48
M  V30 56 1 9 49
M  V30 57 1 9 50
M  V30 58 1 10 51
M  V30 59 1 10 52
M  V30 60 1 12 53
M  V30 61 1 14 54
M  V30 62 1 16 55
M  V30 63 1 18 56
M  V30 64 1 22 57
M  V30 65 1 24 58
M  V30 66 1 25 59
M  V30 67 1 25 60
M  V30 68 1 26 61
M  V30 69 1 26 62
M  V30 70 1 29 63
M  V30 71 1 30 64
M  V30 72 1 30 65
M  V30 73 1 34 66
M  V30 74 1 34 67
M  V30 75 1 35 68
M  V30 76 1 36 69
M  V30 77 1 38 70
M  V30 78 1 39 71
M  V30 79 1 41 72
M  V30 80 1 41 73
M  V30 END BOND
M  V30 END CTAB
M  END
>  <Dataset>  (87) 
ChEMBL_Kinases

>  <Ligand_Instance>  (87) 
nan

>  <PDB_ID>  (87) 
nan

>  <Standardized_SMILES>  (87) 
O=C(C1CC1)N1CC2(C1)CC(O)(c1cc(Nc3cc(Oc4cn(C5CC5)nc4C4CC(F)(F)C4)ccn3)ccn1)C2

>  <Name>  (87) 
nan

>  <Pocket>  (87) 
nan

>  <ATP_Site>  (87) 
nan

>  <Peripheral>  (87) 
nan

>  <Num_H_Atoms_ProtBoundConf>  (87) 
nan

>  <Num_Resolved_Atoms>  (87) 
nan

>  <Num_Not_Resolved_Atoms>  (87) 
nan

$$$$
CHEMBL175956
     RDKit          3D

  0  0  0  0  0  0  0  0  0  0999 V3000
M  V30 BEGIN CTAB
M  V30 COUNTS 46 51 0 0 0
M  V30 BEGIN ATOM
M  V30 1 O 1.188909 -5.346692 3.076933 0
M  V30 2 C 1.525434 -4.211192 2.629312 0
M  V30 3 N 2.847418 -3.734526 2.832260 0
M  V30 4 C 2.866984 -2.447790 2.205427 0
M  V30 5 O 3.900413 -1.700733 2.181258 0
M  V30 6 C 1.528290 -2.177444 1.628338 0
M  V30 7 C 1.280558 -0.943202 0.905667 0
M  V30 8 C 1.696407 0.308216 1.384921 0
M  V30 9 N 1.359341 1.304418 0.528467 0
M  V30 10 C 1.648895 2.681051 0.736302 0
M  V30 11 C 2.538920 3.121663 -0.242561 0
M  V30 12 C 2.985950 4.445848 -0.256632 0
M  V30 13 C 2.500824 5.264647 0.735098 0
M  V30 14 N 1.643738 4.835980 1.675894 0
M  V30 15 C 1.198760 3.550933 1.704779 0
M  V30 16 C 0.725692 0.737580 -0.511798 0
M  V30 17 C 0.177439 1.232469 -1.656450 0
M  V30 18 C -0.431950 0.478287 -2.626746 0
M  V30 19 C -0.449273 -0.877236 -2.345340 0
M  V30 20 C 0.083742 -1.456490 -1.210772 0
M  V30 21 C 0.682230 -0.625097 -0.278172 0
M  V30 22 C 0.761158 -3.217439 1.887152 0
M  V30 23 C -0.635137 -3.441265 1.569428 0
M  V30 24 N -1.099755 -4.630940 1.073199 0
M  V30 25 N -2.391057 -4.655117 0.856430 0
M  V30 26 C -2.875245 -3.451955 1.204377 0
M  V30 27 C -4.140779 -2.895176 1.202356 0
M  V30 28 C -4.303635 -1.599982 1.640854 0
M  V30 29 C -3.207807 -0.854171 2.083879 0
M  V30 30 C -1.930731 -1.416884 2.084753 0
M  V30 31 C -1.805177 -2.714323 1.638833 0
M  V30 32 H 3.644806 -4.180612 3.315140 0
M  V30 33 H 2.226020 0.484137 2.320395 0
M  V30 34 H 2.972603 2.540794 -1.064330 0
M  V30 35 H 3.685435 4.830502 -1.012890 0
M  V30 36 H 2.792959 6.314614 0.809335 0
M  V30 37 H 0.520646 3.076323 2.398381 0
M  V30 38 H 0.248567 2.320058 -1.786376 0
M  V30 39 H -0.855430 0.906011 -3.521608 0
M  V30 40 H -0.911912 -1.557513 -3.057369 0
M  V30 41 H 0.053359 -2.520169 -1.038399 0
M  V30 42 H -0.555592 -5.501284 0.854395 0
M  V30 43 H -4.990407 -3.500791 0.848719 0
M  V30 44 H -5.304141 -1.140573 1.643001 0
M  V30 45 H -3.401053 0.150269 2.409874 0
M  V30 46 H -1.108117 -0.831672 2.432185 0
M  V30 END ATOM
M  V30 BEGIN BOND
M  V30 1 2 1 2
M  V30 2 1 2 3
M  V30 3 1 3 4
M  V30 4 2 4 5
M  V30 5 1 4 6
M  V30 6 1 6 7
M  V30 7 2 7 8
M  V30 8 1 8 9
M  V30 9 1 9 10
M  V30 10 2 10 11
M  V30 11 1 11 12
M  V30 12 2 12 13
M  V30 13 1 13 14
M  V30 14 2 14 15
M  V30 15 1 9 16
M  V30 16 2 16 17
M  V30 17 1 17 18
M  V30 18 2 18 19
M  V30 19 1 19 20
M  V30 20 2 20 21
M  V30 21 2 6 22
M  V30 22 1 22 23
M  V30 23 1 23 24
M  V30 24 1 24 25
M  V30 25 2 25 26
M  V30 26 1 26 27
M  V30 27 2 27 28
M  V30 28 1 28 29
M  V30 29 2 29 30
M  V30 30 1 30 31
M  V30 31 1 22 2
M  V30 32 2 31 23
M  V30 33 1 21 7
M  V30 34 1 31 26
M  V30 35 1 15 10
M  V30 36 1 21 16
M  V30 37 1 3 32
M  V30 38 1 8 33
M  V30 39 1 11 34
M  V30 40 1 12 35
M  V30 41 1 13 36
M  V30 42 1 15 37
M  V30 43 1 17 38
M  V30 44 1 18 39
M  V30 45 1 19 40
M  V30 46 1 20 41
M  V30 47 1 24 42
M  V30 48 1 27 43
M  V30 49 1 28 44
M  V30 50 1 29 45
M  V30 51 1 30 46
M  V30 END BOND
M  V30 END CTAB
M  END
>  <Dataset>  (88) 
ChEMBL_Kinases

>  <Ligand_Instance>  (88) 
nan

>  <PDB_ID>  (88) 
nan

>  <Standardized_SMILES>  (88) 
O=C1NC(=O)C(c2cn(-c3cccnc3)c3ccccc23)=C1c1[nH]nc2ccccc12

>  <Name>  (88) 
nan

>  <Pocket>  (88) 
nan

>  <ATP_Site>  (88) 
nan

>  <Peripheral>  (88) 
nan

>  <Num_H_Atoms_ProtBoundConf>  (88) 
nan

>  <Num_Resolved_Atoms>  (88) 
nan

>  <Num_Not_Resolved_Atoms>  (88) 
nan

$$$$
CHEMBL495696
     RDKit          3D

  0  0  0  0  0  0  0  0  0  0999 V3000
M  V30 BEGIN CTAB
M  V30 COUNTS 35 38 0 0 0
M  V30 BEGIN ATOM
M  V30 1 N 5.395975 -4.730649 4.366963 0
M  V30 2 C 4.699623 -4.259871 3.552931 0
M  V30 3 C 3.848081 -3.691082 2.541024 0
M  V30 4 C 3.143801 -4.583163 1.751335 0
M  V30 5 C 2.308454 -4.061187 0.767854 0
M  V30 6 C 2.190390 -2.686083 0.590839 0
M  V30 7 C 2.919467 -1.827007 1.409857 0
M  V30 8 N 2.760702 -0.433061 1.180163 0
M  V30 9 C 1.798831 -0.015333 0.197126 0
M  V30 10 N 2.066414 0.020364 -1.117675 0
M  V30 11 C 1.117992 0.435001 -2.008737 0
M  V30 12 C -0.073448 0.791087 -1.427317 0
M  V30 13 C -0.429709 0.786819 -0.113902 0
M  V30 14 C -1.644761 1.152250 0.557820 0
M  V30 15 C -1.717566 1.082860 1.954793 0
M  V30 16 N -2.938193 1.472662 2.348922 0
M  V30 17 N -3.681419 1.795599 1.314461 0
M  V30 18 N -4.923407 2.225601 1.196351 0
M  V30 19 C -5.450005 2.484466 -0.012111 0
M  V30 20 C -4.684164 2.301566 -1.170023 0
M  V30 21 C -3.396308 1.851722 -0.992541 0
M  V30 22 C -2.899391 1.600976 0.246130 0
M  V30 23 N 0.609181 0.354409 0.633549 0
M  V30 24 C 3.754385 -2.313685 2.391761 0
M  V30 25 H 3.175036 -5.645377 1.819597 0
M  V30 26 H 1.720814 -4.716639 0.104265 0
M  V30 27 H 1.532282 -2.343792 -0.181768 0
M  V30 28 H 3.346789 0.248143 1.734423 0
M  V30 29 H 1.280456 0.478486 -3.058257 0
M  V30 30 H -0.802142 1.115359 -2.138939 0
M  V30 31 H -1.037630 0.795539 2.767497 0
M  V30 32 H -6.481272 2.843215 -0.163943 0
M  V30 33 H -5.086978 2.503691 -2.156061 0
M  V30 34 H -2.841796 1.723246 -1.877344 0
M  V30 35 H 4.313682 -1.627589 3.020246 0
M  V30 END ATOM
M  V30 BEGIN BOND
M  V30 1 3 1 2
M  V30 2 1 2 3
M  V30 3 2 3 4
M  V30 4 1 4 5
M  V30 5 2 5 6
M  V30 6 1 6 7
M  V30 7 1 7 8
M  V30 8 1 8 9
M  V30 9 2 9 10
M  V30 10 1 10 11
M  V30 11 2 11 12
M  V30 12 1 12 13
M  V30 13 1 13 14
M  V30 14 1 14 15
M  V30 15 2 15 16
M  V30 16 1 16 17
M  V30 17 1 17 18
M  V30 18 2 18 19
M  V30 19 1 19 20
M  V30 20 2 20 21
M  V30 21 1 21 22
M  V30 22 2 13 23
M  V30 23 2 7 24
M  V30 24 1 24 3
M  V30 25 1 23 9
M  V30 26 2 22 14
M  V30 27 1 22 17
M  V30 28 1 4 25
M  V30 29 1 5 26
M  V30 30 1 6 27
M  V30 31 1 8 28
M  V30 32 1 11 29
M  V30 33 1 12 30
M  V30 34 1 15 31
M  V30 35 1 19 32
M  V30 36 1 20 33
M  V30 37 1 21 34
M  V30 38 1 24 35
M  V30 END BOND
M  V30 END CTAB
M  END
>  <Dataset>  (89) 
ChEMBL_Kinases

>  <Ligand_Instance>  (89) 
nan

>  <PDB_ID>  (89) 
nan

>  <Standardized_SMILES>  (89) 
N#Cc1cccc(Nc2nccc(-c3cnn4ncccc34)n2)c1

>  <Name>  (89) 
GW778894X

>  <Pocket>  (89) 
nan

>  <ATP_Site>  (89) 
nan

>  <Peripheral>  (89) 
nan

>  <Num_H_Atoms_ProtBoundConf>  (89) 
nan

>  <Num_Resolved_Atoms>  (89) 
nan

>  <Num_Not_Resolved_Atoms>  (89) 
nan

$$$$
CHEMBL4784784
     RDKit          3D

  0  0  0  0  0  0  0  0  0  0999 V3000
M  V30 BEGIN CTAB
M  V30 COUNTS 63 68 0 0 0
M  V30 BEGIN ATOM
M  V30 1 C 2.442906 -1.050108 4.115903 0
M  V30 2 C 3.694931 -1.196732 3.256079 0
M  V30 3 C 3.603896 -2.466121 2.418150 0
M  V30 4 O 4.840018 -1.225932 4.076539 0
M  V30 5 C 5.661068 -0.174798 3.728216 0
M  V30 6 O 6.759690 -0.000072 4.307128 0
M  V30 7 C 5.074679 0.608261 2.675932 0
M  V30 8 C 5.464014 1.728346 1.999607 0
M  V30 9 C 4.629721 2.231941 1.035926 0
M  V30 10 C 3.408827 1.695720 0.683780 0
M  V30 11 N 2.647395 2.310451 -0.318187 0
M  V30 12 C 1.380741 1.939927 -0.838579 0
M  V30 13 N 0.827479 2.710883 -1.792319 0
M  V30 14 C -0.361100 2.458598 -2.349977 0
M  V30 15 C -1.097864 1.361236 -1.960458 0
M  V30 16 C -2.384613 1.140479 -2.610725 0
M  V30 17 N -2.889308 1.947926 -3.560134 0
M  V30 18 N -4.059391 1.517125 -3.973134 0
M  V30 19 C -4.324903 0.423322 -3.293580 0
M  V30 20 C -5.530279 -0.467705 -3.372195 0
M  V30 21 C -5.340681 -1.929947 -3.212897 0
M  V30 22 C -5.887014 -1.121518 -2.081301 0
M  V30 23 O -3.324965 0.240399 -2.512658 0
M  V30 24 C -0.551170 0.555846 -0.984150 0
M  V30 25 N -1.258020 -0.573015 -0.531325 0
M  V30 26 C -0.814181 -1.509166 0.471070 0 CFG=2
M  V30 27 C 0.386640 -2.302881 0.091194 0
M  V30 28 O 0.724096 -3.160915 1.142083 0
M  V30 29 C -1.945532 -2.288222 1.003621 0
M  V30 30 C -2.160750 -3.614315 1.231177 0
M  V30 31 C -3.333206 -4.068674 1.754517 0
M  V30 32 C -4.371968 -3.242400 2.088197 0
M  V30 33 C -4.181349 -1.884591 1.867066 0
M  V30 34 C -2.980506 -1.409481 1.329922 0
M  V30 35 N 0.649906 0.875255 -0.471253 0
M  V30 36 C 3.087635 0.569698 1.409174 0
M  V30 37 C 3.883248 -0.003940 2.405269 0
M  V30 38 H 1.586871 -1.229660 3.429158 0
M  V30 39 H 2.474123 -1.722195 4.989261 0
M  V30 40 H 2.386793 0.028997 4.394323 0
M  V30 41 H 4.620632 -2.932481 2.372217 0
M  V30 42 H 3.273155 -2.162237 1.389283 0
M  V30 43 H 2.851671 -3.112644 2.901152 0
M  V30 44 H 6.409605 2.170707 2.250173 0
M  V30 45 H 5.014526 3.121796 0.548349 0
M  V30 46 H 3.079415 3.181775 -0.753853 0
M  V30 47 H -0.682478 3.178395 -3.116457 0
M  V30 48 H -6.305897 -0.151026 -4.083802 0
M  V30 49 H -4.339638 -2.378625 -3.071824 0
M  V30 50 H -6.056888 -2.602885 -3.727459 0
M  V30 51 H -5.228379 -0.983176 -1.195538 0
M  V30 52 H -6.967675 -1.163353 -1.841425 0
M  V30 53 H -2.191709 -0.814245 -0.913969 0
M  V30 54 H -0.482442 -0.857451 1.341537 0
M  V30 55 H 0.163535 -3.010160 -0.765976 0
M  V30 56 H 1.233811 -1.659390 -0.138434 0
M  V30 57 H 1.085974 -4.017280 0.864294 0
M  V30 58 H -1.308386 -4.213268 0.944832 0
M  V30 59 H -3.436357 -5.131462 1.908786 0
M  V30 60 H -5.305156 -3.613451 2.505745 0
M  V30 61 H -5.024193 -1.258084 2.142474 0
M  V30 62 H -3.019723 -0.322527 1.231063 0
M  V30 63 H 2.143259 0.096483 1.188702 0
M  V30 END ATOM
M  V30 BEGIN BOND
M  V30 1 1 1 2
M  V30 2 1 2 3
M  V30 3 1 2 4
M  V30 4 1 4 5
M  V30 5 2 5 6
M  V30 6 1 5 7
M  V30 7 2 7 8
M  V30 8 1 8 9
M  V30 9 2 9 10
M  V30 10 1 10 11
M  V30 11 1 11 12
M  V30 12 2 12 13
M  V30 13 1 13 14
M  V30 14 2 14 15
M  V30 15 1 15 16
M  V30 16 2 16 17
M  V30 17 1 17 18
M  V30 18 2 18 19
M  V30 19 1 19 20
M  V30 20 1 20 21
M  V30 21 1 21 22
M  V30 22 1 19 23
M  V30 23 1 15 24
M  V30 24 1 24 25
M  V30 25 1 25 26
M  V30 26 1 26 27
M  V30 27 1 27 28
M  V30 28 1 26 29
M  V30 29 2 29 30
M  V30 30 1 30 31
M  V30 31 2 31 32
M  V30 32 1 32 33
M  V30 33 2 33 34
M  V30 34 2 24 35
M  V30 35 1 10 36
M  V30 36 2 36 37
M  V30 37 1 37 2
M  V30 38 1 37 7
M  V30 39 1 35 12
M  V30 40 1 23 16
M  V30 41 1 34 29
M  V30 42 1 22 20
M  V30 43 1 1 38
M  V30 44 1 1 39
M  V30 45 1 1 40
M  V30 46 1 3 41
M  V30 47 1 3 42
M  V30 48 1 3 43
M  V30 49 1 8 44
M  V30 50 1 9 45
M  V30 51 1 11 46
M  V30 52 1 14 47
M  V30 53 1 20 48
M  V30 54 1 21 49
M  V30 55 1 21 50
M  V30 56 1 22 51
M  V30 57 1 22 52
M  V30 58 1 25 53
M  V30 59 1 26 54 CFG=1
M  V30 60 1 27 55
M  V30 61 1 27 56
M  V30 62 1 28 57
M  V30 63 1 30 58
M  V30 64 1 31 59
M  V30 65 1 32 60
M  V30 66 1 33 61
M  V30 67 1 34 62
M  V30 68 1 36 63
M  V30 END BOND
M  V30 END CTAB
M  END
>  <Dataset>  (90) 
ChEMBL_Kinases

>  <Ligand_Instance>  (90) 
nan

>  <PDB_ID>  (90) 
nan

>  <Standardized_SMILES>  (90) 
CC1(C)OC(=O)c2ccc(Nc3ncc(-c4nnc(C5CC5)o4)c(N[C@H](CO)c4ccccc4)n3)cc21

>  <Name>  (90) 
nan

>  <Pocket>  (90) 
nan

>  <ATP_Site>  (90) 
nan

>  <Peripheral>  (90) 
nan

>  <Num_H_Atoms_ProtBoundConf>  (90) 
nan

>  <Num_Resolved_Atoms>  (90) 
nan

>  <Num_Not_Resolved_Atoms>  (90) 
nan

$$$$
CHEMBL4785028
     RDKit          3D

  0  0  0  0  0  0  0  0  0  0999 V3000
M  V30 BEGIN CTAB
M  V30 COUNTS 47 50 0 0 0
M  V30 BEGIN ATOM
M  V30 1 C 2.699602 -7.710272 0.998658 0
M  V30 2 C 2.559407 -6.275521 0.680309 0
M  V30 3 O 1.986072 -5.999512 -0.381813 0
M  V30 4 N 3.024336 -5.226951 1.486954 0
M  V30 5 C 2.962006 -3.825055 1.312418 0
M  V30 6 C 3.502677 -2.997276 2.267031 0
M  V30 7 C 3.469462 -1.625797 2.146135 0
M  V30 8 C 2.889855 -1.012540 1.056575 0
M  V30 9 C 2.333263 -1.804449 0.071191 0
M  V30 10 C 1.699522 -1.181375 -1.118105 0
M  V30 11 N 0.293493 -0.904770 -0.879346 0
M  V30 12 C -0.024394 0.292184 -0.359107 0
M  V30 13 C -1.325280 0.698304 -0.075037 0
M  V30 14 C -1.649060 2.004403 0.488509 0
M  V30 15 C -0.959629 3.183215 0.268605 0
M  V30 16 C -1.387426 4.353543 0.875038 0
M  V30 17 C -2.490638 4.375991 1.698540 0
M  V30 18 C -3.136590 5.369313 2.422874 0
M  V30 19 N -2.768497 6.743103 2.489263 0
M  V30 20 N -4.176196 4.778307 3.047663 0
M  V30 21 N -4.231156 3.488100 2.769665 0
M  V30 22 C -3.204168 3.219618 1.941828 0
M  V30 23 C -2.756955 2.067952 1.325630 0
M  V30 24 C -2.362058 -0.191825 -0.347025 0
M  V30 25 C -2.038063 -1.421392 -0.881260 0
M  V30 26 C -0.711139 -1.759654 -1.139894 0
M  V30 27 O -0.427561 -2.883507 -1.627338 0
M  V30 28 C 2.396292 -3.167584 0.246754 0
M  V30 29 H 2.872347 -7.872296 2.063070 0
M  V30 30 H 3.546574 -8.183380 0.447535 0
M  V30 31 H 1.750395 -8.222494 0.709002 0
M  V30 32 H 3.492745 -5.592533 2.360534 0
M  V30 33 H 3.968037 -3.434335 3.140217 0
M  V30 34 H 3.918357 -1.049383 2.943193 0
M  V30 35 H 2.884324 0.073395 0.998037 0
M  V30 36 H 1.817225 -1.864645 -1.982863 0
M  V30 37 H 2.225495 -0.214403 -1.299741 0
M  V30 38 H 0.754830 1.002050 -0.137250 0
M  V30 39 H -0.111115 3.114376 -0.377632 0
M  V30 40 H -0.841297 5.270457 0.696885 0
M  V30 41 H -3.214519 7.265025 1.726586 0
M  V30 42 H -2.128658 7.090955 3.241192 0
M  V30 43 H -4.917760 2.783217 3.104372 0
M  V30 44 H -3.339822 1.178819 1.537848 0
M  V30 45 H -3.399930 0.016543 -0.167649 0
M  V30 46 H -2.802422 -2.156115 -1.114470 0
M  V30 47 H 1.948105 -3.736076 -0.551987 0
M  V30 END ATOM
M  V30 BEGIN BOND
M  V30 1 1 1 2
M  V30 2 2 2 3
M  V30 3 1 2 4
M  V30 4 1 4 5
M  V30 5 2 5 6
M  V30 6 1 6 7
M  V30 7 2 7 8
M  V30 8 1 8 9
M  V30 9 1 9 10
M  V30 10 1 10 11
M  V30 11 1 11 12
M  V30 12 2 12 13
M  V30 13 1 13 14
M  V30 14 2 14 15
M  V30 15 1 15 16
M  V30 16 2 16 17
M  V30 17 1 17 18
M  V30 18 1 18 19
M  V30 19 2 18 20
M  V30 20 1 20 21
M  V30 21 1 21 22
M  V30 22 2 22 23
M  V30 23 1 13 24
M  V30 24 2 24 25
M  V30 25 1 25 26
M  V30 26 2 26 27
M  V30 27 2 9 28
M  V30 28 1 28 5
M  V30 29 1 26 11
M  V30 30 1 23 14
M  V30 31 1 22 17
M  V30 32 1 1 29
M  V30 33 1 1 30
M  V30 34 1 1 31
M  V30 35 1 4 32
M  V30 36 1 6 33
M  V30 37 1 7 34
M  V30 38 1 8 35
M  V30 39 1 10 36
M  V30 40 1 10 37
M  V30 41 1 12 38
M  V30 42 1 15 39
M  V30 43 1 16 40
M  V30 44 1 19 41
M  V30 45 1 19 42
M  V30 46 1 21 43
M  V30 47 1 23 44
M  V30 48 1 24 45
M  V30 49 1 25 46
M  V30 50 1 28 47
M  V30 END BOND
M  V30 END CTAB
M  END
>  <Dataset>  (91) 
ChEMBL_Kinases

>  <Ligand_Instance>  (91) 
nan

>  <PDB_ID>  (91) 
nan

>  <Standardized_SMILES>  (91) 
CC(=O)Nc1cccc(Cn2cc(-c3ccc4c(N)n[nH]c4c3)ccc2=O)c1

>  <Name>  (91) 
nan

>  <Pocket>  (91) 
nan

>  <ATP_Site>  (91) 
nan

>  <Peripheral>  (91) 
nan

>  <Num_H_Atoms_ProtBoundConf>  (91) 
nan

>  <Num_Resolved_Atoms>  (91) 
nan

>  <Num_Not_Resolved_Atoms>  (91) 
nan

$$$$
CHEMBL4785041
     RDKit          3D

  0  0  0  0  0  0  0  0  0  0999 V3000
M  V30 BEGIN CTAB
M  V30 COUNTS 47 50 0 0 0
M  V30 BEGIN ATOM
M  V30 1 C 1.499156 -4.064708 2.758869 0
M  V30 2 O 2.620963 -4.343938 1.949179 0
M  V30 3 C 3.368025 -3.418162 1.267792 0
M  V30 4 C 4.445388 -3.888029 0.515978 0
M  V30 5 C 5.259804 -3.046221 -0.205429 0
M  V30 6 C 5.022392 -1.680698 -0.201151 0
M  V30 7 C 3.963096 -1.188191 0.534152 0
M  V30 8 C 3.573443 0.263619 0.642159 0 CFG=1
M  V30 9 C 4.185628 0.949687 -0.564368 0
M  V30 10 N 2.132531 0.274599 0.478892 0
M  V30 11 C 1.233344 0.798474 1.443825 0
M  V30 12 O 1.761443 1.269332 2.483496 0
M  V30 13 C -0.211795 0.823758 1.309573 0
M  V30 14 C -0.921035 1.375712 2.356840 0
M  V30 15 C -2.317909 1.430797 2.290402 0
M  V30 16 C -2.919401 0.921597 1.162353 0
M  V30 17 C -2.216286 0.368885 0.112723 0
M  V30 18 C -0.848621 0.322401 0.193146 0
M  V30 19 C -2.865020 -0.181240 -1.105822 0
M  V30 20 O -4.256462 -0.085993 -1.088673 0
M  V30 21 C -5.028342 0.453898 -0.074355 0
M  V30 22 C -6.397647 0.455065 -0.248437 0
M  V30 23 N -7.105152 0.990616 0.765231 0
M  V30 24 C -6.542331 1.495774 1.879923 0
M  V30 25 C -5.154538 1.478792 2.023759 0
M  V30 26 C -4.366823 0.947055 1.028306 0
M  V30 27 C 3.158189 -2.064169 1.252763 0
M  V30 28 H 1.805032 -3.871197 3.828021 0
M  V30 29 H 0.934290 -3.167751 2.436393 0
M  V30 30 H 0.818605 -4.936893 2.722572 0
M  V30 31 H 4.692651 -4.943921 0.464676 0
M  V30 32 H 6.099947 -3.421152 -0.790614 0
M  V30 33 H 5.612838 -0.949126 -0.739676 0
M  V30 34 H 3.899549 0.701983 1.588907 0
M  V30 35 H 3.707070 1.933469 -0.760580 0
M  V30 36 H 3.984070 0.334666 -1.460564 0
M  V30 37 H 5.283258 1.045724 -0.468830 0
M  V30 38 H 1.738581 -0.124962 -0.396389 0
M  V30 39 H -0.438675 1.778872 3.250772 0
M  V30 40 H -2.832647 1.866064 3.122022 0
M  V30 41 H -0.286756 -0.108436 -0.623261 0
M  V30 42 H -2.494914 -1.230427 -1.256207 0
M  V30 43 H -2.421703 0.379066 -1.980036 0
M  V30 44 H -6.847432 0.047023 -1.148205 0
M  V30 45 H -7.263968 1.883140 2.586051 0
M  V30 46 H -4.788596 1.901309 2.942576 0
M  V30 47 H 2.316846 -1.720435 1.842845 0
M  V30 END ATOM
M  V30 BEGIN BOND
M  V30 1 1 1 2
M  V30 2 1 2 3
M  V30 3 2 3 4
M  V30 4 1 4 5
M  V30 5 2 5 6
M  V30 6 1 6 7
M  V30 7 1 7 8
M  V30 8 1 8 9
M  V30 9 1 8 10
M  V30 10 1 10 11
M  V30 11 2 11 12
M  V30 12 1 11 13
M  V30 13 2 13 14
M  V30 14 1 14 15
M  V30 15 2 15 16
M  V30 16 1 16 17
M  V30 17 2 17 18
M  V30 18 1 17 19
M  V30 19 1 19 20
M  V30 20 1 20 21
M  V30 21 2 21 22
M  V30 22 1 22 23
M  V30 23 2 23 24
M  V30 24 1 24 25
M  V30 25 2 25 26
M  V30 26 2 7 27
M  V30 27 1 27 3
M  V30 28 1 18 13
M  V30 29 1 26 21
M  V30 30 1 26 16
M  V30 31 1 1 28
M  V30 32 1 1 29
M  V30 33 1 1 30
M  V30 34 1 4 31
M  V30 35 1 5 32
M  V30 36 1 6 33
M  V30 37 1 8 34 CFG=1
M  V30 38 1 9 35
M  V30 39 1 9 36
M  V30 40 1 9 37
M  V30 41 1 10 38
M  V30 42 1 14 39
M  V30 43 1 15 40
M  V30 44 1 18 41
M  V30 45 1 19 42
M  V30 46 1 19 43
M  V30 47 1 22 44
M  V30 48 1 24 45
M  V30 49 1 25 46
M  V30 50 1 27 47
M  V30 END BOND
M  V30 END CTAB
M  END
>  <Dataset>  (92) 
ChEMBL_Kinases

>  <Ligand_Instance>  (92) 
nan

>  <PDB_ID>  (92) 
nan

>  <Standardized_SMILES>  (92) 
COc1cccc([C@@H](C)NC(=O)c2ccc3c(c2)COc2cnccc2-3)c1

>  <Name>  (92) 
nan

>  <Pocket>  (92) 
nan

>  <ATP_Site>  (92) 
nan

>  <Peripheral>  (92) 
nan

>  <Num_H_Atoms_ProtBoundConf>  (92) 
nan

>  <Num_Resolved_Atoms>  (92) 
nan

>  <Num_Not_Resolved_Atoms>  (92) 
nan

$$$$
CHEMBL4784364
     RDKit          3D

  0  0  0  0  0  0  0  0  0  0999 V3000
M  V30 BEGIN CTAB
M  V30 COUNTS 45 48 0 0 0
M  V30 BEGIN ATOM
M  V30 1 C 0.796766 -4.497948 -1.058744 0
M  V30 2 C 0.762608 -3.190804 -0.357074 0
M  V30 3 C 1.904902 -2.424609 -0.446029 0
M  V30 4 C 1.921067 -1.207701 0.197898 0
M  V30 5 N 3.084106 -0.390145 0.132046 0
M  V30 6 C 2.951732 0.887000 -0.471056 0
M  V30 7 C 3.408177 0.889880 -1.795107 0
M  V30 8 C 3.390575 1.998292 -2.628879 0
M  V30 9 N 2.903196 3.190486 -2.169599 0
M  V30 10 C 2.464161 3.159021 -0.876053 0
M  V30 11 N 1.908590 4.323793 -0.237533 0
M  V30 12 N 2.482257 2.093013 -0.076505 0
M  V30 13 C 0.773541 -0.830839 0.902775 0
M  V30 14 O 0.891516 0.291252 1.453096 0
M  V30 15 N -0.363557 -1.545059 1.018744 0
M  V30 16 C -0.323056 -2.721095 0.368245 0
M  V30 17 C -1.594182 -3.419162 0.447654 0
M  V30 18 O -2.119497 -4.482020 0.065411 0
M  V30 19 N -2.387849 -2.524111 1.211440 0
M  V30 20 C -1.608993 -1.356743 1.719243 0
M  V30 21 C -2.333276 -0.103846 1.441302 0
M  V30 22 C -2.417980 0.914153 2.505827 0
M  V30 23 C -1.467792 0.827236 3.643102 0
M  V30 24 C -0.966883 -0.538152 3.981341 0
M  V30 25 C -1.542228 -1.639988 3.198331 0
M  V30 26 H -0.066972 -5.115494 -0.813404 0
M  V30 27 H 0.852747 -4.328453 -2.169891 0
M  V30 28 H 1.695256 -5.096668 -0.757174 0
M  V30 29 H 2.759182 -2.753420 -0.996803 0
M  V30 30 H 4.030681 -0.647341 0.487646 0
M  V30 31 H 3.829329 0.011790 -2.313518 0
M  V30 32 H 3.743836 1.994717 -3.647185 0
M  V30 33 H 0.940546 4.514041 -0.609451 0
M  V30 34 H 2.062873 5.079632 0.461711 0
M  V30 35 H -3.393303 -2.516977 1.487559 0
M  V30 36 H -1.926020 0.310340 0.468506 0
M  V30 37 H -3.389418 -0.382432 1.145756 0
M  V30 38 H -2.246136 1.923222 2.016864 0
M  V30 39 H -3.474299 1.018107 2.891695 0
M  V30 40 H -2.001333 1.206827 4.566134 0
M  V30 41 H -0.621190 1.533736 3.528307 0
M  V30 42 H 0.145278 -0.569798 3.916335 0
M  V30 43 H -1.148464 -0.801934 5.078682 0
M  V30 44 H -0.899564 -2.561112 3.304599 0
M  V30 45 H -2.582098 -1.893692 3.503902 0
M  V30 END ATOM
M  V30 BEGIN BOND
M  V30 1 1 1 2
M  V30 2 1 2 3
M  V30 3 2 3 4
M  V30 4 1 4 5
M  V30 5 1 5 6
M  V30 6 2 6 7
M  V30 7 1 7 8
M  V30 8 2 8 9
M  V30 9 1 9 10
M  V30 10 1 10 11
M  V30 11 2 10 12
M  V30 12 1 4 13
M  V30 13 2 13 14
M  V30 14 1 13 15
M  V30 15 1 15 16
M  V30 16 1 16 17
M  V30 17 2 17 18
M  V30 18 1 17 19
M  V30 19 1 19 20
M  V30 20 1 20 21
M  V30 21 1 21 22
M  V30 22 1 22 23
M  V30 23 1 23 24
M  V30 24 1 24 25
M  V30 25 2 16 2
M  V30 26 1 25 20
M  V30 27 1 12 6
M  V30 28 1 20 15
M  V30 29 1 1 26
M  V30 30 1 1 27
M  V30 31 1 1 28
M  V30 32 1 3 29
M  V30 33 1 5 30
M  V30 34 1 7 31
M  V30 35 1 8 32
M  V30 36 1 11 33
M  V30 37 1 11 34
M  V30 38 1 19 35
M  V30 39 1 21 36
M  V30 40 1 21 37
M  V30 41 1 22 38
M  V30 42 1 22 39
M  V30 43 1 23 40
M  V30 44 1 23 41
M  V30 45 1 24 42
M  V30 46 1 24 43
M  V30 47 1 25 44
M  V30 48 1 25 45
M  V30 END BOND
M  V30 END CTAB
M  END
>  <Dataset>  (93) 
ChEMBL_Kinases

>  <Ligand_Instance>  (93) 
nan

>  <PDB_ID>  (93) 
nan

>  <Standardized_SMILES>  (93) 
Cc1cc(Nc2ccnc(N)n2)c(=O)n2c1C(=O)NC21CCCCC1

>  <Name>  (93) 
nan

>  <Pocket>  (93) 
nan

>  <ATP_Site>  (93) 
nan

>  <Peripheral>  (93) 
nan

>  <Num_H_Atoms_ProtBoundConf>  (93) 
nan

>  <Num_Resolved_Atoms>  (93) 
nan

>  <Num_Not_Resolved_Atoms>  (93) 
nan

$$$$
CHEMBL4781668
     RDKit          3D

  0  0  0  0  0  0  0  0  0  0999 V3000
M  V30 BEGIN CTAB
M  V30 COUNTS 56 59 0 0 0
M  V30 BEGIN ATOM
M  V30 1 C 5.409183 -4.970910 3.928845 0
M  V30 2 C 5.753286 -3.835709 3.342554 0
M  V30 3 C 5.346632 -3.708120 1.973914 0
M  V30 4 O 4.959689 -4.827727 2.410545 0
M  V30 5 N 5.098486 -3.283721 0.652995 0
M  V30 6 C 5.529782 -2.016644 0.139542 0
M  V30 7 C 4.565252 -1.494885 -0.929649 0
M  V30 8 N 3.259867 -2.025126 -0.592289 0
M  V30 9 C 2.182721 -1.294515 -0.026014 0
M  V30 10 C 2.278151 0.039046 0.285363 0
M  V30 11 C 1.205186 0.739782 0.842785 0
M  V30 12 C -0.018468 0.111974 1.109512 0
M  V30 13 C -1.095721 0.940873 1.710032 0 CFG=2
M  V30 14 C -1.707135 0.245905 2.885896 0
M  V30 15 C -2.121681 1.345290 0.680083 0
M  V30 16 O -2.342741 2.576874 0.399907 0
M  V30 17 N -2.949317 0.500114 -0.090596 0
M  V30 18 C -3.860176 1.079883 -1.017185 0
M  V30 19 C -5.130545 1.390062 -0.568615 0
M  V30 20 C -5.824836 1.933468 -1.629776 0
M  V30 21 C -7.249978 2.422222 -1.617622 0
M  V30 22 C -7.687744 3.126068 -0.316824 0
M  V30 23 C -8.191214 1.748625 -0.690858 0
M  V30 24 N -4.973606 1.943361 -2.690961 0
M  V30 25 N -3.801048 1.432459 -2.320201 0
M  V30 26 C -0.085590 -1.226024 0.787351 0
M  V30 27 C 0.981118 -1.904403 0.237757 0
M  V30 28 C 3.233743 -3.435187 -0.925524 0
M  V30 29 C 4.368861 -4.169991 -0.231315 0
M  V30 30 H 5.164447 -5.870976 4.475891 0
M  V30 31 H 5.150799 -5.873126 4.443789 0
M  V30 32 H 6.300602 -3.099271 3.908935 0
M  V30 33 H 6.555877 -2.123445 -0.288561 0
M  V30 34 H 5.629181 -1.230982 0.930312 0
M  V30 35 H 4.963328 -1.894191 -1.890649 0
M  V30 36 H 4.557036 -0.403214 -0.899182 0
M  V30 37 H 3.169016 0.603466 0.120224 0
M  V30 38 H 1.352237 1.808946 1.067010 0
M  V30 39 H -0.607034 1.894337 2.017489 0
M  V30 40 H -2.684632 -0.243829 2.656095 0
M  V30 41 H -1.806126 0.911843 3.779924 0
M  V30 42 H -1.038129 -0.587812 3.187907 0
M  V30 43 H -2.847245 -0.525870 0.065831 0
M  V30 44 H -5.605397 1.273349 0.411084 0
M  V30 45 H -7.662061 2.835112 -2.557872 0
M  V30 46 H -6.942243 3.151697 0.502496 0
M  V30 47 H -8.364002 3.999485 -0.467050 0
M  V30 48 H -9.252986 1.718356 -0.971671 0
M  V30 49 H -7.861428 0.899394 -0.034122 0
M  V30 50 H -5.191060 2.295704 -3.660130 0
M  V30 51 H -1.027259 -1.713008 0.997725 0
M  V30 52 H 0.771098 -2.944347 0.042867 0
M  V30 53 H 3.466683 -3.498347 -2.030796 0
M  V30 54 H 2.276373 -3.930712 -0.809622 0
M  V30 55 H 3.937658 -5.017152 0.330899 0
M  V30 56 H 5.086614 -4.624317 -0.945631 0
M  V30 END ATOM
M  V30 BEGIN BOND
M  V30 1 2 1 2
M  V30 2 1 2 3
M  V30 3 2 3 4
M  V30 4 1 3 5
M  V30 5 1 5 6
M  V30 6 1 6 7
M  V30 7 1 7 8
M  V30 8 1 8 9
M  V30 9 2 9 10
M  V30 10 1 10 11
M  V30 11 2 11 12
M  V30 12 1 12 13
M  V30 13 1 13 14
M  V30 14 1 13 15
M  V30 15 2 15 16
M  V30 16 1 15 17
M  V30 17 1 17 18
M  V30 18 1 18 19
M  V30 19 2 19 20
M  V30 20 1 20 21
M  V30 21 1 21 22
M  V30 22 1 22 23
M  V30 23 1 20 24
M  V30 24 1 24 25
M  V30 25 1 12 26
M  V30 26 2 26 27
M  V30 27 1 8 28
M  V30 28 1 28 29
M  V30 29 1 29 5
M  V30 30 1 27 9
M  V30 31 2 25 18
M  V30 32 1 23 21
M  V30 33 1 1 30
M  V30 34 1 1 31
M  V30 35 1 2 32
M  V30 36 1 6 33
M  V30 37 1 6 34
M  V30 38 1 7 35
M  V30 39 1 7 36
M  V30 40 1 10 37
M  V30 41 1 11 38
M  V30 42 1 13 39 CFG=1
M  V30 43 1 14 40
M  V30 44 1 14 41
M  V30 45 1 14 42
M  V30 46 1 17 43
M  V30 47 1 19 44
M  V30 48 1 21 45
M  V30 49 1 22 46
M  V30 50 1 22 47
M  V30 51 1 23 48
M  V30 52 1 23 49
M  V30 53 1 24 50
M  V30 54 1 26 51
M  V30 55 1 27 52
M  V30 56 1 28 53
M  V30 57 1 28 54
M  V30 58 1 29 55
M  V30 59 1 29 56
M  V30 END BOND
M  V30 END CTAB
M  END
>  <Dataset>  (94) 
ChEMBL_Kinases

>  <Ligand_Instance>  (94) 
nan

>  <PDB_ID>  (94) 
nan

>  <Standardized_SMILES>  (94) 
C=CC(=O)N1CCN(c2ccc([C@H](C)C(=O)Nc3cc(C4CC4)[nH]n3)cc2)CC1

>  <Name>  (94) 
nan

>  <Pocket>  (94) 
nan

>  <ATP_Site>  (94) 
nan

>  <Peripheral>  (94) 
nan

>  <Num_H_Atoms_ProtBoundConf>  (94) 
nan

>  <Num_Resolved_Atoms>  (94) 
nan

>  <Num_Not_Resolved_Atoms>  (94) 
nan

$$$$
CHEMBL4782038
     RDKit          3D

  0  0  0  0  0  0  0  0  0  0999 V3000
M  V30 BEGIN CTAB
M  V30 COUNTS 53 58 0 0 0
M  V30 BEGIN ATOM
M  V30 1 C -4.792621 0.081680 -2.950912 0
M  V30 2 N -5.880693 0.357831 -2.005199 0
M  V30 3 C -7.125047 0.881561 -2.529862 0
M  V30 4 C -5.670556 0.102266 -0.622724 0
M  V30 5 C -6.607855 0.316807 0.368558 0
M  V30 6 N -6.362307 0.059400 1.666013 0
M  V30 7 C -5.173047 -0.427362 2.069125 0
M  V30 8 C -4.174860 -0.671464 1.134637 0
M  V30 9 C -2.878747 -1.199201 1.546685 0
M  V30 10 C -2.868748 -2.047771 2.646220 0
M  V30 11 N -1.672248 -2.538842 3.031834 0
M  V30 12 C -0.533035 -2.227597 2.387978 0
M  V30 13 N 0.756924 -2.561195 2.549037 0
M  V30 14 N 1.503861 -1.986966 1.646175 0
M  V30 15 C 0.772288 -1.215562 0.799216 0
M  V30 16 C 1.287711 -0.445803 -0.309374 0
M  V30 17 C 2.641519 -0.430792 -0.617843 0
M  V30 18 C 2.908470 0.363276 -1.706342 0
M  V30 19 C 4.017924 0.737160 -2.431896 0
M  V30 20 C 5.321249 0.226428 -2.033002 0
M  V30 21 C 5.853155 0.194543 -0.779150 0
M  V30 22 C 7.110799 -0.338062 -0.596222 0
M  V30 23 N 7.864493 -0.838601 -1.590768 0
M  V30 24 C 7.404534 -0.838989 -2.847206 0
M  V30 25 C 6.133181 -0.301381 -3.036407 0
M  V30 26 C 3.892623 1.580839 -3.505111 0
M  V30 27 N 2.692660 2.054129 -3.864377 0
M  V30 28 C 1.597357 1.711986 -3.182917 0
M  V30 29 C 1.689186 0.866111 -2.099880 0
M  V30 30 N 0.788023 0.358564 -1.248009 0
M  V30 31 C -0.495199 -1.391350 1.294414 0
M  V30 32 C -1.705899 -0.886481 0.893866 0
M  V30 33 C -4.474936 -0.391913 -0.180376 0
M  V30 34 H -5.112389 0.310863 -3.987627 0
M  V30 35 H -4.538876 -1.013271 -2.915643 0
M  V30 36 H -3.858890 0.618527 -2.680304 0
M  V30 37 H -6.955863 1.463571 -3.474293 0
M  V30 38 H -7.717329 -0.010996 -2.882322 0
M  V30 39 H -7.742936 1.416882 -1.811619 0
M  V30 40 H -7.576586 0.707114 0.087598 0
M  V30 41 H -5.026316 -0.616607 3.117780 0
M  V30 42 H -3.736651 -2.349016 3.220108 0
M  V30 43 H 1.167568 -3.189535 3.277933 0
M  V30 44 H 3.448968 -0.950858 -0.118666 0
M  V30 45 H 5.244501 0.601552 0.015790 0
M  V30 46 H 7.464326 -0.326438 0.437776 0
M  V30 47 H 7.947337 -1.221957 -3.701450 0
M  V30 48 H 5.760695 -0.303876 -4.067452 0
M  V30 49 H 4.807865 1.839795 -4.039418 0
M  V30 50 H 0.626258 2.092124 -3.469944 0
M  V30 51 H -0.214432 0.593289 -1.339142 0
M  V30 52 H -1.778650 -0.230575 0.057667 0
M  V30 53 H -3.685988 -0.588378 -0.892544 0
M  V30 END ATOM
M  V30 BEGIN BOND
M  V30 1 1 1 2
M  V30 2 1 2 3
M  V30 3 1 2 4
M  V30 4 2 4 5
M  V30 5 1 5 6
M  V30 6 2 6 7
M  V30 7 1 7 8
M  V30 8 1 8 9
M  V30 9 2 9 10
M  V30 10 1 10 11
M  V30 11 2 11 12
M  V30 12 1 12 13
M  V30 13 1 13 14
M  V30 14 2 14 15
M  V30 15 1 15 16
M  V30 16 2 16 17
M  V30 17 1 17 18
M  V30 18 2 18 19
M  V30 19 1 19 20
M  V30 20 2 20 21
M  V30 21 1 21 22
M  V30 22 2 22 23
M  V30 23 1 23 24
M  V30 24 2 24 25
M  V30 25 1 19 26
M  V30 26 2 26 27
M  V30 27 1 27 28
M  V30 28 2 28 29
M  V30 29 1 29 30
M  V30 30 1 15 31
M  V30 31 2 31 32
M  V30 32 2 8 33
M  V30 33 1 33 4
M  V30 34 1 32 9
M  V30 35 1 31 12
M  V30 36 1 30 16
M  V30 37 1 29 18
M  V30 38 1 25 20
M  V30 39 1 1 34
M  V30 40 1 1 35
M  V30 41 1 1 36
M  V30 42 1 3 37
M  V30 43 1 3 38
M  V30 44 1 3 39
M  V30 45 1 5 40
M  V30 46 1 7 41
M  V30 47 1 10 42
M  V30 48 1 13 43
M  V30 49 1 17 44
M  V30 50 1 21 45
M  V30 51 1 22 46
M  V30 52 1 24 47
M  V30 53 1 25 48
M  V30 54 1 26 49
M  V30 55 1 28 50
M  V30 56 1 30 51
M  V30 57 1 32 52
M  V30 58 1 33 53
M  V30 END BOND
M  V30 END CTAB
M  END
>  <Dataset>  (95) 
ChEMBL_Kinases

>  <Ligand_Instance>  (95) 
nan

>  <PDB_ID>  (95) 
nan

>  <Standardized_SMILES>  (95) 
CN(C)c1cncc(-c2cnc3[nH]nc(-c4cc5c(-c6ccncc6)cncc5[nH]4)c3c2)c1

>  <Name>  (95) 
nan

>  <Pocket>  (95) 
nan

>  <ATP_Site>  (95) 
nan

>  <Peripheral>  (95) 
nan

>  <Num_H_Atoms_ProtBoundConf>  (95) 
nan

>  <Num_Resolved_Atoms>  (95) 
nan

>  <Num_Not_Resolved_Atoms>  (95) 
nan

$$$$
CHEMBL498406
     RDKit          3D

  0  0  0  0  0  0  0  0  0  0999 V3000
M  V30 BEGIN CTAB
M  V30 COUNTS 24 25 0 0 0
M  V30 BEGIN ATOM
M  V30 1 C 1.129576 -3.081634 3.502436 0
M  V30 2 C 0.548182 -2.197167 2.460345 0
M  V30 3 C -0.286528 -2.778339 1.542255 0
M  V30 4 C -0.851251 -1.990547 0.551704 0
M  V30 5 C -0.519152 -0.653166 0.571874 0
M  V30 6 C 0.333072 -0.057716 1.507866 0
M  V30 7 C 0.530377 1.388073 1.282641 0
M  V30 8 C 0.809388 1.712881 0.026079 0
M  V30 9 S 0.988077 0.655603 -1.442802 0
M  V30 10 C 0.975985 2.038557 -2.615181 0
M  V30 11 O 0.841844 1.462475 -3.718190 0
M  V30 12 N 1.119656 3.205929 -1.854674 0
M  V30 13 C 1.038858 3.077995 -0.468793 0
M  V30 14 O 1.168756 4.137436 0.216653 0
M  V30 15 C 0.878237 -0.857116 2.476104 0
M  V30 16 H 2.180334 -2.767385 3.666792 0
M  V30 17 H 0.595411 -3.005901 4.457342 0
M  V30 18 H 1.170615 -4.131510 3.108747 0
M  V30 19 H -0.517098 -3.834455 1.568354 0
M  V30 20 H -1.513556 -2.417679 -0.183774 0
M  V30 21 H -1.015744 -0.094976 -0.224993 0
M  V30 22 H 0.457657 2.126315 2.057807 0
M  V30 23 H 1.271705 4.014741 -2.504135 0
M  V30 24 H 1.517736 -0.360668 3.169554 0
M  V30 END ATOM
M  V30 BEGIN BOND
M  V30 1 1 1 2
M  V30 2 2 2 3
M  V30 3 1 3 4
M  V30 4 2 4 5
M  V30 5 1 5 6
M  V30 6 1 6 7
M  V30 7 2 7 8
M  V30 8 1 8 9
M  V30 9 1 9 10
M  V30 10 2 10 11
M  V30 11 1 10 12
M  V30 12 1 12 13
M  V30 13 2 13 14
M  V30 14 2 6 15
M  V30 15 1 15 2
M  V30 16 1 13 8
M  V30 17 1 1 16
M  V30 18 1 1 17
M  V30 19 1 1 18
M  V30 20 1 3 19
M  V30 21 1 4 20
M  V30 22 1 5 21
M  V30 23 1 7 22
M  V30 24 1 12 23
M  V30 25 1 15 24
M  V30 END BOND
M  V30 END CTAB
M  END
>  <Dataset>  (96) 
ChEMBL_Kinases

>  <Ligand_Instance>  (96) 
nan

>  <PDB_ID>  (96) 
nan

>  <Standardized_SMILES>  (96) 
Cc1cccc(/C=C2\SC(=O)NC2=O)c1

>  <Name>  (96) 
nan

>  <Pocket>  (96) 
nan

>  <ATP_Site>  (96) 
nan

>  <Peripheral>  (96) 
nan

>  <Num_H_Atoms_ProtBoundConf>  (96) 
nan

>  <Num_Resolved_Atoms>  (96) 
nan

>  <Num_Not_Resolved_Atoms>  (96) 
nan

$$$$
CHEMBL1773425
     RDKit          3D

  0  0  0  0  0  0  0  0  0  0999 V3000
M  V30 BEGIN CTAB
M  V30 COUNTS 39 41 0 0 0
M  V30 BEGIN ATOM
M  V30 1 C 1.651191 -4.193961 4.857640 0
M  V30 2 S 2.362697 -2.522735 5.016235 0
M  V30 3 C 2.043048 -1.616207 3.508067 0
M  V30 4 N 2.766792 -1.515156 2.388500 0
M  V30 5 C 2.120803 -0.708288 1.498130 0
M  V30 6 C 2.688091 -0.416969 0.172460 0
M  V30 7 C 3.872128 0.210228 -0.154622 0
M  V30 8 C 4.184408 0.365426 -1.487684 0
M  V30 9 C 3.347944 -0.087682 -2.480169 0
M  V30 10 F 3.701093 0.089628 -3.778206 0
M  V30 11 C 2.149770 -0.722519 -2.167327 0
M  V30 12 C 1.840934 -0.875690 -0.812239 0
M  V30 13 C 0.942663 -0.304748 2.124103 0
M  V30 14 C 0.077790 0.577548 1.350273 0
M  V30 15 C 0.545329 1.811852 0.985696 0
M  V30 16 C -0.329291 2.579971 0.259636 0
M  V30 17 N -1.561803 2.173658 -0.082275 0
M  V30 18 C -2.059941 0.973526 0.253593 0
M  V30 19 N -3.365707 0.641612 -0.153762 0
M  V30 20 C -4.108694 -0.543368 0.070365 0
M  V30 21 C -5.482014 -0.784650 -0.407368 0
M  V30 22 O -3.577063 -1.473454 0.723759 0
M  V30 23 C -1.194330 0.197226 0.979584 0
M  V30 24 N 0.937585 -0.880623 3.343518 0
M  V30 25 H 0.631231 -4.237517 5.280271 0
M  V30 26 H 1.543031 -4.417843 3.772057 0
M  V30 27 H 2.305601 -4.969710 5.322300 0
M  V30 28 H 4.429651 0.513971 0.718309 0
M  V30 29 H 5.124135 0.863848 -1.674975 0
M  V30 30 H 1.539744 -1.053726 -2.986187 0
M  V30 31 H 0.883735 -1.383979 -0.695538 0
M  V30 32 H 1.523951 2.177675 1.237312 0
M  V30 33 H -0.051455 3.563766 -0.071560 0
M  V30 34 H -3.922095 1.327970 -0.706119 0
M  V30 35 H -5.809056 0.059621 -1.082198 0
M  V30 36 H -5.556016 -1.740350 -0.998254 0
M  V30 37 H -6.231679 -0.870504 0.386392 0
M  V30 38 H -1.493550 -0.772610 1.295099 0
M  V30 39 H 0.116318 -0.676041 3.941303 0
M  V30 END ATOM
M  V30 BEGIN BOND
M  V30 1 1 1 2
M  V30 2 1 2 3
M  V30 3 2 3 4
M  V30 4 1 4 5
M  V30 5 1 5 6
M  V30 6 2 6 7
M  V30 7 1 7 8
M  V30 8 2 8 9
M  V30 9 1 9 10
M  V30 10 1 9 11
M  V30 11 2 11 12
M  V30 12 2 5 13
M  V30 13 1 13 14
M  V30 14 2 14 15
M  V30 15 1 15 16
M  V30 16 2 16 17
M  V30 17 1 17 18
M  V30 18 1 18 19
M  V30 19 1 19 20
M  V30 20 1 20 21
M  V30 21 2 20 22
M  V30 22 2 18 23
M  V30 23 1 13 24
M  V30 24 1 24 3
M  V30 25 1 12 6
M  V30 26 1 23 14
M  V30 27 1 1 25
M  V30 28 1 1 26
M  V30 29 1 1 27
M  V30 30 1 7 28
M  V30 31 1 8 29
M  V30 32 1 11 30
M  V30 33 1 12 31
M  V30 34 1 15 32
M  V30 35 1 16 33
M  V30 36 1 19 34
M  V30 37 1 21 35
M  V30 38 1 21 36
M  V30 39 1 21 37
M  V30 40 1 23 38
M  V30 41 1 24 39
M  V30 END BOND
M  V30 END CTAB
M  END
>  <Dataset>  (97) 
ChEMBL_Kinases

>  <Ligand_Instance>  (97) 
nan

>  <PDB_ID>  (97) 
nan

>  <Standardized_SMILES>  (97) 
CSc1nc(-c2ccc(F)cc2)c(-c2ccnc(NC(C)=O)c2)[nH]1

>  <Name>  (97) 
nan

>  <Pocket>  (97) 
nan

>  <ATP_Site>  (97) 
nan

>  <Peripheral>  (97) 
nan

>  <Num_H_Atoms_ProtBoundConf>  (97) 
nan

>  <Num_Resolved_Atoms>  (97) 
nan

>  <Num_Not_Resolved_Atoms>  (97) 
nan

$$$$
CHEMBL4782664
     RDKit          3D

  0  0  0  0  0  0  0  0  0  0999 V3000
M  V30 BEGIN CTAB
M  V30 COUNTS 46 48 0 0 0
M  V30 BEGIN ATOM
M  V30 1 C 2.419796 -5.215843 3.526298 0
M  V30 2 O 1.936434 -3.992399 3.012308 0
M  V30 3 C 2.631483 -3.197809 2.145835 0
M  V30 4 O 3.493088 -4.104606 2.261220 0
M  V30 5 C 2.556103 -1.963017 1.409165 0
M  V30 6 C 3.678482 -1.721119 0.662776 0
M  V30 7 N 3.764907 -0.608196 -0.083980 0
M  V30 8 C 2.751214 0.289143 -0.112363 0
M  V30 9 N 2.856691 1.453372 -0.901481 0
M  V30 10 C 1.757187 2.371072 -0.897467 0
M  V30 11 C 0.666146 2.372781 -1.743661 0
M  V30 12 N -0.272664 3.339768 -1.568491 0
M  V30 13 C -0.133003 4.262862 -0.596365 0
M  V30 14 C -1.186233 5.240759 -0.499815 0
M  V30 15 N -2.022832 6.038988 -0.428657 0
M  V30 16 C 0.963317 4.261836 0.254563 0
M  V30 17 N 1.885565 3.298176 0.069638 0
M  V30 18 C 1.651937 -0.007595 0.656686 0
M  V30 19 C 1.467512 -1.116935 1.452394 0
M  V30 20 N 0.346292 -1.375358 2.245488 0
M  V30 21 C -0.910155 -0.779302 2.520085 0
M  V30 22 C -1.996418 -1.006205 1.514865 0
M  V30 23 C -1.674813 -0.394385 0.202627 0
M  V30 24 N -2.820611 -0.408651 -0.710917 0
M  V30 25 C -3.740230 -1.398426 -0.210513 0
M  V30 26 C -2.977954 -2.615491 0.242437 0
M  V30 27 O -2.232094 -2.381191 1.395565 0
M  V30 28 H 3.320359 -5.076696 4.171201 0
M  V30 29 H 1.601001 -5.611149 4.161987 0
M  V30 30 H 2.573709 -5.989177 2.732653 0
M  V30 31 H 4.532305 -2.357863 0.612016 0
M  V30 32 H 3.718210 1.620943 -1.463036 0
M  V30 33 H 0.662942 1.585514 -2.482670 0
M  V30 34 H 0.978710 5.045553 0.999752 0
M  V30 35 H 0.893420 0.746580 0.600960 0
M  V30 36 H 0.440094 -2.277439 2.808565 0
M  V30 37 H -0.767938 0.338021 2.601785 0
M  V30 38 H -1.246088 -1.087510 3.553013 0
M  V30 39 H -2.925675 -0.538799 1.978264 0
M  V30 40 H -1.459545 0.672015 0.366690 0
M  V30 41 H -0.878853 -0.977633 -0.274288 0
M  V30 42 H -2.521546 -0.679049 -1.661521 0
M  V30 43 H -4.407106 -1.009546 0.583934 0
M  V30 44 H -4.415323 -1.721382 -1.029178 0
M  V30 45 H -3.736559 -3.419466 0.402424 0
M  V30 46 H -2.332967 -2.951616 -0.592891 0
M  V30 END ATOM
M  V30 BEGIN BOND
M  V30 1 1 1 2
M  V30 2 1 2 3
M  V30 3 2 3 4
M  V30 4 1 3 5
M  V30 5 2 5 6
M  V30 6 1 6 7
M  V30 7 2 7 8
M  V30 8 1 8 9
M  V30 9 1 9 10
M  V30 10 2 10 11
M  V30 11 1 11 12
M  V30 12 2 12 13
M  V30 13 1 13 14
M  V30 14 3 14 15
M  V30 15 1 13 16
M  V30 16 2 16 17
M  V30 17 1 8 18
M  V30 18 2 18 19
M  V30 19 1 19 20
M  V30 20 1 20 21
M  V30 21 1 21 22
M  V30 22 1 22 23
M  V30 23 1 23 24
M  V30 24 1 24 25
M  V30 25 1 25 26
M  V30 26 1 26 27
M  V30 27 1 19 5
M  V30 28 1 27 22
M  V30 29 1 17 10
M  V30 30 1 1 28
M  V30 31 1 1 29
M  V30 32 1 1 30
M  V30 33 1 6 31
M  V30 34 1 9 32
M  V30 35 1 11 33
M  V30 36 1 16 34
M  V30 37 1 18 35
M  V30 38 1 20 36
M  V30 39 1 21 37
M  V30 40 1 21 38
M  V30 41 1 22 39
M  V30 42 1 23 40
M  V30 43 1 23 41
M  V30 44 1 24 42
M  V30 45 1 25 43
M  V30 46 1 25 44
M  V30 47 1 26 45
M  V30 48 1 26 46
M  V30 END BOND
M  V30 END CTAB
M  END
>  <Dataset>  (98) 
ChEMBL_Kinases

>  <Ligand_Instance>  (98) 
nan

>  <PDB_ID>  (98) 
nan

>  <Standardized_SMILES>  (98) 
COC(=O)c1cnc(Nc2cnc(C#N)cn2)cc1NCC1CNCCO1

>  <Name>  (98) 
nan

>  <Pocket>  (98) 
nan

>  <ATP_Site>  (98) 
nan

>  <Peripheral>  (98) 
nan

>  <Num_H_Atoms_ProtBoundConf>  (98) 
nan

>  <Num_Resolved_Atoms>  (98) 
nan

>  <Num_Not_Resolved_Atoms>  (98) 
nan

$$$$
CHEMBL4782687
     RDKit          3D

  0  0  0  0  0  0  0  0  0  0999 V3000
M  V30 BEGIN CTAB
M  V30 COUNTS 55 58 0 0 0
M  V30 BEGIN ATOM
M  V30 1 C 7.839425 -6.159065 2.050109 0
M  V30 2 C 7.479579 -4.937684 1.314457 0
M  V30 3 C 7.178960 -3.934919 0.721872 0
M  V30 4 C 6.819608 -2.765280 0.003838 0
M  V30 5 O 7.712998 -1.899108 -0.268100 0
M  V30 6 N 5.523673 -2.441460 -0.463274 0
M  V30 7 C 5.336955 -1.198329 -1.184373 0
M  V30 8 C 4.217546 -0.486691 -0.468712 0
M  V30 9 C 3.106787 -1.152901 -0.201959 0
M  V30 10 C 1.953646 -0.582085 0.482864 0
M  V30 11 C 1.901130 0.719821 0.930353 0
M  V30 12 C 0.752867 1.187032 1.577435 0
M  V30 13 C -0.358441 0.388844 1.795832 0
M  V30 14 C -1.551881 0.928133 2.496931 0
M  V30 15 C -2.124399 0.013140 3.526523 0
M  V30 16 C -2.596690 1.322722 1.479227 0
M  V30 17 O -3.035870 2.522823 1.372127 0
M  V30 18 N -3.230052 0.480806 0.527318 0
M  V30 19 C -4.194660 1.043295 -0.350015 0
M  V30 20 C -5.543173 1.072126 0.002845 0
M  V30 21 C -6.154700 1.689106 -1.094517 0
M  V30 22 C -7.643418 1.907964 -1.099809 0
M  V30 23 C -8.380906 2.009271 0.162557 0
M  V30 24 C -8.502366 0.765403 -0.658345 0
M  V30 25 N -5.236222 2.000255 -2.023734 0
M  V30 26 N -4.066469 1.607762 -1.564432 0
M  V30 27 C -0.225844 -0.896110 1.319928 0
M  V30 28 N 0.871404 -1.351587 0.698481 0
M  V30 29 C 3.085477 -2.569360 -0.649421 0
M  V30 30 C 4.366019 -3.290145 -0.259321 0
M  V30 31 H 8.412866 -5.917671 2.980933 0
M  V30 32 H 6.899084 -6.623614 2.390475 0
M  V30 33 H 8.402708 -6.867149 1.421285 0
M  V30 34 H 5.064627 -1.389136 -2.253360 0
M  V30 35 H 6.240719 -0.563610 -1.110621 0
M  V30 36 H 4.308020 0.539257 -0.176308 0
M  V30 37 H 2.735391 1.379572 0.786120 0
M  V30 38 H 0.780252 2.219071 1.902438 0
M  V30 39 H -1.257913 1.902444 2.969436 0
M  V30 40 H -2.323528 0.524451 4.510491 0
M  V30 41 H -1.460781 -0.859318 3.675319 0
M  V30 42 H -3.136536 -0.390196 3.237356 0
M  V30 43 H -2.946416 -0.523273 0.527687 0
M  V30 44 H -6.017100 0.708854 0.903826 0
M  V30 45 H -7.995774 2.402003 -2.030146 0
M  V30 46 H -9.237778 2.728424 0.205568 0
M  V30 47 H -7.828721 1.942103 1.121937 0
M  V30 48 H -8.041117 -0.176276 -0.287322 0
M  V30 49 H -9.476928 0.583901 -1.164149 0
M  V30 50 H -5.480404 2.474369 -2.936784 0
M  V30 51 H -1.043228 -1.583273 1.454367 0
M  V30 52 H 3.065106 -2.576157 -1.777378 0
M  V30 53 H 2.208078 -3.115962 -0.307346 0
M  V30 54 H 4.241888 -3.575484 0.791687 0
M  V30 55 H 4.531581 -4.178047 -0.904949 0
M  V30 END ATOM
M  V30 BEGIN BOND
M  V30 1 1 1 2
M  V30 2 3 2 3
M  V30 3 1 3 4
M  V30 4 2 4 5
M  V30 5 1 4 6
M  V30 6 1 6 7
M  V30 7 1 7 8
M  V30 8 2 8 9
M  V30 9 1 9 10
M  V30 10 2 10 11
M  V30 11 1 11 12
M  V30 12 2 12 13
M  V30 13 1 13 14
M  V30 14 1 14 15
M  V30 15 1 14 16
M  V30 16 2 16 17
M  V30 17 1 16 18
M  V30 18 1 18 19
M  V30 19 1 19 20
M  V30 20 2 20 21
M  V30 21 1 21 22
M  V30 22 1 22 23
M  V30 23 1 23 24
M  V30 24 1 21 25
M  V30 25 1 25 26
M  V30 26 1 13 27
M  V30 27 2 27 28
M  V30 28 1 9 29
M  V30 29 1 29 30
M  V30 30 1 30 6
M  V30 31 1 28 10
M  V30 32 2 26 19
M  V30 33 1 24 22
M  V30 34 1 1 31
M  V30 35 1 1 32
M  V30 36 1 1 33
M  V30 37 1 7 34
M  V30 38 1 7 35
M  V30 39 1 8 36
M  V30 40 1 11 37
M  V30 41 1 12 38
M  V30 42 1 14 39
M  V30 43 1 15 40
M  V30 44 1 15 41
M  V30 45 1 15 42
M  V30 46 1 18 43
M  V30 47 1 20 44
M  V30 48 1 22 45
M  V30 49 1 23 46
M  V30 50 1 23 47
M  V30 51 1 24 48
M  V30 52 1 24 49
M  V30 53 1 25 50
M  V30 54 1 27 51
M  V30 55 1 29 52
M  V30 56 1 29 53
M  V30 57 1 30 54
M  V30 58 1 30 55
M  V30 END BOND
M  V30 END CTAB
M  END
>  <Dataset>  (99) 
ChEMBL_Kinases

>  <Ligand_Instance>  (99) 
nan

>  <PDB_ID>  (99) 
nan

>  <Standardized_SMILES>  (99) 
CC#CC(=O)N1CC=C(c2ccc(C(C)C(=O)Nc3cc(C4CC4)[nH]n3)cn2)CC1

>  <Name>  (99) 
nan

>  <Pocket>  (99) 
nan

>  <ATP_Site>  (99) 
nan

>  <Peripheral>  (99) 
nan

>  <Num_H_Atoms_ProtBoundConf>  (99) 
nan

>  <Num_Resolved_Atoms>  (99) 
nan

>  <Num_Not_Resolved_Atoms>  (99) 
nan

$$$$
CHEMBL4782709
     RDKit          3D

  0  0  0  0  0  0  0  0  0  0999 V3000
M  V30 BEGIN CTAB
M  V30 COUNTS 47 50 0 0 0
M  V30 BEGIN ATOM
M  V30 1 C 2.232542 -5.014386 3.933669 0
M  V30 2 O 2.219230 -3.716360 3.392058 0
M  V30 3 C 3.074252 -3.291163 2.364473 0
M  V30 4 C 4.026894 -4.082049 1.760040 0
M  V30 5 C 4.833621 -3.590435 0.751880 0
M  V30 6 C 4.650321 -2.264251 0.366361 0
M  V30 7 C 3.698040 -1.468397 0.968236 0
M  V30 8 C 3.472083 -0.038811 0.580406 0 CFG=1
M  V30 9 C 4.258398 0.343381 -0.634084 0
M  V30 10 N 2.064167 0.191618 0.462086 0
M  V30 11 C 1.208563 0.994283 1.229580 0
M  V30 12 O 1.728333 1.627939 2.182958 0
M  V30 13 C -0.221521 1.122684 0.976607 0
M  V30 14 C -0.948808 1.951269 1.805973 0
M  V30 15 C -2.318478 2.118114 1.620254 0
M  V30 16 C -2.891183 1.422318 0.582665 0
M  V30 17 C -2.187776 0.587597 -0.261245 0
M  V30 18 C -0.830485 0.439281 -0.055918 0
M  V30 19 N -2.762878 -0.087496 -1.273440 0
M  V30 20 C -4.078513 -0.007279 -1.551936 0
M  V30 21 O -4.580206 -0.652761 -2.505709 0
M  V30 22 C -4.793727 0.826678 -0.712487 0
M  V30 23 C -6.148047 0.941491 -0.959607 0
M  V30 24 N -6.898290 1.740429 -0.174749 0
M  V30 25 C -6.384663 2.442669 0.853776 0
M  V30 26 C -5.029624 2.336436 1.111772 0
M  V30 27 C -4.235878 1.530007 0.330135 0
M  V30 28 C 2.888026 -1.965781 1.982213 0
M  V30 29 H 2.872591 -5.065825 4.848332 0
M  V30 30 H 1.203973 -5.316233 4.237823 0
M  V30 31 H 2.560302 -5.799509 3.221231 0
M  V30 32 H 4.122955 -5.110405 2.104106 0
M  V30 33 H 5.577191 -4.212225 0.282067 0
M  V30 34 H 5.234876 -1.813921 -0.404240 0
M  V30 35 H 3.865546 0.552334 1.438573 0
M  V30 36 H 5.335797 0.228180 -0.393181 0
M  V30 37 H 4.049667 -0.288713 -1.513333 0
M  V30 38 H 4.095449 1.426526 -0.791985 0
M  V30 39 H 1.703276 -0.361601 -0.344319 0
M  V30 40 H -0.454251 2.485284 2.618141 0
M  V30 41 H -2.813073 2.765406 2.289360 0
M  V30 42 H -0.286120 -0.215406 -0.720159 0
M  V30 43 H -2.179829 -0.712073 -1.888548 0
M  V30 44 H -6.655293 0.416130 -1.764860 0
M  V30 45 H -7.127242 3.035922 1.383032 0
M  V30 46 H -4.700343 2.926278 1.946762 0
M  V30 47 H 2.140224 -1.321442 2.446824 0
M  V30 END ATOM
M  V30 BEGIN BOND
M  V30 1 1 1 2
M  V30 2 1 2 3
M  V30 3 2 3 4
M  V30 4 1 4 5
M  V30 5 2 5 6
M  V30 6 1 6 7
M  V30 7 1 7 8
M  V30 8 1 8 9
M  V30 9 1 8 10
M  V30 10 1 10 11
M  V30 11 2 11 12
M  V30 12 1 11 13
M  V30 13 2 13 14
M  V30 14 1 14 15
M  V30 15 2 15 16
M  V30 16 1 16 17
M  V30 17 2 17 18
M  V30 18 1 17 19
M  V30 19 1 19 20
M  V30 20 2 20 21
M  V30 21 1 20 22
M  V30 22 2 22 23
M  V30 23 1 23 24
M  V30 24 2 24 25
M  V30 25 1 25 26
M  V30 26 2 26 27
M  V30 27 2 7 28
M  V30 28 1 28 3
M  V30 29 1 18 13
M  V30 30 1 27 22
M  V30 31 1 27 16
M  V30 32 1 1 29
M  V30 33 1 1 30
M  V30 34 1 1 31
M  V30 35 1 4 32
M  V30 36 1 5 33
M  V30 37 1 6 34
M  V30 38 1 8 35 CFG=1
M  V30 39 1 9 36
M  V30 40 1 9 37
M  V30 41 1 9 38
M  V30 42 1 10 39
M  V30 43 1 14 40
M  V30 44 1 15 41
M  V30 45 1 18 42
M  V30 46 1 19 43
M  V30 47 1 23 44
M  V30 48 1 25 45
M  V30 49 1 26 46
M  V30 50 1 28 47
M  V30 END BOND
M  V30 END CTAB
M  END
>  <Dataset>  (100) 
ChEMBL_Kinases

>  <Ligand_Instance>  (100) 
nan

>  <PDB_ID>  (100) 
nan

>  <Standardized_SMILES>  (100) 
COc1cccc([C@@H](C)NC(=O)c2ccc3c(c2)[nH]c(=O)c2cnccc23)c1

>  <Name>  (100) 
nan

>  <Pocket>  (100) 
nan

>  <ATP_Site>  (100) 
nan

>  <Peripheral>  (100) 
nan

>  <Num_H_Atoms_ProtBoundConf>  (100) 
nan

>  <Num_Resolved_Atoms>  (100) 
nan

>  <Num_Not_Resolved_Atoms>  (100) 
nan

$$$$
CHEMBL4782796
     RDKit          3D

  0  0  0  0  0  0  0  0  0  0999 V3000
M  V30 BEGIN CTAB
M  V30 COUNTS 56 58 0 0 0
M  V30 BEGIN ATOM
M  V30 1 C 4.047771 -1.461452 4.379282 0
M  V30 2 C 3.603982 -0.760463 3.093722 0
M  V30 3 N 4.492288 0.230833 2.634517 0
M  V30 4 C 4.640408 1.419631 3.389870 0
M  V30 5 C 5.304738 1.271263 4.711373 0
M  V30 6 C 4.601186 0.411514 1.247862 0
M  V30 7 C 3.464261 0.991952 0.491376 0
M  V30 8 N 2.255677 0.212605 0.546898 0
M  V30 9 C 1.265429 0.880090 -0.223752 0
M  V30 10 O 1.733821 1.957011 -0.726702 0
M  V30 11 C -0.123823 0.532992 -0.503920 0
M  V30 12 C -0.934198 1.449782 -1.166150 0
M  V30 13 C -0.773289 2.843629 -1.711541 0
M  V30 14 N -2.131534 0.848417 -1.292633 0
M  V30 15 C -2.182884 -0.383593 -0.773366 0
M  V30 16 C -3.187059 -1.435088 -0.674635 0
M  V30 17 C -3.967509 -1.958462 -1.605785 0
M  V30 18 C -3.940764 -1.534211 -2.993454 0
M  V30 19 O -3.209989 -0.675836 -3.494658 0
M  V30 20 N -4.933488 -2.325639 -3.628037 0
M  V30 21 C -5.531154 -3.189361 -2.664988 0
M  V30 22 C -6.526773 -4.137957 -2.768541 0
M  V30 23 C -6.988805 -4.895892 -1.713118 0
M  V30 24 Br -8.366253 -6.203112 -1.875297 0
M  V30 25 C -6.401916 -4.673599 -0.480890 0
M  V30 26 C -5.388947 -3.720051 -0.335204 0
M  V30 27 C -4.960457 -2.987089 -1.419461 0
M  V30 28 C -0.889592 -0.585479 -0.265065 0
M  V30 29 C -0.372909 -1.792294 0.422302 0
M  V30 30 H 5.142211 -1.573632 4.448942 0
M  V30 31 H 3.664039 -2.524840 4.382517 0
M  V30 32 H 3.576953 -1.013029 5.275525 0
M  V30 33 H 3.584807 -1.572150 2.334777 0
M  V30 34 H 2.545497 -0.418837 3.213342 0
M  V30 35 H 3.699981 1.980347 3.560567 0
M  V30 36 H 5.283878 2.113330 2.770827 0
M  V30 37 H 6.150789 0.567700 4.716685 0
M  V30 38 H 4.582507 1.131970 5.547450 0
M  V30 39 H 5.781951 2.270308 4.955383 0
M  V30 40 H 4.826629 -0.603444 0.792019 0
M  V30 41 H 5.566170 0.970060 1.049738 0
M  V30 42 H 3.283221 2.065830 0.744262 0
M  V30 43 H 3.769313 1.010126 -0.584497 0
M  V30 44 H 1.894814 -0.667254 0.964988 0
M  V30 45 H -0.776486 2.757083 -2.815945 0
M  V30 46 H -1.727604 3.407644 -1.477020 0
M  V30 47 H 0.065996 3.381354 -1.280367 0
M  V30 48 H -3.000268 1.265641 -1.736503 0
M  V30 49 H -3.309430 -1.853601 0.337800 0
M  V30 50 H -5.141144 -2.235123 -4.650767 0
M  V30 51 H -6.988382 -4.310152 -3.747533 0
M  V30 52 H -6.688714 -5.214243 0.419231 0
M  V30 53 H -4.940129 -3.563075 0.651075 0
M  V30 54 H -0.176897 -1.676818 1.485647 0
M  V30 55 H 0.509171 -2.229133 -0.132240 0
M  V30 56 H -1.153587 -2.602069 0.296937 0
M  V30 END ATOM
M  V30 BEGIN BOND
M  V30 1 1 1 2
M  V30 2 1 2 3
M  V30 3 1 3 4
M  V30 4 1 4 5
M  V30 5 1 3 6
M  V30 6 1 6 7
M  V30 7 1 7 8
M  V30 8 1 8 9
M  V30 9 2 9 10
M  V30 10 1 9 11
M  V30 11 2 11 12
M  V30 12 1 12 13
M  V30 13 1 12 14
M  V30 14 1 14 15
M  V30 15 1 15 16
M  V30 16 2 16 17
M  V30 17 1 17 18
M  V30 18 2 18 19
M  V30 19 1 18 20
M  V30 20 1 20 21
M  V30 21 2 21 22
M  V30 22 1 22 23
M  V30 23 1 23 24
M  V30 24 2 23 25
M  V30 25 1 25 26
M  V30 26 2 26 27
M  V30 27 2 15 28
M  V30 28 1 28 29
M  V30 29 1 28 11
M  V30 30 1 27 17
M  V30 31 1 27 21
M  V30 32 1 1 30
M  V30 33 1 1 31
M  V30 34 1 1 32
M  V30 35 1 2 33
M  V30 36 1 2 34
M  V30 37 1 4 35
M  V30 38 1 4 36
M  V30 39 1 5 37
M  V30 40 1 5 38
M  V30 41 1 5 39
M  V30 42 1 6 40
M  V30 43 1 6 41
M  V30 44 1 7 42
M  V30 45 1 7 43
M  V30 46 1 8 44
M  V30 47 1 13 45
M  V30 48 1 13 46
M  V30 49 1 13 47
M  V30 50 1 14 48
M  V30 51 1 16 49
M  V30 52 1 20 50
M  V30 53 1 22 51
M  V30 54 1 25 52
M  V30 55 1 26 53
M  V30 56 1 29 54
M  V30 57 1 29 55
M  V30 58 1 29 56
M  V30 END BOND
M  V30 END CTAB
M  END
>  <Dataset>  (101) 
ChEMBL_Kinases

>  <Ligand_Instance>  (101) 
nan

>  <PDB_ID>  (101) 
nan

>  <Standardized_SMILES>  (101) 
CCN(CC)CCNC(=O)c1c(C)[nH]c(/C=C2\C(=O)Nc3cc(Br)ccc32)c1C

>  <Name>  (101) 
nan

>  <Pocket>  (101) 
nan

>  <ATP_Site>  (101) 
nan

>  <Peripheral>  (101) 
nan

>  <Num_H_Atoms_ProtBoundConf>  (101) 
nan

>  <Num_Resolved_Atoms>  (101) 
nan

>  <Num_Not_Resolved_Atoms>  (101) 
nan

$$$$
CHEMBL4782804
     RDKit          3D

  0  0  0  0  0  0  0  0  0  0999 V3000
M  V30 BEGIN CTAB
M  V30 COUNTS 54 57 0 0 0
M  V30 BEGIN ATOM
M  V30 1 C 7.391415 2.680093 5.200535 0
M  V30 2 C 6.899723 3.287133 4.163687 0
M  V30 3 C 6.637640 2.551372 2.913470 0
M  V30 4 O 6.992538 1.396382 3.182012 0
M  V30 5 N 6.105119 3.308608 1.864864 0
M  V30 6 C 5.812873 2.683986 0.599816 0
M  V30 7 C 6.729289 2.613911 -0.428343 0
M  V30 8 C 6.373334 1.996504 -1.613177 0
M  V30 9 C 5.090565 1.450422 -1.757725 0
M  V30 10 C 4.156914 1.508278 -0.744163 0
M  V30 11 C 2.856218 0.910977 -1.000115 0
M  V30 12 O 2.669946 0.444058 -2.150359 0
M  V30 13 N 1.800941 0.819399 -0.057243 0
M  V30 14 C 0.499851 0.271044 -0.170495 0
M  V30 15 C -0.288986 0.302771 0.957836 0
M  V30 16 C -1.566167 -0.216150 0.908184 0
M  V30 17 C -2.032216 -0.758183 -0.271323 0
M  V30 18 N -3.349152 -1.274622 -0.260742 0
M  V30 19 C -4.706354 -0.961158 -0.450684 0
M  V30 20 O -5.003109 0.221329 -0.753068 0
M  V30 21 C -5.697598 -2.053990 -0.280796 0
M  V30 22 C -6.997800 -1.659671 -0.473678 0
M  V30 23 C -7.910878 -2.697961 -0.312129 0
M  V30 24 C -7.530851 -3.994827 0.011155 0
M  V30 25 C -6.211975 -4.308846 0.187094 0
M  V30 26 C -5.726972 -5.640630 0.523095 0
M  V30 27 C -6.502817 -6.764811 0.706830 0
M  V30 28 C -5.604826 -7.789234 1.003757 0
M  V30 29 N -4.393232 -7.252426 0.984148 0
M  V30 30 N -4.430318 -5.966353 0.699390 0
M  V30 31 N -5.282154 -3.319197 0.038024 0
M  V30 32 C -1.275481 -0.810164 -1.424513 0
M  V30 33 C -0.005451 -0.279356 -1.326031 0
M  V30 34 C 4.562955 2.133239 0.413644 0
M  V30 35 H 7.560067 1.630504 4.998691 0
M  V30 36 H 7.796132 2.018937 5.941933 0
M  V30 37 H 6.753343 4.332161 4.421106 0
M  V30 38 H 5.923255 4.317514 2.003503 0
M  V30 39 H 7.697268 3.043153 -0.282096 0
M  V30 40 H 7.105100 1.946910 -2.419253 0
M  V30 41 H 4.927442 0.996275 -2.724684 0
M  V30 42 H 2.105717 1.248826 0.851918 0
M  V30 43 H 0.071664 0.733292 1.905698 0
M  V30 44 H -2.149126 -0.175232 1.804012 0
M  V30 45 H -3.099426 -2.278006 0.000059 0
M  V30 46 H -7.267663 -0.656326 -0.721430 0
M  V30 47 H -8.966063 -2.495844 -0.442504 0
M  V30 48 H -8.233566 -4.802116 0.136867 0
M  V30 49 H -7.575115 -6.747474 0.615762 0
M  V30 50 H -6.012361 -8.771527 1.185500 0
M  V30 51 H -3.585706 -5.319091 0.626013 0
M  V30 52 H -1.647048 -1.238929 -2.350521 0
M  V30 53 H 0.564854 -0.329529 -2.238536 0
M  V30 54 H 3.859206 2.191122 1.213705 0
M  V30 END ATOM
M  V30 BEGIN BOND
M  V30 1 2 1 2
M  V30 2 1 2 3
M  V30 3 2 3 4
M  V30 4 1 3 5
M  V30 5 1 5 6
M  V30 6 2 6 7
M  V30 7 1 7 8
M  V30 8 2 8 9
M  V30 9 1 9 10
M  V30 10 1 10 11
M  V30 11 2 11 12
M  V30 12 1 11 13
M  V30 13 1 13 14
M  V30 14 2 14 15
M  V30 15 1 15 16
M  V30 16 2 16 17
M  V30 17 1 17 18
M  V30 18 1 18 19
M  V30 19 2 19 20
M  V30 20 1 19 21
M  V30 21 2 21 22
M  V30 22 1 22 23
M  V30 23 2 23 24
M  V30 24 1 24 25
M  V30 25 1 25 26
M  V30 26 2 26 27
M  V30 27 1 27 28
M  V30 28 2 28 29
M  V30 29 1 29 30
M  V30 30 2 25 31
M  V30 31 1 17 32
M  V30 32 2 32 33
M  V30 33 2 10 34
M  V30 34 1 34 6
M  V30 35 1 33 14
M  V30 36 1 31 21
M  V30 37 1 30 26
M  V30 38 1 1 35
M  V30 39 1 1 36
M  V30 40 1 2 37
M  V30 41 1 5 38
M  V30 42 1 7 39
M  V30 43 1 8 40
M  V30 44 1 9 41
M  V30 45 1 13 42
M  V30 46 1 15 43
M  V30 47 1 16 44
M  V30 48 1 18 45
M  V30 49 1 22 46
M  V30 50 1 23 47
M  V30 51 1 24 48
M  V30 52 1 27 49
M  V30 53 1 28 50
M  V30 54 1 30 51
M  V30 55 1 32 52
M  V30 56 1 33 53
M  V30 57 1 34 54
M  V30 END BOND
M  V30 END CTAB
M  END
>  <Dataset>  (102) 
ChEMBL_Kinases

>  <Ligand_Instance>  (102) 
nan

>  <PDB_ID>  (102) 
nan

>  <Standardized_SMILES>  (102) 
C=CC(=O)Nc1cccc(C(=O)Nc2ccc(NC(=O)c3cccc(-c4ccn[nH]4)n3)cc2)c1

>  <Name>  (102) 
nan

>  <Pocket>  (102) 
nan

>  <ATP_Site>  (102) 
nan

>  <Peripheral>  (102) 
nan

>  <Num_H_Atoms_ProtBoundConf>  (102) 
nan

>  <Num_Resolved_Atoms>  (102) 
nan

>  <Num_Not_Resolved_Atoms>  (102) 
nan

$$$$
CHEMBL1765097
     RDKit          3D

  0  0  0  0  0  0  0  0  0  0999 V3000
M  V30 BEGIN CTAB
M  V30 COUNTS 50 53 0 0 0
M  V30 BEGIN ATOM
M  V30 1 O 2.077566 -1.766352 2.579298 0
M  V30 2 C 1.382912 -1.251390 1.670478 0
M  V30 3 N 1.913724 -0.054756 1.146833 0
M  V30 4 C 3.035509 0.753792 1.359429 0
M  V30 5 C 3.192596 1.881523 0.603945 0
M  V30 6 C 4.264210 2.705842 0.769473 0
M  V30 7 C 4.383905 3.894802 -0.062068 0
M  V30 8 C 3.914904 3.960143 -1.366008 0
M  V30 9 C 4.042540 5.105287 -2.133038 0
M  V30 10 N 4.639539 6.214284 -1.623405 0
M  V30 11 C 5.112683 6.207883 -0.365691 0
M  V30 12 C 4.983808 5.066270 0.394419 0
M  V30 13 C 5.236104 2.455429 1.692385 0
M  V30 14 N 5.114881 1.357614 2.451702 0
M  V30 15 C 4.051045 0.568967 2.264316 0
M  V30 16 O 4.057284 -0.414966 3.030952 0
M  V30 17 C 0.149971 -1.896336 1.252455 0
M  V30 18 C -0.727443 -1.464492 0.277521 0
M  V30 19 C -1.887203 -2.128249 -0.068633 0
M  V30 20 C -2.221365 -3.296734 0.577296 0
M  V30 21 N -3.404769 -4.009944 0.248199 0
M  V30 22 C -4.316584 -3.731908 -0.842433 0
M  V30 23 C -5.478674 -2.981430 -0.236765 0
M  V30 24 C -5.975911 -3.704442 0.969700 0
M  V30 25 C -5.425578 -5.097236 1.119951 0
M  V30 26 C -3.929197 -5.156581 0.960874 0
M  V30 27 C -1.370998 -3.761284 1.556774 0
M  V30 28 C -0.216812 -3.070253 1.878336 0
M  V30 29 H 1.236412 0.272826 0.393546 0
M  V30 30 H 2.472117 2.163347 -0.155461 0
M  V30 31 H 3.445748 3.090738 -1.769005 0
M  V30 32 H 3.690664 5.188693 -3.144757 0
M  V30 33 H 5.584679 7.099277 0.021870 0
M  V30 34 H 5.368252 5.079746 1.398048 0
M  V30 35 H 6.057343 3.137720 1.779623 0
M  V30 36 H 5.868737 1.190140 3.146830 0
M  V30 37 H -0.476518 -0.548941 -0.236084 0
M  V30 38 H -2.480174 -1.692612 -0.834686 0
M  V30 39 H -3.829279 -3.004087 -1.543140 0
M  V30 40 H -4.644623 -4.636118 -1.397387 0
M  V30 41 H -5.091088 -1.958658 0.011391 0
M  V30 42 H -6.271878 -2.914113 -0.988225 0
M  V30 43 H -5.652350 -3.119114 1.866345 0
M  V30 44 H -7.064558 -3.719549 0.991190 0
M  V30 45 H -5.789642 -5.503173 2.085893 0
M  V30 46 H -5.878688 -5.718456 0.322131 0
M  V30 47 H -3.671749 -6.060010 0.393370 0
M  V30 48 H -3.458649 -5.242735 1.947182 0
M  V30 49 H -1.545180 -4.664735 2.114806 0
M  V30 50 H 0.433299 -3.467106 2.659491 0
M  V30 END ATOM
M  V30 BEGIN BOND
M  V30 1 2 1 2
M  V30 2 1 2 3
M  V30 3 1 3 4
M  V30 4 2 4 5
M  V30 5 1 5 6
M  V30 6 1 6 7
M  V30 7 2 7 8
M  V30 8 1 8 9
M  V30 9 2 9 10
M  V30 10 1 10 11
M  V30 11 2 11 12
M  V30 12 2 6 13
M  V30 13 1 13 14
M  V30 14 1 14 15
M  V30 15 2 15 16
M  V30 16 1 2 17
M  V30 17 2 17 18
M  V30 18 1 18 19
M  V30 19 2 19 20
M  V30 20 1 20 21
M  V30 21 1 21 22
M  V30 22 1 22 23
M  V30 23 1 23 24
M  V30 24 1 24 25
M  V30 25 1 25 26
M  V30 26 1 20 27
M  V30 27 2 27 28
M  V30 28 1 15 4
M  V30 29 1 28 17
M  V30 30 1 12 7
M  V30 31 1 26 21
M  V30 32 1 3 29
M  V30 33 1 5 30
M  V30 34 1 8 31
M  V30 35 1 9 32
M  V30 36 1 11 33
M  V30 37 1 12 34
M  V30 38 1 13 35
M  V30 39 1 14 36
M  V30 40 1 18 37
M  V30 41 1 19 38
M  V30 42 1 22 39
M  V30 43 1 22 40
M  V30 44 1 23 41
M  V30 45 1 23 42
M  V30 46 1 24 43
M  V30 47 1 24 44
M  V30 48 1 25 45
M  V30 49 1 25 46
M  V30 50 1 26 47
M  V30 51 1 26 48
M  V30 52 1 27 49
M  V30 53 1 28 50
M  V30 END BOND
M  V30 END CTAB
M  END
>  <Dataset>  (103) 
ChEMBL_Kinases

>  <Ligand_Instance>  (103) 
nan

>  <PDB_ID>  (103) 
nan

>  <Standardized_SMILES>  (103) 
O=C(Nc1cc(-c2ccncc2)c[nH]c1=O)c1ccc(N2CCCCC2)cc1

>  <Name>  (103) 
nan

>  <Pocket>  (103) 
nan

>  <ATP_Site>  (103) 
nan

>  <Peripheral>  (103) 
nan

>  <Num_H_Atoms_ProtBoundConf>  (103) 
nan

>  <Num_Resolved_Atoms>  (103) 
nan

>  <Num_Not_Resolved_Atoms>  (103) 
nan

$$$$
CHEMBL497607
     RDKit          3D

  0  0  0  0  0  0  0  0  0  0999 V3000
M  V30 BEGIN CTAB
M  V30 COUNTS 32 33 0 0 0
M  V30 BEGIN ATOM
M  V30 1 C 0.231755 -4.589383 1.974503 0
M  V30 2 O 1.115313 -3.821058 1.206606 0
M  V30 3 C 0.450176 -2.717968 0.652991 0
M  V30 4 O -0.094320 -1.887181 1.638615 0
M  V30 5 C -0.801639 -0.767896 1.316784 0
M  V30 6 C -0.051238 0.393631 1.115706 0
M  V30 7 C 1.418615 0.440897 1.229992 0
M  V30 8 C 2.019560 1.109296 0.253493 0
M  V30 9 S 1.357244 1.972432 -1.195431 0
M  V30 10 C 2.912781 2.083242 -2.073917 0
M  V30 11 O 2.839638 2.354477 -3.292811 0
M  V30 12 N 3.915365 1.819128 -1.106662 0
M  V30 13 C 3.456653 1.304109 0.126118 0
M  V30 14 O 4.317834 1.046014 1.038236 0
M  V30 15 C -0.699100 1.553817 0.794563 0
M  V30 16 C -2.066979 1.626923 0.657343 0
M  V30 17 C -2.753998 0.430925 0.870716 0
M  V30 18 C -2.164597 -0.791927 1.202884 0
M  V30 19 C -3.022558 -1.970470 1.423113 0
M  V30 20 F -2.734369 -3.019259 0.593041 0
M  V30 21 F -4.361726 -1.579555 1.263292 0
M  V30 22 F -2.937217 -2.343676 2.759635 0
M  V30 23 H -0.612460 -4.959594 1.338588 0
M  V30 24 H -0.137301 -4.045930 2.864142 0
M  V30 25 H 0.813315 -5.466639 2.339744 0
M  V30 26 H -0.225776 -2.972581 -0.157236 0
M  V30 27 H 1.298155 -2.109294 0.199894 0
M  V30 28 H 2.060277 0.003798 2.006337 0
M  V30 29 H 4.883860 2.038656 -1.425274 0
M  V30 30 H -0.236835 2.536611 0.623137 0
M  V30 31 H -2.641491 2.514640 0.403335 0
M  V30 32 H -3.851050 0.469520 0.765898 0
M  V30 END ATOM
M  V30 BEGIN BOND
M  V30 1 1 1 2
M  V30 2 1 2 3
M  V30 3 1 3 4
M  V30 4 1 4 5
M  V30 5 2 5 6
M  V30 6 1 6 7
M  V30 7 2 7 8
M  V30 8 1 8 9
M  V30 9 1 9 10
M  V30 10 2 10 11
M  V30 11 1 10 12
M  V30 12 1 12 13
M  V30 13 2 13 14
M  V30 14 1 6 15
M  V30 15 2 15 16
M  V30 16 1 16 17
M  V30 17 2 17 18
M  V30 18 1 18 19
M  V30 19 1 19 20
M  V30 20 1 19 21
M  V30 21 1 19 22
M  V30 22 1 18 5
M  V30 23 1 13 8
M  V30 24 1 1 23
M  V30 25 1 1 24
M  V30 26 1 1 25
M  V30 27 1 3 26
M  V30 28 1 3 27
M  V30 29 1 7 28
M  V30 30 1 12 29
M  V30 31 1 15 30
M  V30 32 1 16 31
M  V30 33 1 17 32
M  V30 END BOND
M  V30 END CTAB
M  END
>  <Dataset>  (104) 
ChEMBL_Kinases

>  <Ligand_Instance>  (104) 
nan

>  <PDB_ID>  (104) 
nan

>  <Standardized_SMILES>  (104) 
COCOc1c(/C=C2\SC(=O)NC2=O)cccc1C(F)(F)F

>  <Name>  (104) 
nan

>  <Pocket>  (104) 
nan

>  <ATP_Site>  (104) 
nan

>  <Peripheral>  (104) 
nan

>  <Num_H_Atoms_ProtBoundConf>  (104) 
nan

>  <Num_Resolved_Atoms>  (104) 
nan

>  <Num_Not_Resolved_Atoms>  (104) 
nan

$$$$
CHEMBL1766456
     RDKit          3D

  0  0  0  0  0  0  0  0  0  0999 V3000
M  V30 BEGIN CTAB
M  V30 COUNTS 57 61 0 0 0
M  V30 BEGIN ATOM
M  V30 1 C 0.767678 -2.427896 5.163511 0
M  V30 2 C 1.190117 -2.503199 3.753807 0
M  V30 3 C 1.731402 -3.709994 3.373547 0
M  V30 4 C 2.145385 -3.819512 2.041968 0
M  V30 5 C 1.981125 -2.721916 1.222538 0
M  V30 6 C 1.428119 -1.507174 1.634828 0
M  V30 7 C 1.351682 -0.483241 0.606001 0
M  V30 8 N 1.893403 0.745533 0.430084 0
M  V30 9 N 1.502069 1.280912 -0.711604 0
M  V30 10 C 1.919344 2.559874 -1.199378 0
M  V30 11 C 1.083405 3.737291 -0.785403 0
M  V30 12 C 1.023268 3.933056 0.674949 0
M  V30 13 S 2.246984 4.980828 1.083372 0
M  V30 14 N 0.246926 3.474622 1.752681 0
M  V30 15 C -0.859635 2.610701 1.955166 0
M  V30 16 C -1.393517 2.313705 3.206014 0
M  V30 17 C -2.467532 1.483453 3.374874 0
M  V30 18 C -3.070827 0.900972 2.296900 0
M  V30 19 C -2.602428 1.146428 1.042573 0
M  V30 20 C -3.273027 0.513194 -0.045035 0
M  V30 21 N -3.831951 0.006570 -0.928611 0
M  V30 22 C -1.527318 1.982105 0.920374 0
M  V30 23 C 0.685668 0.392630 -1.304396 0
M  V30 24 C 0.559957 -0.747981 -0.501022 0
M  V30 25 C -0.285909 -1.836992 -0.974520 0
M  V30 26 C -1.429292 -2.342020 -0.395539 0
M  V30 27 C -2.126577 -3.383502 -0.968633 0
M  V30 28 C -1.688545 -3.958163 -2.160022 0
M  V30 29 N -2.353277 -4.990770 -2.754587 0
M  V30 30 C -1.878335 -5.504837 -3.907245 0
M  V30 31 C -0.742760 -5.053980 -4.546476 0
M  V30 32 C -0.056847 -3.999467 -3.946771 0
M  V30 33 C -0.540437 -3.462964 -2.756351 0
M  V30 34 C 0.159168 -2.408572 -2.169624 0
M  V30 35 N 1.037464 -1.444870 2.943819 0
M  V30 36 H 0.567115 -1.388399 5.487194 0
M  V30 37 H 1.556578 -2.870892 5.835465 0
M  V30 38 H -0.135859 -3.078553 5.271823 0
M  V30 39 H 1.868772 -4.577358 3.994193 0
M  V30 40 H 2.578228 -4.741680 1.682699 0
M  V30 41 H 2.321330 -2.868717 0.201633 0
M  V30 42 H 2.981920 2.714230 -0.860269 0
M  V30 43 H 1.917381 2.470904 -2.325747 0
M  V30 44 H 0.039143 3.657734 -1.228662 0
M  V30 45 H 1.476966 4.647570 -1.300842 0
M  V30 46 H 0.555426 3.873198 2.691357 0
M  V30 47 H -0.910814 2.777624 4.051671 0
M  V30 48 H -2.781614 1.337911 4.398509 0
M  V30 49 H -3.906919 0.266457 2.546910 0
M  V30 50 H -1.242401 2.112229 -0.102088 0
M  V30 51 H 0.233278 0.618700 -2.272578 0
M  V30 52 H -1.719006 -1.858676 0.526141 0
M  V30 53 H -3.019917 -3.757828 -0.490945 0
M  V30 54 H -2.538062 -6.322736 -4.238195 0
M  V30 55 H -0.470749 -5.556302 -5.468683 0
M  V30 56 H 0.819969 -3.653112 -4.443071 0
M  V30 57 H 1.046301 -2.070878 -2.687217 0
M  V30 END ATOM
M  V30 BEGIN BOND
M  V30 1 1 1 2
M  V30 2 2 2 3
M  V30 3 1 3 4
M  V30 4 2 4 5
M  V30 5 1 5 6
M  V30 6 1 6 7
M  V30 7 2 7 8
M  V30 8 1 8 9
M  V30 9 1 9 10
M  V30 10 1 10 11
M  V30 11 1 11 12
M  V30 12 2 12 13
M  V30 13 1 12 14
M  V30 14 1 14 15
M  V30 15 2 15 16
M  V30 16 1 16 17
M  V30 17 2 17 18
M  V30 18 1 18 19
M  V30 19 1 19 20
M  V30 20 3 20 21
M  V30 21 2 19 22
M  V30 22 1 9 23
M  V30 23 2 23 24
M  V30 24 1 24 25
M  V30 25 2 25 26
M  V30 26 1 26 27
M  V30 27 2 27 28
M  V30 28 1 28 29
M  V30 29 2 29 30
M  V30 30 1 30 31
M  V30 31 2 31 32
M  V30 32 1 32 33
M  V30 33 2 33 34
M  V30 34 2 6 35
M  V30 35 1 35 2
M  V30 36 1 24 7
M  V30 37 1 34 25
M  V30 38 1 22 15
M  V30 39 1 33 28
M  V30 40 1 1 36
M  V30 41 1 1 37
M  V30 42 1 1 38
M  V30 43 1 3 39
M  V30 44 1 4 40
M  V30 45 1 5 41
M  V30 46 1 10 42
M  V30 47 1 10 43
M  V30 48 1 11 44
M  V30 49 1 11 45
M  V30 50 1 14 46
M  V30 51 1 16 47
M  V30 52 1 17 48
M  V30 53 1 18 49
M  V30 54 1 22 50
M  V30 55 1 23 51
M  V30 56 1 26 52
M  V30 57 1 27 53
M  V30 58 1 30 54
M  V30 59 1 31 55
M  V30 60 1 32 56
M  V30 61 1 34 57
M  V30 END BOND
M  V30 END CTAB
M  END
>  <Dataset>  (105) 
ChEMBL_Kinases

>  <Ligand_Instance>  (105) 
nan

>  <PDB_ID>  (105) 
nan

>  <Standardized_SMILES>  (105) 
Cc1cccc(-c2nn(CCC(=S)Nc3cccc(C#N)c3)cc2-c2ccc3ncccc3c2)n1

>  <Name>  (105) 
nan

>  <Pocket>  (105) 
nan

>  <ATP_Site>  (105) 
nan

>  <Peripheral>  (105) 
nan

>  <Num_H_Atoms_ProtBoundConf>  (105) 
nan

>  <Num_Resolved_Atoms>  (105) 
nan

>  <Num_Not_Resolved_Atoms>  (105) 
nan

$$$$
CHEMBL4783147
     RDKit          3D

  0  0  0  0  0  0  0  0  0  0999 V3000
M  V30 BEGIN CTAB
M  V30 COUNTS 62 66 0 0 0
M  V30 BEGIN ATOM
M  V30 1 C 4.633745 -0.661814 3.857952 0
M  V30 2 C 3.962657 -0.461861 2.516721 0
M  V30 3 C 2.806913 -1.404668 2.316749 0
M  V30 4 O 4.882409 -0.697670 1.515860 0
M  V30 5 C 3.529177 0.957346 2.401885 0
M  V30 6 C 2.878518 1.301656 1.214782 0
M  V30 7 C 2.440412 2.605297 1.025687 0
M  V30 8 N 1.738835 3.109894 -0.094256 0
M  V30 9 C 0.754123 2.563360 -0.946716 0
M  V30 10 C 0.155503 1.335211 -0.817954 0
M  V30 11 C -0.805755 0.812938 -1.649634 0
M  V30 12 O -1.394030 -0.426891 -1.500299 0
M  V30 13 C -2.486585 -0.641703 -0.666708 0
M  V30 14 C -3.166467 0.254075 0.155712 0
M  V30 15 N -4.126172 -0.501670 0.721994 0
M  V30 16 C -5.026525 0.157984 1.658615 0
M  V30 17 C -5.729624 -0.639160 2.685220 0
M  V30 18 C -4.527840 0.124019 3.119855 0
M  V30 19 N -4.062407 -1.756476 0.299667 0
M  V30 20 C -3.034620 -1.898912 -0.587323 0
M  V30 21 C -2.855813 -3.225600 -1.145194 0
M  V30 22 C -1.839923 -4.139843 -0.447467 0
M  V30 23 N -1.535605 -4.637088 -1.771434 0
M  V30 24 C -0.233273 -5.115285 -2.042368 0
M  V30 25 C 0.154158 -6.370960 -1.347624 0
M  V30 26 F -0.676579 -7.435452 -1.661794 0
M  V30 27 F 1.398705 -6.735565 -1.892714 0
M  V30 28 F 0.393445 -6.246590 0.000200 0
M  V30 29 C -1.824133 -3.281915 -2.248529 0
M  V30 30 C -1.215075 1.586424 -2.716771 0
M  V30 31 C -0.609880 2.813551 -2.836939 0
M  V30 32 N 0.325723 3.273031 -1.992510 0
M  V30 33 C 2.715685 3.460840 2.096294 0
M  V30 34 C 3.346418 3.130020 3.248844 0
M  V30 35 N 3.750477 1.862361 3.386720 0
M  V30 36 H 4.461415 -1.709890 4.235662 0
M  V30 37 H 4.183156 0.036133 4.622401 0
M  V30 38 H 5.712683 -0.406172 3.817765 0
M  V30 39 H 2.386253 -1.784500 3.278050 0
M  V30 40 H 2.022311 -0.863838 1.729419 0
M  V30 41 H 3.082574 -2.291893 1.717377 0
M  V30 42 H 4.474322 -0.650985 0.613056 0
M  V30 43 H 2.713765 0.584318 0.428981 0
M  V30 44 H 2.041151 4.106384 -0.316528 0
M  V30 45 H 0.433068 0.695924 0.005922 0
M  V30 46 H -2.896025 1.290204 0.238269 0
M  V30 47 H -5.449818 1.144093 1.336817 0
M  V30 48 H -6.701493 -0.236349 3.076640 0
M  V30 49 H -5.718566 -1.730713 2.542400 0
M  V30 50 H -3.642611 -0.526102 3.343874 0
M  V30 51 H -4.637045 1.016092 3.737469 0
M  V30 52 H -3.774018 -3.766089 -1.461162 0
M  V30 53 H -1.094521 -3.487547 0.030069 0
M  V30 54 H -2.325589 -4.858751 0.217479 0
M  V30 55 H 0.524820 -4.344614 -1.826424 0
M  V30 56 H -0.147478 -5.316303 -3.140857 0
M  V30 57 H -2.255223 -3.241110 -3.276709 0
M  V30 58 H -0.949756 -2.626716 -2.059023 0
M  V30 59 H -1.971266 1.249838 -3.423729 0
M  V30 60 H -0.896126 3.461595 -3.661581 0
M  V30 61 H 2.392307 4.497334 1.997694 0
M  V30 62 H 3.513931 3.868534 4.023855 0
M  V30 END ATOM
M  V30 BEGIN BOND
M  V30 1 1 1 2
M  V30 2 1 2 3
M  V30 3 1 2 4
M  V30 4 1 2 5
M  V30 5 2 5 6
M  V30 6 1 6 7
M  V30 7 1 7 8
M  V30 8 1 8 9
M  V30 9 2 9 10
M  V30 10 1 10 11
M  V30 11 1 11 12
M  V30 12 1 12 13
M  V30 13 2 13 14
M  V30 14 1 14 15
M  V30 15 1 15 16
M  V30 16 1 16 17
M  V30 17 1 17 18
M  V30 18 1 15 19
M  V30 19 2 19 20
M  V30 20 1 20 21
M  V30 21 1 21 22
M  V30 22 1 22 23
M  V30 23 1 23 24
M  V30 24 1 24 25
M  V30 25 1 25 26
M  V30 26 1 25 27
M  V30 27 1 25 28
M  V30 28 1 23 29
M  V30 29 2 11 30
M  V30 30 1 30 31
M  V30 31 2 31 32
M  V30 32 2 7 33
M  V30 33 1 33 34
M  V30 34 2 34 35
M  V30 35 1 35 5
M  V30 36 1 32 9
M  V30 37 1 20 13
M  V30 38 1 29 21
M  V30 39 1 18 16
M  V30 40 1 1 36
M  V30 41 1 1 37
M  V30 42 1 1 38
M  V30 43 1 3 39
M  V30 44 1 3 40
M  V30 45 1 3 41
M  V30 46 1 4 42
M  V30 47 1 6 43
M  V30 48 1 8 44
M  V30 49 1 10 45
M  V30 50 1 14 46
M  V30 51 1 16 47
M  V30 52 1 17 48
M  V30 53 1 17 49
M  V30 54 1 18 50
M  V30 55 1 18 51
M  V30 56 1 21 52
M  V30 57 1 22 53
M  V30 58 1 22 54
M  V30 59 1 24 55
M  V30 60 1 24 56
M  V30 61 1 29 57
M  V30 62 1 29 58
M  V30 63 1 30 59
M  V30 64 1 31 60
M  V30 65 1 33 61
M  V30 66 1 34 62
M  V30 END BOND
M  V30 END CTAB
M  END
>  <Dataset>  (106) 
ChEMBL_Kinases

>  <Ligand_Instance>  (106) 
nan

>  <PDB_ID>  (106) 
nan

>  <Standardized_SMILES>  (106) 
CC(C)(O)c1cc(Nc2cc(Oc3cn(C4CC4)nc3C3CN(CC(F)(F)F)C3)ccn2)ccn1

>  <Name>  (106) 
nan

>  <Pocket>  (106) 
nan

>  <ATP_Site>  (106) 
nan

>  <Peripheral>  (106) 
nan

>  <Num_H_Atoms_ProtBoundConf>  (106) 
nan

>  <Num_Resolved_Atoms>  (106) 
nan

>  <Num_Not_Resolved_Atoms>  (106) 
nan

$$$$
CHEMBL497151
     RDKit          3D

  0  0  0  0  0  0  0  0  0  0999 V3000
M  V30 BEGIN CTAB
M  V30 COUNTS 31 34 0 0 0
M  V30 BEGIN ATOM
M  V30 1 O 0.415022 -5.685624 6.192029 0
M  V30 2 C 0.567456 -4.754012 5.362066 0
M  V30 3 N -0.304864 -4.582214 4.332718 0
M  V30 4 C 0.100877 -3.525709 3.618123 0
M  V30 5 C -0.528013 -2.977796 2.430718 0
M  V30 6 C -0.244602 -1.956921 1.634524 0
M  V30 7 C -1.012165 -1.633531 0.547933 0
M  V30 8 C -0.880282 -0.604691 -0.404087 0
M  V30 9 O 0.162611 0.219008 -0.254089 0
M  V30 10 C 0.713452 1.281369 -0.833592 0
M  V30 11 C 0.509906 2.114304 -1.906390 0
M  V30 12 C 1.288317 3.179264 -2.267138 0
M  V30 13 C 2.382775 3.439031 -1.474726 0
M  V30 14 I 3.559743 5.087308 -2.060080 0
M  V30 15 C 2.687298 2.663777 -0.364225 0
M  V30 16 C 1.838408 1.586673 -0.059319 0
M  V30 17 C -1.865766 -0.603276 -1.364661 0
M  V30 18 N -2.924933 -1.407379 -1.551082 0
M  V30 19 C -3.075236 -2.399840 -0.655186 0
M  V30 20 C -2.122112 -2.475529 0.351889 0
M  V30 21 S -2.002799 -3.689821 1.743127 0
M  V30 22 N 1.210710 -3.073944 4.223799 0
M  V30 23 O 1.486545 -3.806386 5.261395 0
M  V30 24 H 0.641799 -1.407779 1.920532 0
M  V30 25 H -0.343971 1.853745 -2.463828 0
M  V30 26 H 0.981396 3.729570 -3.143742 0
M  V30 27 H 3.576174 3.000983 0.146778 0
M  V30 28 H 2.264034 1.121366 0.843556 0
M  V30 29 H -1.845441 0.159408 -2.145765 0
M  V30 30 H -3.858764 -3.122040 -0.659349 0
M  V30 31 H 1.777062 -2.253628 3.913534 0
M  V30 END ATOM
M  V30 BEGIN BOND
M  V30 1 2 1 2
M  V30 2 1 2 3
M  V30 3 2 3 4
M  V30 4 1 4 5
M  V30 5 2 5 6
M  V30 6 1 6 7
M  V30 7 2 7 8
M  V30 8 1 8 9
M  V30 9 1 9 10
M  V30 10 2 10 11
M  V30 11 1 11 12
M  V30 12 2 12 13
M  V30 13 1 13 14
M  V30 14 1 13 15
M  V30 15 2 15 16
M  V30 16 1 8 17
M  V30 17 2 17 18
M  V30 18 1 18 19
M  V30 19 2 19 20
M  V30 20 1 20 21
M  V30 21 1 4 22
M  V30 22 1 22 23
M  V30 23 1 23 2
M  V30 24 1 21 5
M  V30 25 1 20 7
M  V30 26 1 16 10
M  V30 27 1 6 24
M  V30 28 1 11 25
M  V30 29 1 12 26
M  V30 30 1 15 27
M  V30 31 1 16 28
M  V30 32 1 17 29
M  V30 33 1 19 30
M  V30 34 1 22 31
M  V30 END BOND
M  V30 END CTAB
M  END
>  <Dataset>  (107) 
ChEMBL_Kinases

>  <Ligand_Instance>  (107) 
nan

>  <PDB_ID>  (107) 
nan

>  <Standardized_SMILES>  (107) 
O=c1nc(-c2cc3c(Oc4ccc(I)cc4)cncc3s2)[nH]o1

>  <Name>  (107) 
nan

>  <Pocket>  (107) 
nan

>  <ATP_Site>  (107) 
nan

>  <Peripheral>  (107) 
nan

>  <Num_H_Atoms_ProtBoundConf>  (107) 
nan

>  <Num_Resolved_Atoms>  (107) 
nan

>  <Num_Not_Resolved_Atoms>  (107) 
nan

$$$$
CHEMBL496996
     RDKit          3D

  0  0  0  0  0  0  0  0  0  0999 V3000
M  V30 BEGIN CTAB
M  V30 COUNTS 21 22 0 0 0
M  V30 BEGIN ATOM
M  V30 1 O 0.458632 -3.664605 2.585387 0
M  V30 2 C 1.126457 -2.654886 2.903906 0
M  V30 3 N 2.171778 -1.955346 3.566454 0
M  V30 4 C 2.401928 -0.665264 3.106638 0
M  V30 5 O 3.323163 -0.017187 3.674406 0
M  V30 6 C 1.579732 -0.182502 2.034437 0
M  V30 7 C 1.724879 0.883253 1.252433 0
M  V30 8 C 0.672364 1.074669 0.231962 0
M  V30 9 C 0.306408 -0.077237 -0.477682 0
M  V30 10 C -0.685205 -0.064065 -1.444498 0
M  V30 11 C -1.327640 1.125585 -1.714547 0
M  V30 12 Br -2.706978 1.144525 -3.045407 0
M  V30 13 C -0.970467 2.263908 -1.020945 0
M  V30 14 C 0.010074 2.257752 -0.060767 0
M  V30 15 S 0.218198 -1.383008 1.977900 0
M  V30 16 H 2.536475 -2.622214 4.280511 0
M  V30 17 H 2.606379 1.526765 1.432065 0
M  V30 18 H 0.741972 -1.084355 -0.386464 0
M  V30 19 H -0.993697 -0.946978 -2.010332 0
M  V30 20 H -1.477645 3.218323 -1.226631 0
M  V30 21 H 0.331032 3.108030 0.509729 0
M  V30 END ATOM
M  V30 BEGIN BOND
M  V30 1 2 1 2
M  V30 2 1 2 3
M  V30 3 1 3 4
M  V30 4 2 4 5
M  V30 5 1 4 6
M  V30 6 2 6 7
M  V30 7 1 7 8
M  V30 8 2 8 9
M  V30 9 1 9 10
M  V30 10 2 10 11
M  V30 11 1 11 12
M  V30 12 1 11 13
M  V30 13 2 13 14
M  V30 14 1 6 15
M  V30 15 1 15 2
M  V30 16 1 14 8
M  V30 17 1 3 16
M  V30 18 1 7 17
M  V30 19 1 9 18
M  V30 20 1 10 19
M  V30 21 1 13 20
M  V30 22 1 14 21
M  V30 END BOND
M  V30 END CTAB
M  END
>  <Dataset>  (108) 
ChEMBL_Kinases

>  <Ligand_Instance>  (108) 
nan

>  <PDB_ID>  (108) 
nan

>  <Standardized_SMILES>  (108) 
O=C1NC(=O)/C(=C/c2ccc(Br)cc2)S1

>  <Name>  (108) 
nan

>  <Pocket>  (108) 
nan

>  <ATP_Site>  (108) 
nan

>  <Peripheral>  (108) 
nan

>  <Num_H_Atoms_ProtBoundConf>  (108) 
nan

>  <Num_Resolved_Atoms>  (108) 
nan

>  <Num_Not_Resolved_Atoms>  (108) 
nan

$$$$
CHEMBL496995
     RDKit          3D

  0  0  0  0  0  0  0  0  0  0999 V3000
M  V30 BEGIN CTAB
M  V30 COUNTS 21 22 0 0 0
M  V30 BEGIN ATOM
M  V30 1 O 1.819127 -2.671686 4.366685 0
M  V30 2 C 1.717524 -1.512632 3.845144 0
M  V30 3 N 2.685684 -0.450900 3.950796 0
M  V30 4 C 2.610785 0.556434 2.954606 0
M  V30 5 O 3.429350 1.539481 2.967864 0
M  V30 6 C 1.554175 0.362135 1.963994 0
M  V30 7 C 1.490217 0.878434 0.773452 0
M  V30 8 C 0.335623 0.562522 -0.083635 0
M  V30 9 C 0.693826 0.353133 -1.430722 0
M  V30 10 C -0.370689 0.058561 -2.265639 0
M  V30 11 C -1.696318 -0.041141 -1.898389 0
M  V30 12 Cl -2.993808 -0.417094 -3.005361 0
M  V30 13 C -1.885985 0.188255 -0.561637 0
M  V30 14 C -0.957702 0.490321 0.408258 0
M  V30 15 S 0.418049 -0.756657 2.826331 0
M  V30 16 H 3.384172 -0.486653 4.750676 0
M  V30 17 H 2.294982 1.533239 0.450018 0
M  V30 18 H 1.715792 0.418338 -1.773219 0
M  V30 19 H -0.110963 -0.110100 -3.324786 0
M  V30 20 H -2.921861 0.129354 -0.180390 0
M  V30 21 H -1.164140 0.661819 1.434509 0
M  V30 END ATOM
M  V30 BEGIN BOND
M  V30 1 2 1 2
M  V30 2 1 2 3
M  V30 3 1 3 4
M  V30 4 2 4 5
M  V30 5 1 4 6
M  V30 6 2 6 7
M  V30 7 1 7 8
M  V30 8 2 8 9
M  V30 9 1 9 10
M  V30 10 2 10 11
M  V30 11 1 11 12
M  V30 12 1 11 13
M  V30 13 2 13 14
M  V30 14 1 6 15
M  V30 15 1 15 2
M  V30 16 1 14 8
M  V30 17 1 3 16
M  V30 18 1 7 17
M  V30 19 1 9 18
M  V30 20 1 10 19
M  V30 21 1 13 20
M  V30 22 1 14 21
M  V30 END BOND
M  V30 END CTAB
M  END
>  <Dataset>  (109) 
ChEMBL_Kinases

>  <Ligand_Instance>  (109) 
nan

>  <PDB_ID>  (109) 
nan

>  <Standardized_SMILES>  (109) 
O=C1NC(=O)/C(=C/c2ccc(Cl)cc2)S1

>  <Name>  (109) 
nan

>  <Pocket>  (109) 
nan

>  <ATP_Site>  (109) 
nan

>  <Peripheral>  (109) 
nan

>  <Num_H_Atoms_ProtBoundConf>  (109) 
nan

>  <Num_Resolved_Atoms>  (109) 
nan

>  <Num_Not_Resolved_Atoms>  (109) 
nan

$$$$
CHEMBL4783244
     RDKit          3D

  0  0  0  0  0  0  0  0  0  0999 V3000
M  V30 BEGIN CTAB
M  V30 COUNTS 38 41 0 0 0
M  V30 BEGIN ATOM
M  V30 1 C 2.954846 -3.914704 1.766851 0
M  V30 2 C 1.775981 -4.410934 1.255584 0
M  V30 3 C 0.845947 -3.599431 0.677828 0
M  V30 4 C 1.279714 -2.237553 0.692688 0
M  V30 5 C 2.417259 -1.627367 1.169096 0
M  V30 6 C 3.250762 -2.571306 1.718870 0
M  V30 7 C 2.742339 -0.208755 1.158655 0
M  V30 8 C 3.943552 0.384816 1.424142 0
M  V30 9 N 3.742688 1.698578 1.284556 0
M  V30 10 N 2.492025 1.935949 0.950432 0
M  V30 11 C 1.733132 3.021659 0.677585 0
M  V30 12 C 0.380158 2.898367 0.335502 0
M  V30 13 C -0.253561 1.653698 0.259149 0
M  V30 14 N 0.548803 0.670371 0.536568 0
M  V30 15 C 1.813866 0.785217 0.855765 0
M  V30 16 N -1.643442 1.651598 -0.094456 0
M  V30 17 C -3.002739 1.421764 0.216429 0
M  V30 18 C -3.684742 0.119017 0.105279 0
M  V30 19 O -3.186483 -0.957058 0.781301 0
M  V30 20 C -2.127371 -1.502166 0.062445 0
M  V30 21 C -1.277344 -2.416617 0.862178 0
M  V30 22 O -0.197591 -2.946260 0.067781 0
M  V30 23 H 3.506263 -4.752706 2.161420 0
M  V30 24 H 1.182831 -5.284824 1.089183 0
M  V30 25 H 0.927836 -1.286560 0.345272 0
M  V30 26 H 4.206351 -2.318603 2.156060 0
M  V30 27 H 4.869189 -0.099715 1.692174 0
M  V30 28 H 2.197290 4.006894 0.728838 0
M  V30 29 H -0.227513 3.790924 0.112468 0
M  V30 30 H -1.543015 1.996159 -1.102022 0
M  V30 31 H -3.672790 2.172483 -0.350752 0
M  V30 32 H -3.172151 1.851835 1.292838 0
M  V30 33 H -4.771840 0.203136 0.438125 0
M  V30 34 H -3.799746 -0.094390 -0.999288 0
M  V30 35 H -1.568024 -0.699939 -0.411602 0
M  V30 36 H -2.575982 -2.062013 -0.838125 0
M  V30 37 H -0.794477 -1.844932 1.677521 0
M  V30 38 H -1.837303 -3.247764 1.325842 0
M  V30 END ATOM
M  V30 BEGIN BOND
M  V30 1 2 1 2
M  V30 2 1 2 3
M  V30 3 2 3 4
M  V30 4 1 4 5
M  V30 5 2 5 6
M  V30 6 1 5 7
M  V30 7 1 7 8
M  V30 8 2 8 9
M  V30 9 1 9 10
M  V30 10 1 10 11
M  V30 11 2 11 12
M  V30 12 1 12 13
M  V30 13 2 13 14
M  V30 14 1 14 15
M  V30 15 1 13 16
M  V30 16 1 16 17
M  V30 17 1 17 18
M  V30 18 1 18 19
M  V30 19 1 19 20
M  V30 20 1 20 21
M  V30 21 1 21 22
M  V30 22 1 6 1
M  V30 23 2 15 7
M  V30 24 1 22 3
M  V30 25 1 15 10
M  V30 26 1 1 23
M  V30 27 1 2 24
M  V30 28 1 4 25
M  V30 29 1 6 26
M  V30 30 1 8 27
M  V30 31 1 11 28
M  V30 32 1 12 29
M  V30 33 1 16 30
M  V30 34 1 17 31
M  V30 35 1 17 32
M  V30 36 1 18 33
M  V30 37 1 18 34
M  V30 38 1 20 35
M  V30 39 1 20 36
M  V30 40 1 21 37
M  V30 41 1 21 38
M  V30 END BOND
M  V30 END CTAB
M  END
>  <Dataset>  (110) 
ChEMBL_Kinases

>  <Ligand_Instance>  (110) 
nan

>  <PDB_ID>  (110) 
nan

>  <Standardized_SMILES>  (110) 
c1cc2cc(c1)-c1cnn3ccc(nc13)NCCOCCO2

>  <Name>  (110) 
nan

>  <Pocket>  (110) 
nan

>  <ATP_Site>  (110) 
nan

>  <Peripheral>  (110) 
nan

>  <Num_H_Atoms_ProtBoundConf>  (110) 
nan

>  <Num_Resolved_Atoms>  (110) 
nan

>  <Num_Not_Resolved_Atoms>  (110) 
nan

$$$$
CHEMBL496786
     RDKit          3D

  0  0  0  0  0  0  0  0  0  0999 V3000
M  V30 BEGIN CTAB
M  V30 COUNTS 21 22 0 0 0
M  V30 BEGIN ATOM
M  V30 1 O 0.484747 -3.727342 2.943807 0
M  V30 2 C 0.853228 -2.531568 2.996894 0
M  V30 3 N 1.835095 -1.829218 3.743677 0
M  V30 4 C 2.139519 -0.535596 3.284774 0
M  V30 5 O 2.998995 0.192283 3.862504 0
M  V30 6 C 1.407332 -0.082031 2.103470 0
M  V30 7 C 1.600580 0.956345 1.309549 0
M  V30 8 C 0.655049 1.121633 0.180605 0
M  V30 9 C 0.484619 -0.083672 -0.510160 0
M  V30 10 C -0.377586 -0.201247 -1.594229 0
M  V30 11 C -1.074065 0.909727 -1.986272 0
M  V30 12 F -1.936275 0.849239 -3.040299 0
M  V30 13 C -0.902208 2.094852 -1.303106 0
M  V30 14 C -0.055944 2.219216 -0.234113 0
M  V30 15 S 0.067369 -1.299824 1.962613 0
M  V30 16 H 2.257005 -2.311355 4.569959 0
M  V30 17 H 2.449866 1.597389 1.567037 0
M  V30 18 H 0.984188 -1.048707 -0.320866 0
M  V30 19 H -0.543872 -1.098793 -2.155676 0
M  V30 20 H -1.440272 3.010714 -1.580468 0
M  V30 21 H 0.160471 3.083120 0.368855 0
M  V30 END ATOM
M  V30 BEGIN BOND
M  V30 1 2 1 2
M  V30 2 1 2 3
M  V30 3 1 3 4
M  V30 4 2 4 5
M  V30 5 1 4 6
M  V30 6 2 6 7
M  V30 7 1 7 8
M  V30 8 2 8 9
M  V30 9 1 9 10
M  V30 10 2 10 11
M  V30 11 1 11 12
M  V30 12 1 11 13
M  V30 13 2 13 14
M  V30 14 1 6 15
M  V30 15 1 15 2
M  V30 16 1 14 8
M  V30 17 1 3 16
M  V30 18 1 7 17
M  V30 19 1 9 18
M  V30 20 1 10 19
M  V30 21 1 13 20
M  V30 22 1 14 21
M  V30 END BOND
M  V30 END CTAB
M  END
>  <Dataset>  (111) 
ChEMBL_Kinases

>  <Ligand_Instance>  (111) 
nan

>  <PDB_ID>  (111) 
nan

>  <Standardized_SMILES>  (111) 
O=C1NC(=O)/C(=C/c2ccc(F)cc2)S1

>  <Name>  (111) 
nan

>  <Pocket>  (111) 
nan

>  <ATP_Site>  (111) 
nan

>  <Peripheral>  (111) 
nan

>  <Num_H_Atoms_ProtBoundConf>  (111) 
nan

>  <Num_Resolved_Atoms>  (111) 
nan

>  <Num_Not_Resolved_Atoms>  (111) 
nan

$$$$
CHEMBL4783382
     RDKit          3D

  0  0  0  0  0  0  0  0  0  0999 V3000
M  V30 BEGIN CTAB
M  V30 COUNTS 45 48 0 0 0
M  V30 BEGIN ATOM
M  V30 1 O -0.363314 -3.234825 0.602591 0
M  V30 2 C 0.172557 -4.123403 -0.055207 0
M  V30 3 N 0.999932 -3.853380 -1.171557 0
M  V30 4 C 1.276259 -2.558010 -1.687883 0
M  V30 5 C 2.204220 -2.300124 -2.689071 0
M  V30 6 N 2.100192 -0.950552 -2.896524 0
M  V30 7 N 1.188005 -0.461138 -2.087489 0
M  V30 8 C 0.716653 0.898907 -1.970339 0
M  V30 9 C 0.073953 1.274801 -3.190917 0
M  V30 10 S -0.462620 3.071958 -2.759772 0
M  V30 11 C 0.214096 3.007872 -1.152920 0
M  V30 12 C 0.135829 4.184535 -0.229003 0
M  V30 13 O -0.428522 5.216750 -0.652610 0
M  V30 14 N 0.738525 3.958389 1.063296 0
M  V30 15 C 0.701276 5.047733 2.023972 0
M  V30 16 C 2.078085 5.284310 2.608297 0
M  V30 17 N 1.750073 4.352910 3.668067 0
M  V30 18 C 0.354222 4.632435 3.429157 0
M  V30 19 C 0.750665 1.825283 -0.983490 0
M  V30 20 C 0.622816 -1.384741 -1.295688 0
M  V30 21 N -0.124129 -5.441580 0.419132 0
M  V30 22 C -0.966932 -5.435239 1.592787 0
M  V30 23 C -0.123027 -5.506086 2.709808 0
M  V30 24 C -0.662516 -5.513547 3.998865 0
M  V30 25 C -2.045090 -5.450213 4.161123 0
M  V30 26 C -2.835379 -5.380714 3.039480 0
M  V30 27 C -2.325200 -5.372668 1.783042 0
M  V30 28 Cl -3.185049 -5.277110 0.260753 0
M  V30 29 H 1.413902 -4.708658 -1.618475 0
M  V30 30 H 2.821713 -3.056462 -3.142177 0
M  V30 31 H -0.200925 0.989789 -4.159502 0
M  V30 32 H 1.189878 3.062995 1.325548 0
M  V30 33 H 0.226893 5.972583 1.696897 0
M  V30 34 H 2.217752 6.304542 3.045199 0
M  V30 35 H 2.922807 4.921373 1.987936 0
M  V30 36 H 2.006334 3.384456 3.380214 0
M  V30 37 H -0.039942 5.474809 4.009864 0
M  V30 38 H -0.244872 3.696200 3.512286 0
M  V30 39 H 1.247400 1.528312 -0.048707 0
M  V30 40 H -0.132497 -1.269513 -0.552679 0
M  V30 41 H 0.276503 -6.273162 -0.102259 0
M  V30 42 H 0.976604 -5.556862 2.723333 0
M  V30 43 H -0.012140 -5.571701 4.890927 0
M  V30 44 H -2.475349 -5.457176 5.148618 0
M  V30 45 H -3.920806 -5.327082 3.085221 0
M  V30 END ATOM
M  V30 BEGIN BOND
M  V30 1 2 1 2
M  V30 2 1 2 3
M  V30 3 1 3 4
M  V30 4 1 4 5
M  V30 5 2 5 6
M  V30 6 1 6 7
M  V30 7 1 7 8
M  V30 8 2 8 9
M  V30 9 1 9 10
M  V30 10 1 10 11
M  V30 11 1 11 12
M  V30 12 2 12 13
M  V30 13 1 12 14
M  V30 14 1 14 15
M  V30 15 1 15 16
M  V30 16 1 16 17
M  V30 17 1 17 18
M  V30 18 2 11 19
M  V30 19 1 7 20
M  V30 20 1 2 21
M  V30 21 1 21 22
M  V30 22 2 22 23
M  V30 23 1 23 24
M  V30 24 2 24 25
M  V30 25 1 25 26
M  V30 26 2 26 27
M  V30 27 1 27 28
M  V30 28 2 20 4
M  V30 29 1 27 22
M  V30 30 1 19 8
M  V30 31 1 18 15
M  V30 32 1 3 29
M  V30 33 1 5 30
M  V30 34 1 9 31
M  V30 35 1 14 32
M  V30 36 1 15 33
M  V30 37 1 16 34
M  V30 38 1 16 35
M  V30 39 1 17 36
M  V30 40 1 18 37
M  V30 41 1 18 38
M  V30 42 1 19 39
M  V30 43 1 20 40
M  V30 44 1 21 41
M  V30 45 1 23 42
M  V30 46 1 24 43
M  V30 47 1 25 44
M  V30 48 1 26 45
M  V30 END BOND
M  V30 END CTAB
M  END
>  <Dataset>  (112) 
ChEMBL_Kinases

>  <Ligand_Instance>  (112) 
nan

>  <PDB_ID>  (112) 
nan

>  <Standardized_SMILES>  (112) 
O=C(Nc1cnn(-c2csc(C(=O)NC3CNC3)c2)c1)Nc1ccccc1Cl

>  <Name>  (112) 
nan

>  <Pocket>  (112) 
nan

>  <ATP_Site>  (112) 
nan

>  <Peripheral>  (112) 
nan

>  <Num_H_Atoms_ProtBoundConf>  (112) 
nan

>  <Num_Resolved_Atoms>  (112) 
nan

>  <Num_Not_Resolved_Atoms>  (112) 
nan

$$$$
CHEMBL4783577
     RDKit          3D

  0  0  0  0  0  0  0  0  0  0999 V3000
M  V30 BEGIN CTAB
M  V30 COUNTS 45 47 0 0 0
M  V30 BEGIN ATOM
M  V30 1 C 1.467333 -3.680233 2.524809 0
M  V30 2 O 0.227994 -3.831403 1.838235 0
M  V30 3 C -0.125610 -3.040923 0.764981 0
M  V30 4 C 0.708540 -2.048731 0.290131 0
M  V30 5 C 0.284552 -1.289270 -0.798484 0
M  V30 6 N 1.219661 -0.276246 -1.225882 0
M  V30 7 C 1.002543 0.963333 -0.559618 0
M  V30 8 O 0.016365 0.802419 0.239911 0
M  V30 9 C 1.849863 2.129738 -0.851173 0 CFG=2
M  V30 10 N 2.830020 1.764280 -1.878696 0
M  V30 11 C 2.654774 2.580356 0.345968 0
M  V30 12 C 1.763218 2.958291 1.469767 0
M  V30 13 C 1.364745 2.063319 2.421500 0
M  V30 14 C 0.535325 2.398126 3.470029 0
M  V30 15 C 0.058154 3.685882 3.608686 0
M  V30 16 C 0.454244 4.614457 2.646249 0
M  V30 17 C 1.293061 4.249111 1.597142 0
M  V30 18 C -0.923511 -1.457246 -1.446276 0
M  V30 19 C -1.726993 -2.464902 -0.934204 0
M  V30 20 C -1.354924 -3.251992 0.148075 0
M  V30 21 C -2.275264 -4.292485 0.615121 0
M  V30 22 C -2.552864 -4.485382 1.969877 0
M  V30 23 N -3.431304 -5.516116 2.036183 0
M  V30 24 N -3.700290 -5.955261 0.815915 0
M  V30 25 C -3.012528 -5.233391 -0.090637 0
M  V30 26 H 1.742099 -4.582329 3.081543 0
M  V30 27 H 2.307559 -3.490066 1.824822 0
M  V30 28 H 1.330922 -2.843148 3.238448 0
M  V30 29 H 1.660911 -1.876092 0.758495 0
M  V30 30 H 1.986547 -0.416424 -1.949682 0
M  V30 31 H 1.304667 3.000822 -1.270892 0
M  V30 32 H 2.239149 1.590475 -2.741111 0
M  V30 33 H 3.370154 2.633966 -2.085361 0
M  V30 34 H 3.393235 1.808527 0.628815 0
M  V30 35 H 3.244656 3.488907 0.111385 0
M  V30 36 H 1.685103 1.033330 2.401906 0
M  V30 37 H 0.236599 1.674074 4.205968 0
M  V30 38 H -0.588423 3.964537 4.418580 0
M  V30 39 H 0.055531 5.622712 2.790931 0
M  V30 40 H 1.561629 5.019760 0.884762 0
M  V30 41 H -1.187592 -0.836554 -2.279729 0
M  V30 42 H -2.685105 -2.596703 -1.449551 0
M  V30 43 H -2.141777 -3.918996 2.781961 0
M  V30 44 H -4.344233 -6.743923 0.531560 0
M  V30 45 H -2.969902 -5.291611 -1.180314 0
M  V30 END ATOM
M  V30 BEGIN BOND
M  V30 1 1 1 2
M  V30 2 1 2 3
M  V30 3 2 3 4
M  V30 4 1 4 5
M  V30 5 1 5 6
M  V30 6 1 6 7
M  V30 7 2 7 8
M  V30 8 1 7 9
M  V30 9 1 9 10
M  V30 10 1 9 11
M  V30 11 1 11 12
M  V30 12 2 12 13
M  V30 13 1 13 14
M  V30 14 2 14 15
M  V30 15 1 15 16
M  V30 16 2 16 17
M  V30 17 2 5 18
M  V30 18 1 18 19
M  V30 19 2 19 20
M  V30 20 1 20 21
M  V30 21 1 21 22
M  V30 22 2 22 23
M  V30 23 1 23 24
M  V30 24 1 24 25
M  V30 25 1 20 3
M  V30 26 2 25 21
M  V30 27 1 17 12
M  V30 28 1 1 26
M  V30 29 1 1 27
M  V30 30 1 1 28
M  V30 31 1 4 29
M  V30 32 1 6 30
M  V30 33 1 9 31 CFG=3
M  V30 34 1 10 32
M  V30 35 1 10 33
M  V30 36 1 11 34
M  V30 37 1 11 35
M  V30 38 1 13 36
M  V30 39 1 14 37
M  V30 40 1 15 38
M  V30 41 1 16 39
M  V30 42 1 17 40
M  V30 43 1 18 41
M  V30 44 1 19 42
M  V30 45 1 22 43
M  V30 46 1 24 44
M  V30 47 1 25 45
M  V30 END BOND
M  V30 END CTAB
M  END
>  <Dataset>  (113) 
ChEMBL_Kinases

>  <Ligand_Instance>  (113) 
nan

>  <PDB_ID>  (113) 
nan

>  <Standardized_SMILES>  (113) 
COc1cc(NC(=O)[C@H](N)Cc2ccccc2)ccc1-c1cn[nH]c1

>  <Name>  (113) 
nan

>  <Pocket>  (113) 
nan

>  <ATP_Site>  (113) 
nan

>  <Peripheral>  (113) 
nan

>  <Num_H_Atoms_ProtBoundConf>  (113) 
nan

>  <Num_Resolved_Atoms>  (113) 
nan

>  <Num_Not_Resolved_Atoms>  (113) 
nan

$$$$
CHEMBL4782867
     RDKit          3D

  0  0  0  0  0  0  0  0  0  0999 V3000
M  V30 BEGIN CTAB
M  V30 COUNTS 61 65 0 0 0
M  V30 BEGIN ATOM
M  V30 1 C 5.397103 -1.834147 4.769179 0
M  V30 2 C 4.571464 -2.668703 3.815985 0
M  V30 3 C 3.896755 -3.812712 4.569798 0
M  V30 4 O 5.319035 -3.214652 2.780541 0
M  V30 5 C 3.476111 -1.798382 3.307832 0
M  V30 6 C 3.779929 -1.097478 2.150116 0
M  V30 7 C 2.750051 -0.290786 1.689466 0
M  V30 8 N 3.013270 0.440474 0.469363 0
M  V30 9 C 2.169405 1.320040 -0.261006 0
M  V30 10 C 1.066734 0.620679 -0.734167 0
M  V30 11 C 0.081116 1.240442 -1.494246 0
M  V30 12 O -1.042419 0.588813 -1.993012 0
M  V30 13 C -2.219814 0.501894 -1.247349 0
M  V30 14 C -2.518317 0.991558 0.014181 0
M  V30 15 N -3.810188 0.604497 0.216086 0
M  V30 16 C -4.299048 1.041742 1.531192 0
M  V30 17 C -4.974228 0.028577 2.367587 0
M  V30 18 C -3.593514 0.499492 2.732352 0
M  V30 19 N -4.262442 -0.060211 -0.824252 0
M  V30 20 C -3.304863 -0.152426 -1.767972 0
M  V30 21 C -3.689312 -0.907755 -2.973045 0
M  V30 22 C -3.814471 -2.402675 -2.756277 0
M  V30 23 C -2.624135 -2.678523 -3.647474 0
M  V30 24 O -2.902836 -3.451261 -4.764047 0
M  V30 25 C -1.452019 -3.227258 -2.876592 0
M  V30 26 F -1.909492 -4.420591 -2.303757 0
M  V30 27 F -0.415752 -3.554003 -3.725765 0
M  V30 28 F -1.009310 -2.424247 -1.868418 0
M  V30 29 C -2.601046 -1.208051 -3.954716 0
M  V30 30 C 0.164262 2.598023 -1.812355 0
M  V30 31 C 1.300181 3.239895 -1.303896 0
M  V30 32 N 2.257182 2.627448 -0.562479 0
M  V30 33 C 1.502737 -0.115906 2.240311 0
M  V30 34 C 1.300717 -0.867664 3.403887 0
M  V30 35 N 2.274149 -1.653054 3.869932 0
M  V30 36 H 6.017785 -1.142723 4.154145 0
M  V30 37 H 6.025483 -2.461800 5.434371 0
M  V30 38 H 4.699650 -1.199188 5.349675 0
M  V30 39 H 3.241718 -3.382888 5.354047 0
M  V30 40 H 3.253082 -4.389379 3.866931 0
M  V30 41 H 4.686489 -4.446915 5.000589 0
M  V30 42 H 4.715378 -3.319075 2.013323 0
M  V30 43 H 4.713119 -1.164704 1.654489 0
M  V30 44 H 3.914383 0.413406 -0.053333 0
M  V30 45 H 0.836202 -0.423709 -0.590362 0
M  V30 46 H -1.741079 1.528077 0.530128 0
M  V30 47 H -4.667990 2.082579 1.633824 0
M  V30 48 H -5.752428 0.318319 3.109779 0
M  V30 49 H -5.065325 -1.017750 2.002479 0
M  V30 50 H -2.728151 -0.180735 2.489206 0
M  V30 51 H -3.404221 1.123398 3.616592 0
M  V30 52 H -4.625095 -0.499230 -3.410971 0
M  V30 53 H -3.627800 -2.696112 -1.702372 0
M  V30 54 H -4.741148 -2.822919 -3.168260 0
M  V30 55 H -2.098817 -3.989261 -4.971312 0
M  V30 56 H -2.998129 -1.006482 -4.990836 0
M  V30 57 H -1.638547 -0.713585 -3.754202 0
M  V30 58 H -0.540801 3.158170 -2.388323 0
M  V30 59 H 1.507998 4.294296 -1.465659 0
M  V30 60 H 0.776302 0.547738 1.783398 0
M  V30 61 H 0.337137 -0.773236 3.881094 0
M  V30 END ATOM
M  V30 BEGIN BOND
M  V30 1 1 1 2
M  V30 2 1 2 3
M  V30 3 1 2 4
M  V30 4 1 2 5
M  V30 5 2 5 6
M  V30 6 1 6 7
M  V30 7 1 7 8
M  V30 8 1 8 9
M  V30 9 2 9 10
M  V30 10 1 10 11
M  V30 11 1 11 12
M  V30 12 1 12 13
M  V30 13 2 13 14
M  V30 14 1 14 15
M  V30 15 1 15 16
M  V30 16 1 16 17
M  V30 17 1 17 18
M  V30 18 1 15 19
M  V30 19 2 19 20
M  V30 20 1 20 21
M  V30 21 1 21 22
M  V30 22 1 22 23
M  V30 23 1 23 24
M  V30 24 1 23 25
M  V30 25 1 25 26
M  V30 26 1 25 27
M  V30 27 1 25 28
M  V30 28 1 23 29
M  V30 29 2 11 30
M  V30 30 1 30 31
M  V30 31 2 31 32
M  V30 32 2 7 33
M  V30 33 1 33 34
M  V30 34 2 34 35
M  V30 35 1 35 5
M  V30 36 1 32 9
M  V30 37 1 20 13
M  V30 38 1 29 21
M  V30 39 1 18 16
M  V30 40 1 1 36
M  V30 41 1 1 37
M  V30 42 1 1 38
M  V30 43 1 3 39
M  V30 44 1 3 40
M  V30 45 1 3 41
M  V30 46 1 4 42
M  V30 47 1 6 43
M  V30 48 1 8 44
M  V30 49 1 10 45
M  V30 50 1 14 46
M  V30 51 1 16 47
M  V30 52 1 17 48
M  V30 53 1 17 49
M  V30 54 1 18 50
M  V30 55 1 18 51
M  V30 56 1 21 52
M  V30 57 1 22 53
M  V30 58 1 22 54
M  V30 59 1 24 55
M  V30 60 1 29 56
M  V30 61 1 29 57
M  V30 62 1 30 58
M  V30 63 1 31 59
M  V30 64 1 33 60
M  V30 65 1 34 61
M  V30 END BOND
M  V30 END CTAB
M  END
>  <Dataset>  (114) 
ChEMBL_Kinases

>  <Ligand_Instance>  (114) 
nan

>  <PDB_ID>  (114) 
nan

>  <Standardized_SMILES>  (114) 
CC(C)(O)c1cc(Nc2cc(Oc3cn(C4CC4)nc3C3CC(O)(C(F)(F)F)C3)ccn2)ccn1

>  <Name>  (114) 
nan

>  <Pocket>  (114) 
nan

>  <ATP_Site>  (114) 
nan

>  <Peripheral>  (114) 
nan

>  <Num_H_Atoms_ProtBoundConf>  (114) 
nan

>  <Num_Resolved_Atoms>  (114) 
nan

>  <Num_Not_Resolved_Atoms>  (114) 
nan

$$$$
CHEMBL1802407
     RDKit          3D

  0  0  0  0  0  0  0  0  0  0999 V3000
M  V30 BEGIN CTAB
M  V30 COUNTS 28 30 0 0 0
M  V30 BEGIN ATOM
M  V30 1 N 0.265293 -3.766587 2.951988 0
M  V30 2 C 0.072757 -2.378079 3.296213 0
M  V30 3 N -0.149020 -1.902353 4.512588 0
M  V30 4 C -0.305797 -0.572624 4.647539 0
M  V30 5 C -0.224560 0.200778 3.510437 0
M  V30 6 I -0.491567 2.250032 3.897634 0
M  V30 7 C 0.002510 -0.238511 2.230134 0
M  V30 8 C 0.087609 0.566509 1.042412 0
M  V30 9 C -0.012601 1.900691 0.774806 0
M  V30 10 N 0.138373 2.216706 -0.520639 0
M  V30 11 C 0.348255 1.043409 -1.143942 0
M  V30 12 C 0.558197 0.887166 -2.510320 0
M  V30 13 C 0.757340 -0.390044 -2.981922 0
M  V30 14 C 0.735687 -1.443715 -2.059738 0
M  V30 15 C 0.523683 -1.196112 -0.745546 0
M  V30 16 N 0.540950 -2.381790 -0.001440 0
M  V30 17 C 0.318050 0.053593 -0.208102 0
M  V30 18 N 0.127064 -1.538866 2.300946 0
M  V30 19 H 1.108980 -4.290015 2.603372 0
M  V30 20 H -0.498894 -4.477113 3.020700 0
M  V30 21 H -0.486177 -0.189844 5.639902 0
M  V30 22 H -0.192293 2.697975 1.459804 0
M  V30 23 H 0.100241 3.183639 -0.957846 0
M  V30 24 H 0.570898 1.713777 -3.203530 0
M  V30 25 H 0.919580 -0.506612 -4.040968 0
M  V30 26 H 0.899699 -2.392930 -2.523059 0
M  V30 27 H 1.282538 -3.128540 0.018646 0
M  V30 28 H 1.208809 -3.173524 0.092541 0
M  V30 END ATOM
M  V30 BEGIN BOND
M  V30 1 1 1 2
M  V30 2 2 2 3
M  V30 3 1 3 4
M  V30 4 2 4 5
M  V30 5 1 5 6
M  V30 6 1 5 7
M  V30 7 1 7 8
M  V30 8 2 8 9
M  V30 9 1 9 10
M  V30 10 1 10 11
M  V30 11 2 11 12
M  V30 12 1 12 13
M  V30 13 2 13 14
M  V30 14 1 14 15
M  V30 15 1 15 16
M  V30 16 2 15 17
M  V30 17 2 7 18
M  V30 18 1 18 2
M  V30 19 1 17 8
M  V30 20 1 17 11
M  V30 21 1 1 19
M  V30 22 1 1 20
M  V30 23 1 4 21
M  V30 24 1 9 22
M  V30 25 1 10 23
M  V30 26 1 12 24
M  V30 27 1 13 25
M  V30 28 1 14 26
M  V30 29 1 16 27
M  V30 30 1 16 28
M  V30 END BOND
M  V30 END CTAB
M  END
>  <Dataset>  (115) 
ChEMBL_Kinases

>  <Ligand_Instance>  (115) 
nan

>  <PDB_ID>  (115) 
nan

>  <Standardized_SMILES>  (115) 
Nc1ncc(I)c(-c2c[nH]c3cccc(N)c23)n1

>  <Name>  (115) 
nan

>  <Pocket>  (115) 
nan

>  <ATP_Site>  (115) 
nan

>  <Peripheral>  (115) 
nan

>  <Num_H_Atoms_ProtBoundConf>  (115) 
nan

>  <Num_Resolved_Atoms>  (115) 
nan

>  <Num_Not_Resolved_Atoms>  (115) 
nan

$$$$
CHEMBL1802406
     RDKit          3D

  0  0  0  0  0  0  0  0  0  0999 V3000
M  V30 BEGIN CTAB
M  V30 COUNTS 26 28 0 0 0
M  V30 BEGIN ATOM
M  V30 1 N -1.503542 -3.301094 2.733009 0
M  V30 2 C -0.167499 -2.987550 2.351949 0
M  V30 3 N 0.913573 -3.721899 2.668491 0
M  V30 4 C 2.157516 -3.341364 2.257656 0
M  V30 5 C 2.218246 -2.184257 1.517548 0
M  V30 6 I 4.129143 -1.645581 0.915481 0
M  V30 7 C 1.159556 -1.393678 1.162380 0
M  V30 8 C 1.168915 -0.173976 0.389723 0
M  V30 9 C 2.090451 0.610588 -0.232544 0
M  V30 10 N 1.591945 1.691783 -0.848114 0
M  V30 11 C 0.268692 1.628292 -0.626912 0
M  V30 12 C -0.678365 2.535126 -1.070830 0
M  V30 13 C -1.998242 2.311117 -0.748557 0
M  V30 14 C -2.328787 1.201313 -0.001462 0
M  V30 15 C -1.336839 0.342251 0.406103 0
M  V30 16 C 0.000316 0.504897 0.120276 0
M  V30 17 N 0.000238 -1.878000 1.627277 0
M  V30 18 H -1.646428 -3.786585 3.642666 0
M  V30 19 H -2.304570 -3.047837 2.113149 0
M  V30 20 H 3.017621 -3.935656 2.515854 0
M  V30 21 H 3.139652 0.413750 -0.251618 0
M  V30 22 H 2.120865 2.416219 -1.378638 0
M  V30 23 H -0.419583 3.393400 -1.649038 0
M  V30 24 H -2.734191 3.013061 -1.091779 0
M  V30 25 H -3.360664 1.081536 0.215487 0
M  V30 26 H -1.722060 -0.482786 0.980584 0
M  V30 END ATOM
M  V30 BEGIN BOND
M  V30 1 1 1 2
M  V30 2 2 2 3
M  V30 3 1 3 4
M  V30 4 2 4 5
M  V30 5 1 5 6
M  V30 6 1 5 7
M  V30 7 1 7 8
M  V30 8 2 8 9
M  V30 9 1 9 10
M  V30 10 1 10 11
M  V30 11 2 11 12
M  V30 12 1 12 13
M  V30 13 2 13 14
M  V30 14 1 14 15
M  V30 15 2 15 16
M  V30 16 2 7 17
M  V30 17 1 17 2
M  V30 18 1 16 8
M  V30 19 1 16 11
M  V30 20 1 1 18
M  V30 21 1 1 19
M  V30 22 1 4 20
M  V30 23 1 9 21
M  V30 24 1 10 22
M  V30 25 1 12 23
M  V30 26 1 13 24
M  V30 27 1 14 25
M  V30 28 1 15 26
M  V30 END BOND
M  V30 END CTAB
M  END
>  <Dataset>  (116) 
ChEMBL_Kinases

>  <Ligand_Instance>  (116) 
nan

>  <PDB_ID>  (116) 
nan

>  <Standardized_SMILES>  (116) 
Nc1ncc(I)c(-c2c[nH]c3ccccc23)n1

>  <Name>  (116) 
nan

>  <Pocket>  (116) 
nan

>  <ATP_Site>  (116) 
nan

>  <Peripheral>  (116) 
nan

>  <Num_H_Atoms_ProtBoundConf>  (116) 
nan

>  <Num_Resolved_Atoms>  (116) 
nan

>  <Num_Not_Resolved_Atoms>  (116) 
nan

$$$$
CHEMBL1802405
     RDKit          3D

  0  0  0  0  0  0  0  0  0  0999 V3000
M  V30 BEGIN CTAB
M  V30 COUNTS 28 30 0 0 0
M  V30 BEGIN ATOM
M  V30 1 N -0.908219 -2.675848 4.487238 0
M  V30 2 C 0.243941 -2.705520 3.615881 0
M  V30 3 N 1.203073 -3.680217 3.647866 0
M  V30 4 C 2.236909 -3.589043 2.782988 0
M  V30 5 C 2.347508 -2.560683 1.886311 0
M  V30 6 I 3.895755 -2.275213 0.467813 0
M  V30 7 C 1.378547 -1.562880 1.844867 0
M  V30 8 C 1.249609 -0.376257 0.969661 0
M  V30 9 C 2.055509 0.766883 0.850733 0
M  V30 10 N 1.451651 1.561998 -0.065555 0
M  V30 11 C 0.328528 0.979135 -0.517305 0
M  V30 12 C -0.631385 1.339201 -1.435625 0
M  V30 13 N -0.530439 2.587896 -2.123909 0 CHG=1 VAL=4
M  V30 14 O 0.395109 3.322750 -2.522901 0
M  V30 15 O -1.647010 3.284862 -2.512693 0 CHG=-1 VAL=1
M  V30 16 C -1.749193 0.567805 -1.780710 0
M  V30 17 C -1.892826 -0.654270 -1.137802 0
M  V30 18 C -0.948537 -1.059677 -0.198873 0
M  V30 19 C 0.142149 -0.262287 0.106879 0
M  V30 20 N 0.398167 -1.741131 2.739406 0
M  V30 21 H -0.511996 -2.018248 5.221643 0
M  V30 22 H -1.856180 -3.096203 4.514449 0
M  V30 23 H 3.039852 -4.309068 2.741057 0
M  V30 24 H 2.960952 0.887184 1.421494 0
M  V30 25 H 1.829180 2.491346 -0.365157 0
M  V30 26 H -2.481176 0.878202 -2.508776 0
M  V30 27 H -2.733058 -1.339679 -1.327427 0
M  V30 28 H -1.060814 -2.014026 0.301059 0
M  V30 END ATOM
M  V30 BEGIN BOND
M  V30 1 1 1 2
M  V30 2 2 2 3
M  V30 3 1 3 4
M  V30 4 2 4 5
M  V30 5 1 5 6
M  V30 6 1 5 7
M  V30 7 1 7 8
M  V30 8 2 8 9
M  V30 9 1 9 10
M  V30 10 1 10 11
M  V30 11 2 11 12
M  V30 12 1 12 13
M  V30 13 2 13 14
M  V30 14 1 13 15
M  V30 15 1 12 16
M  V30 16 2 16 17
M  V30 17 1 17 18
M  V30 18 2 18 19
M  V30 19 2 7 20
M  V30 20 1 20 2
M  V30 21 1 19 8
M  V30 22 1 19 11
M  V30 23 1 1 21
M  V30 24 1 1 22
M  V30 25 1 4 23
M  V30 26 1 9 24
M  V30 27 1 10 25
M  V30 28 1 16 26
M  V30 29 1 17 27
M  V30 30 1 18 28
M  V30 END BOND
M  V30 END CTAB
M  END
>  <Dataset>  (117) 
ChEMBL_Kinases

>  <Ligand_Instance>  (117) 
nan

>  <PDB_ID>  (117) 
nan

>  <Standardized_SMILES>  (117) 
Nc1ncc(I)c(-c2c[nH]c3c([N+](=O)[O-])cccc23)n1

>  <Name>  (117) 
nan

>  <Pocket>  (117) 
nan

>  <ATP_Site>  (117) 
nan

>  <Peripheral>  (117) 
nan

>  <Num_H_Atoms_ProtBoundConf>  (117) 
nan

>  <Num_Resolved_Atoms>  (117) 
nan

>  <Num_Not_Resolved_Atoms>  (117) 
nan

$$$$
CHEMBL1802404
     RDKit          3D

  0  0  0  0  0  0  0  0  0  0999 V3000
M  V30 BEGIN CTAB
M  V30 COUNTS 28 30 0 0 0
M  V30 BEGIN ATOM
M  V30 1 N -0.547338 -2.859089 4.686358 0
M  V30 2 C 0.178715 -2.961241 3.469548 0
M  V30 3 N 1.199127 -3.862650 3.460546 0
M  V30 4 C 1.942038 -4.025155 2.345297 0
M  V30 5 C 1.634901 -3.259984 1.239218 0
M  V30 6 I 2.744577 -3.449652 -0.545820 0
M  V30 7 C 0.602817 -2.340603 1.230984 0
M  V30 8 C 0.282429 -1.528069 0.044985 0
M  V30 9 C 0.030109 -1.918712 -1.244424 0
M  V30 10 N -0.212501 -0.802853 -1.970453 0
M  V30 11 C -0.121725 0.293877 -1.177190 0
M  V30 12 C -0.289474 1.643787 -1.480312 0
M  V30 13 C -0.120287 2.501176 -0.410786 0
M  V30 14 N -0.285336 3.886509 -0.689494 0 CHG=1 VAL=4
M  V30 15 O -0.173478 4.810333 0.137309 0
M  V30 16 O -0.589029 4.583880 -1.835327 0 CHG=-1 VAL=1
M  V30 17 C 0.189431 2.143846 0.883497 0
M  V30 18 C 0.340912 0.791811 1.111382 0
M  V30 19 C 0.190601 -0.136814 0.103963 0
M  V30 20 N -0.105079 -2.226405 2.384845 0
M  V30 21 H -0.021440 -2.132444 5.239562 0
M  V30 22 H -1.389352 -3.268391 5.151226 0
M  V30 23 H 2.766348 -4.703826 2.226447 0
M  V30 24 H 0.038492 -2.952746 -1.562702 0
M  V30 25 H -0.435836 -0.826084 -3.000954 0
M  V30 26 H -0.532898 2.014640 -2.466744 0
M  V30 27 H 0.301435 2.894706 1.654022 0
M  V30 28 H 0.587443 0.437165 2.117623 0
M  V30 END ATOM
M  V30 BEGIN BOND
M  V30 1 1 1 2
M  V30 2 2 2 3
M  V30 3 1 3 4
M  V30 4 2 4 5
M  V30 5 1 5 6
M  V30 6 1 5 7
M  V30 7 1 7 8
M  V30 8 2 8 9
M  V30 9 1 9 10
M  V30 10 1 10 11
M  V30 11 2 11 12
M  V30 12 1 12 13
M  V30 13 1 13 14
M  V30 14 2 14 15
M  V30 15 1 14 16
M  V30 16 2 13 17
M  V30 17 1 17 18
M  V30 18 2 18 19
M  V30 19 2 7 20
M  V30 20 1 20 2
M  V30 21 1 19 8
M  V30 22 1 19 11
M  V30 23 1 1 21
M  V30 24 1 1 22
M  V30 25 1 4 23
M  V30 26 1 9 24
M  V30 27 1 10 25
M  V30 28 1 12 26
M  V30 29 1 17 27
M  V30 30 1 18 28
M  V30 END BOND
M  V30 END CTAB
M  END
>  <Dataset>  (118) 
ChEMBL_Kinases

>  <Ligand_Instance>  (118) 
nan

>  <PDB_ID>  (118) 
nan

>  <Standardized_SMILES>  (118) 
Nc1ncc(I)c(-c2c[nH]c3cc([N+](=O)[O-])ccc23)n1

>  <Name>  (118) 
nan

>  <Pocket>  (118) 
nan

>  <ATP_Site>  (118) 
nan

>  <Peripheral>  (118) 
nan

>  <Num_H_Atoms_ProtBoundConf>  (118) 
nan

>  <Num_Resolved_Atoms>  (118) 
nan

>  <Num_Not_Resolved_Atoms>  (118) 
nan

$$$$
CHEMBL1802403
     RDKit          3D

  0  0  0  0  0  0  0  0  0  0999 V3000
M  V30 BEGIN CTAB
M  V30 COUNTS 28 30 0 0 0
M  V30 BEGIN ATOM
M  V30 1 N 0.434497 -1.033033 4.587109 0
M  V30 2 C 0.841413 -1.946875 3.564246 0
M  V30 3 N 1.360120 -3.157580 3.799739 0
M  V30 4 C 1.716847 -3.954149 2.749161 0
M  V30 5 C 1.504733 -3.424928 1.505391 0
M  V30 6 I 2.072312 -4.695356 -0.065671 0
M  V30 7 C 0.981742 -2.202113 1.196945 0
M  V30 8 C 0.747646 -1.620296 -0.100349 0
M  V30 9 C 0.915641 -1.971219 -1.405252 0
M  V30 10 N 0.527453 -1.044100 -2.290886 0
M  V30 11 C 0.077319 -0.021863 -1.544784 0
M  V30 12 C -0.430057 1.169726 -2.025021 0
M  V30 13 C -0.846185 2.107929 -1.107584 0
M  V30 14 C -0.745042 1.833105 0.239170 0
M  V30 15 N -1.186404 2.829146 1.180074 0 CHG=1 VAL=4
M  V30 16 O -1.100226 2.592621 2.407135 0
M  V30 17 O -1.695157 4.022980 0.731494 0 CHG=-1 VAL=1
M  V30 18 C -0.229136 0.624050 0.641555 0
M  V30 19 C 0.206514 -0.361190 -0.217552 0
M  V30 20 N 0.675629 -1.524769 2.306883 0
M  V30 21 H 0.909089 -0.304508 5.184105 0
M  V30 22 H -0.607831 -1.173353 4.732093 0
M  V30 23 H 2.134303 -4.928337 2.932376 0
M  V30 24 H 1.321395 -2.902854 -1.735927 0
M  V30 25 H 0.572412 -1.117289 -3.335724 0
M  V30 26 H -0.507119 1.380018 -3.081739 0
M  V30 27 H -1.247932 3.050414 -1.454107 0
M  V30 28 H -0.198372 0.520837 1.709728 0
M  V30 END ATOM
M  V30 BEGIN BOND
M  V30 1 1 1 2
M  V30 2 2 2 3
M  V30 3 1 3 4
M  V30 4 2 4 5
M  V30 5 1 5 6
M  V30 6 1 5 7
M  V30 7 1 7 8
M  V30 8 2 8 9
M  V30 9 1 9 10
M  V30 10 1 10 11
M  V30 11 2 11 12
M  V30 12 1 12 13
M  V30 13 2 13 14
M  V30 14 1 14 15
M  V30 15 2 15 16
M  V30 16 1 15 17
M  V30 17 1 14 18
M  V30 18 2 18 19
M  V30 19 2 7 20
M  V30 20 1 20 2
M  V30 21 1 19 8
M  V30 22 1 19 11
M  V30 23 1 1 21
M  V30 24 1 1 22
M  V30 25 1 4 23
M  V30 26 1 9 24
M  V30 27 1 10 25
M  V30 28 1 12 26
M  V30 29 1 13 27
M  V30 30 1 18 28
M  V30 END BOND
M  V30 END CTAB
M  END
>  <Dataset>  (119) 
ChEMBL_Kinases

>  <Ligand_Instance>  (119) 
nan

>  <PDB_ID>  (119) 
nan

>  <Standardized_SMILES>  (119) 
Nc1ncc(I)c(-c2c[nH]c3ccc([N+](=O)[O-])cc23)n1

>  <Name>  (119) 
nan

>  <Pocket>  (119) 
nan

>  <ATP_Site>  (119) 
nan

>  <Peripheral>  (119) 
nan

>  <Num_H_Atoms_ProtBoundConf>  (119) 
nan

>  <Num_Resolved_Atoms>  (119) 
nan

>  <Num_Not_Resolved_Atoms>  (119) 
nan

$$$$
CHEMBL1802402
     RDKit          3D

  0  0  0  0  0  0  0  0  0  0999 V3000
M  V30 BEGIN CTAB
M  V30 COUNTS 28 30 0 0 0
M  V30 BEGIN ATOM
M  V30 1 N -1.210837 -1.863919 4.474692 0
M  V30 2 C -0.281497 -2.205683 3.460883 0
M  V30 3 N 0.697849 -3.083681 3.707707 0
M  V30 4 C 1.607823 -3.450676 2.787501 0
M  V30 5 C 1.538210 -2.902511 1.521908 0
M  V30 6 I 2.841204 -3.305948 -0.085082 0
M  V30 7 C 0.538898 -1.995940 1.241271 0
M  V30 8 C 0.276655 -1.298041 -0.010356 0
M  V30 9 C -0.088257 -2.027507 -1.130151 0
M  V30 10 N -0.322749 -1.137085 -2.124469 0
M  V30 11 C -0.122906 0.114833 -1.687203 0
M  V30 12 C -0.181261 1.401061 -2.160110 0
M  V30 13 C 0.095188 2.558131 -1.450548 0
M  V30 14 C 0.472455 2.414701 -0.122395 0
M  V30 15 C 0.542198 1.116135 0.391272 0
M  V30 16 N 0.975919 1.122720 1.734028 0 CHG=1 VAL=4
M  V30 17 O 0.796092 2.033086 2.555247 0
M  V30 18 O 1.578069 0.589772 2.814345 0 CHG=-1 VAL=1
M  V30 19 C 0.254405 0.028330 -0.364084 0
M  V30 20 N -0.351605 -1.668944 2.226449 0
M  V30 21 H -1.113431 -1.482700 5.440343 0
M  V30 22 H -2.170141 -2.071123 4.095525 0
M  V30 23 H 2.426137 -4.146949 2.905948 0
M  V30 24 H -0.195227 -3.087066 -1.284364 0
M  V30 25 H -0.618180 -1.283403 -3.113427 0
M  V30 26 H -0.473254 1.530885 -3.192052 0
M  V30 27 H 0.011924 3.526535 -1.938229 0
M  V30 28 H 0.681925 3.322001 0.407961 0
M  V30 END ATOM
M  V30 BEGIN BOND
M  V30 1 1 1 2
M  V30 2 2 2 3
M  V30 3 1 3 4
M  V30 4 2 4 5
M  V30 5 1 5 6
M  V30 6 1 5 7
M  V30 7 1 7 8
M  V30 8 2 8 9
M  V30 9 1 9 10
M  V30 10 1 10 11
M  V30 11 2 11 12
M  V30 12 1 12 13
M  V30 13 2 13 14
M  V30 14 1 14 15
M  V30 15 1 15 16
M  V30 16 2 16 17
M  V30 17 1 16 18
M  V30 18 2 15 19
M  V30 19 2 7 20
M  V30 20 1 20 2
M  V30 21 1 19 8
M  V30 22 1 19 11
M  V30 23 1 1 21
M  V30 24 1 1 22
M  V30 25 1 4 23
M  V30 26 1 9 24
M  V30 27 1 10 25
M  V30 28 1 12 26
M  V30 29 1 13 27
M  V30 30 1 14 28
M  V30 END BOND
M  V30 END CTAB
M  END
>  <Dataset>  (120) 
ChEMBL_Kinases

>  <Ligand_Instance>  (120) 
nan

>  <PDB_ID>  (120) 
nan

>  <Standardized_SMILES>  (120) 
Nc1ncc(I)c(-c2c[nH]c3cccc([N+](=O)[O-])c23)n1

>  <Name>  (120) 
nan

>  <Pocket>  (120) 
nan

>  <ATP_Site>  (120) 
nan

>  <Peripheral>  (120) 
nan

>  <Num_H_Atoms_ProtBoundConf>  (120) 
nan

>  <Num_Resolved_Atoms>  (120) 
nan

>  <Num_Not_Resolved_Atoms>  (120) 
nan

$$$$
CHEMBL1802400
     RDKit          3D

  0  0  0  0  0  0  0  0  0  0999 V3000
M  V30 BEGIN CTAB
M  V30 COUNTS 28 30 0 0 0
M  V30 BEGIN ATOM
M  V30 1 N -2.141706 -4.099023 3.768117 0
M  V30 2 C -1.083809 -3.167815 3.575936 0
M  V30 3 N -0.153358 -2.950405 4.534202 0
M  V30 4 C 0.847472 -2.052121 4.320010 0
M  V30 5 C 0.816002 -1.424223 3.097251 0
M  V30 6 C -0.085560 -1.595429 2.094301 0
M  V30 7 C -0.178857 -0.969953 0.800071 0
M  V30 8 C -1.248627 -1.269562 -0.054766 0
M  V30 9 N -1.123853 -0.576352 -1.196004 0
M  V30 10 C -0.025363 0.190216 -1.183880 0
M  V30 11 C 0.584817 1.075184 -2.047690 0
M  V30 12 C 1.757497 1.726812 -1.726312 0
M  V30 13 N 2.295080 2.617588 -2.696991 0 CHG=1 VAL=4
M  V30 14 O 3.349697 3.262669 -2.519508 0
M  V30 15 O 1.704095 2.852897 -3.923410 0 CHG=-1 VAL=1
M  V30 16 C 2.290242 1.443117 -0.485582 0
M  V30 17 C 1.687462 0.562490 0.380027 0
M  V30 18 C 0.530350 -0.071904 0.047406 0
M  V30 19 N -1.021600 -2.500901 2.417413 0
M  V30 20 H -2.387521 -5.102456 3.601590 0
M  V30 21 H -2.986540 -3.701857 4.227694 0
M  V30 22 H 1.591380 -1.861080 5.054053 0
M  V30 23 H 1.599008 -0.737486 2.971287 0
M  V30 24 H -2.123484 -1.935373 0.039631 0
M  V30 25 H -1.757613 -0.577139 -2.034942 0
M  V30 26 H 0.070915 1.219753 -3.000901 0
M  V30 27 H 3.213409 1.962318 -0.244644 0
M  V30 28 H 2.186067 0.427048 1.288251 0
M  V30 END ATOM
M  V30 BEGIN BOND
M  V30 1 1 1 2
M  V30 2 2 2 3
M  V30 3 1 3 4
M  V30 4 2 4 5
M  V30 5 1 5 6
M  V30 6 1 6 7
M  V30 7 2 7 8
M  V30 8 1 8 9
M  V30 9 1 9 10
M  V30 10 2 10 11
M  V30 11 1 11 12
M  V30 12 1 12 13
M  V30 13 2 13 14
M  V30 14 1 13 15
M  V30 15 2 12 16
M  V30 16 1 16 17
M  V30 17 2 17 18
M  V30 18 2 6 19
M  V30 19 1 19 2
M  V30 20 1 18 7
M  V30 21 1 18 10
M  V30 22 1 1 20
M  V30 23 1 1 21
M  V30 24 1 4 22
M  V30 25 1 5 23
M  V30 26 1 8 24
M  V30 27 1 9 25
M  V30 28 1 11 26
M  V30 29 1 16 27
M  V30 30 1 17 28
M  V30 END BOND
M  V30 END CTAB
M  END
>  <Dataset>  (121) 
ChEMBL_Kinases

>  <Ligand_Instance>  (121) 
nan

>  <PDB_ID>  (121) 
nan

>  <Standardized_SMILES>  (121) 
Nc1nccc(-c2c[nH]c3cc([N+](=O)[O-])ccc23)n1

>  <Name>  (121) 
nan

>  <Pocket>  (121) 
nan

>  <ATP_Site>  (121) 
nan

>  <Peripheral>  (121) 
nan

>  <Num_H_Atoms_ProtBoundConf>  (121) 
nan

>  <Num_Resolved_Atoms>  (121) 
nan

>  <Num_Not_Resolved_Atoms>  (121) 
nan

$$$$
CHEMBL1802399
     RDKit          3D

  0  0  0  0  0  0  0  0  0  0999 V3000
M  V30 BEGIN CTAB
M  V30 COUNTS 40 43 0 0 0
M  V30 BEGIN ATOM
M  V30 1 C 0.598440 -5.402321 0.789818 0
M  V30 2 O 0.190209 -4.079307 0.502653 0
M  V30 3 C 1.071069 -3.139122 0.010886 0
M  V30 4 C 2.417699 -3.372833 -0.251684 0
M  V30 5 C 3.222967 -2.366990 -0.744025 0
M  V30 6 C 2.684500 -1.106520 -0.980777 0
M  V30 7 C 1.347603 -0.893037 -0.714824 0
M  V30 8 C 0.942680 0.488339 -1.020056 0
M  V30 9 C 1.053597 0.950118 -2.317246 0
M  V30 10 N 0.681015 2.213755 -2.586683 0
M  V30 11 C 0.208592 3.003210 -1.592263 0
M  V30 12 N -0.175737 4.335978 -1.921050 0
M  V30 13 N 0.112898 2.514240 -0.323993 0
M  V30 14 C 0.465400 1.269014 0.012488 0
M  V30 15 C 0.339114 0.803114 1.391470 0
M  V30 16 C 1.344572 0.384845 2.258441 0
M  V30 17 N 0.795241 0.032579 3.450993 0
M  V30 18 C -0.541078 0.217245 3.364012 0
M  V30 19 C -1.598636 0.032206 4.245093 0
M  V30 20 Br -1.172387 -0.624028 5.986738 0
M  V30 21 C -2.906193 0.305061 3.895169 0
M  V30 22 C -3.201240 0.780829 2.627770 0
M  V30 23 C -2.154731 0.966989 1.747016 0
M  V30 24 C -0.850593 0.692869 2.101906 0
M  V30 25 C 0.532253 -1.887860 -0.223123 0
M  V30 26 H -0.268854 -6.104977 0.756126 0
M  V30 27 H 1.312745 -5.766857 0.015836 0
M  V30 28 H 1.007776 -5.467807 1.818443 0
M  V30 29 H 2.803631 -4.378005 -0.052388 0
M  V30 30 H 4.264451 -2.602784 -0.931157 0
M  V30 31 H 3.379323 -0.370574 -1.366808 0
M  V30 32 H 1.435189 0.290390 -3.084928 0
M  V30 33 H -0.936248 4.999577 -1.752303 0
M  V30 34 H -1.112260 4.566251 -1.469224 0
M  V30 35 H 2.395577 0.360195 1.980432 0
M  V30 36 H 1.298242 -0.321290 4.299488 0
M  V30 37 H -3.652936 0.118369 4.677354 0
M  V30 38 H -4.222836 0.983226 2.384698 0
M  V30 39 H -2.409859 1.334942 0.773854 0
M  V30 40 H -0.497713 -1.607475 -0.052325 0
M  V30 END ATOM
M  V30 BEGIN BOND
M  V30 1 1 1 2
M  V30 2 1 2 3
M  V30 3 2 3 4
M  V30 4 1 4 5
M  V30 5 2 5 6
M  V30 6 1 6 7
M  V30 7 1 7 8
M  V30 8 2 8 9
M  V30 9 1 9 10
M  V30 10 2 10 11
M  V30 11 1 11 12
M  V30 12 1 11 13
M  V30 13 2 13 14
M  V30 14 1 14 15
M  V30 15 2 15 16
M  V30 16 1 16 17
M  V30 17 1 17 18
M  V30 18 2 18 19
M  V30 19 1 19 20
M  V30 20 1 19 21
M  V30 21 2 21 22
M  V30 22 1 22 23
M  V30 23 2 23 24
M  V30 24 2 7 25
M  V30 25 1 25 3
M  V30 26 1 14 8
M  V30 27 1 24 15
M  V30 28 1 24 18
M  V30 29 1 1 26
M  V30 30 1 1 27
M  V30 31 1 1 28
M  V30 32 1 4 29
M  V30 33 1 5 30
M  V30 34 1 6 31
M  V30 35 1 9 32
M  V30 36 1 12 33
M  V30 37 1 12 34
M  V30 38 1 16 35
M  V30 39 1 17 36
M  V30 40 1 21 37
M  V30 41 1 22 38
M  V30 42 1 23 39
M  V30 43 1 25 40
M  V30 END BOND
M  V30 END CTAB
M  END
>  <Dataset>  (122) 
ChEMBL_Kinases

>  <Ligand_Instance>  (122) 
nan

>  <PDB_ID>  (122) 
nan

>  <Standardized_SMILES>  (122) 
COc1cccc(-c2cnc(N)nc2-c2c[nH]c3c(Br)cccc23)c1

>  <Name>  (122) 
nan

>  <Pocket>  (122) 
nan

>  <ATP_Site>  (122) 
nan

>  <Peripheral>  (122) 
nan

>  <Num_H_Atoms_ProtBoundConf>  (122) 
nan

>  <Num_Resolved_Atoms>  (122) 
nan

>  <Num_Not_Resolved_Atoms>  (122) 
nan

$$$$
CHEMBL1802398
     RDKit          3D

  0  0  0  0  0  0  0  0  0  0999 V3000
M  V30 BEGIN CTAB
M  V30 COUNTS 40 43 0 0 0
M  V30 BEGIN ATOM
M  V30 1 C 0.092523 -5.079679 1.323789 0
M  V30 2 O -0.152606 -3.773450 0.865187 0
M  V30 3 C 0.787693 -2.987560 0.234936 0
M  V30 4 C 2.084004 -3.377214 -0.026158 0
M  V30 5 C 3.033898 -2.599945 -0.655908 0
M  V30 6 C 2.621619 -1.321666 -1.049049 0
M  V30 7 C 1.314989 -0.887159 -0.802983 0
M  V30 8 C 0.838449 0.433529 -1.192248 0
M  V30 9 C 0.815980 0.832370 -2.518840 0
M  V30 10 N 0.365140 2.072237 -2.840722 0
M  V30 11 C -0.063522 2.919919 -1.858860 0
M  V30 12 N -0.555980 4.236797 -2.080573 0
M  V30 13 N -0.049882 2.548574 -0.551950 0
M  V30 14 C 0.396911 1.309499 -0.193968 0
M  V30 15 C 0.439477 0.836912 1.188543 0
M  V30 16 C 1.598483 0.468964 1.815083 0
M  V30 17 N 1.256138 0.096827 3.060865 0
M  V30 18 C -0.090012 0.222227 3.232132 0
M  V30 19 C -0.942642 -0.024858 4.315600 0
M  V30 20 C -2.289750 0.223504 4.124672 0
M  V30 21 Br -3.450384 -0.112562 5.601666 0
M  V30 22 C -2.832414 0.693044 2.947103 0
M  V30 23 C -1.999391 0.938245 1.876781 0
M  V30 24 C -0.651510 0.694515 2.053573 0
M  V30 25 C 0.399444 -1.721181 -0.160956 0
M  V30 26 H -0.825754 -5.691669 1.370707 0
M  V30 27 H 0.830647 -5.629277 0.704293 0
M  V30 28 H 0.483253 -4.981747 2.363466 0
M  V30 29 H 2.385564 -4.358566 0.280434 0
M  V30 30 H 4.043240 -2.939785 -0.844456 0
M  V30 31 H 3.319242 -0.637626 -1.557870 0
M  V30 32 H 1.150934 0.174690 -3.309721 0
M  V30 33 H 0.353844 4.710981 -2.362166 0
M  V30 34 H -1.590226 4.228889 -1.886932 0
M  V30 35 H 2.616817 0.470485 1.397008 0
M  V30 36 H 1.920231 -0.246361 3.811849 0
M  V30 37 H -0.541066 -0.394031 5.251879 0
M  V30 38 H -3.886901 0.884935 2.804048 0
M  V30 39 H -2.400385 1.307669 0.940467 0
M  V30 40 H -0.622615 -1.388920 0.035107 0
M  V30 END ATOM
M  V30 BEGIN BOND
M  V30 1 1 1 2
M  V30 2 1 2 3
M  V30 3 2 3 4
M  V30 4 1 4 5
M  V30 5 2 5 6
M  V30 6 1 6 7
M  V30 7 1 7 8
M  V30 8 2 8 9
M  V30 9 1 9 10
M  V30 10 2 10 11
M  V30 11 1 11 12
M  V30 12 1 11 13
M  V30 13 2 13 14
M  V30 14 1 14 15
M  V30 15 2 15 16
M  V30 16 1 16 17
M  V30 17 1 17 18
M  V30 18 2 18 19
M  V30 19 1 19 20
M  V30 20 1 20 21
M  V30 21 2 20 22
M  V30 22 1 22 23
M  V30 23 2 23 24
M  V30 24 2 7 25
M  V30 25 1 25 3
M  V30 26 1 14 8
M  V30 27 1 24 15
M  V30 28 1 24 18
M  V30 29 1 1 26
M  V30 30 1 1 27
M  V30 31 1 1 28
M  V30 32 1 4 29
M  V30 33 1 5 30
M  V30 34 1 6 31
M  V30 35 1 9 32
M  V30 36 1 12 33
M  V30 37 1 12 34
M  V30 38 1 16 35
M  V30 39 1 17 36
M  V30 40 1 19 37
M  V30 41 1 22 38
M  V30 42 1 23 39
M  V30 43 1 25 40
M  V30 END BOND
M  V30 END CTAB
M  END
>  <Dataset>  (123) 
ChEMBL_Kinases

>  <Ligand_Instance>  (123) 
nan

>  <PDB_ID>  (123) 
nan

>  <Standardized_SMILES>  (123) 
COc1cccc(-c2cnc(N)nc2-c2c[nH]c3cc(Br)ccc23)c1

>  <Name>  (123) 
nan

>  <Pocket>  (123) 
nan

>  <ATP_Site>  (123) 
nan

>  <Peripheral>  (123) 
nan

>  <Num_H_Atoms_ProtBoundConf>  (123) 
nan

>  <Num_Resolved_Atoms>  (123) 
nan

>  <Num_Not_Resolved_Atoms>  (123) 
nan

$$$$
CHEMBL1782527
     RDKit          3D

  0  0  0  0  0  0  0  0  0  0999 V3000
M  V30 BEGIN CTAB
M  V30 COUNTS 38 40 0 0 0
M  V30 BEGIN ATOM
M  V30 1 O 4.536159 -3.673702 3.873890 0
M  V30 2 C 3.710481 -4.264068 3.113145 0
M  V30 3 O 3.619434 -5.637823 3.251398 0
M  V30 4 C 2.861796 -3.590378 2.113842 0
M  V30 5 C 1.943018 -4.215606 1.261918 0
M  V30 6 C 1.389532 -3.196790 0.511859 0
M  V30 7 C 0.431324 -3.236918 -0.480483 0
M  V30 8 C 0.055791 -2.049854 -1.073540 0
M  V30 9 Br -1.252772 -2.117344 -2.426566 0
M  V30 10 C 0.645018 -0.886148 -0.656652 0
M  V30 11 C 1.598737 -0.804748 0.324005 0
M  V30 12 O 2.223289 0.333670 0.782002 0
M  V30 13 C 1.986330 1.637468 0.313698 0
M  V30 14 C 0.604547 2.116978 0.478053 0
M  V30 15 O 0.557592 3.308125 0.010810 0
M  V30 16 N -0.744501 1.905404 0.912190 0
M  V30 17 C -1.640690 3.019381 0.690448 0
M  V30 18 C -2.671225 2.505436 -0.323413 0
M  V30 19 N -3.435954 1.449375 0.311436 0
M  V30 20 C -2.519615 0.337134 0.604320 0
M  V30 21 C -1.432895 0.772316 1.551527 0
M  V30 22 C 1.975013 -2.001782 0.919532 0
M  V30 23 O 2.815634 -2.314720 1.849191 0
M  V30 24 H 4.010580 -6.091712 4.078054 0
M  V30 25 H 1.716450 -5.285728 1.207309 0
M  V30 26 H -0.007740 -4.189315 -0.776656 0
M  V30 27 H 0.354809 0.044886 -1.117286 0
M  V30 28 H 2.663784 2.302682 0.888748 0
M  V30 29 H 2.269606 1.758876 -0.752790 0
M  V30 30 H -2.241315 3.157356 1.636409 0
M  V30 31 H -1.177374 3.943993 0.360583 0
M  V30 32 H -3.326120 3.315714 -0.656517 0
M  V30 33 H -2.068391 2.052547 -1.134836 0
M  V30 34 H -4.096087 1.069148 -0.403416 0
M  V30 35 H -2.073366 0.078084 -0.359822 0
M  V30 36 H -3.109119 -0.506576 0.978223 0
M  V30 37 H -0.782810 -0.069269 1.762739 0
M  V30 38 H -1.914231 1.202774 2.458827 0
M  V30 END ATOM
M  V30 BEGIN BOND
M  V30 1 2 1 2
M  V30 2 1 2 3
M  V30 3 1 2 4
M  V30 4 2 4 5
M  V30 5 1 5 6
M  V30 6 2 6 7
M  V30 7 1 7 8
M  V30 8 1 8 9
M  V30 9 2 8 10
M  V30 10 1 10 11
M  V30 11 1 11 12
M  V30 12 1 12 13
M  V30 13 1 13 14
M  V30 14 2 14 15
M  V30 15 1 14 16
M  V30 16 1 16 17
M  V30 17 1 17 18
M  V30 18 1 18 19
M  V30 19 1 19 20
M  V30 20 1 20 21
M  V30 21 2 11 22
M  V30 22 1 22 23
M  V30 23 1 23 4
M  V30 24 1 22 6
M  V30 25 1 21 16
M  V30 26 1 3 24
M  V30 27 1 5 25
M  V30 28 1 7 26
M  V30 29 1 10 27
M  V30 30 1 13 28
M  V30 31 1 13 29
M  V30 32 1 17 30
M  V30 33 1 17 31
M  V30 34 1 18 32
M  V30 35 1 18 33
M  V30 36 1 19 34
M  V30 37 1 20 35
M  V30 38 1 20 36
M  V30 39 1 21 37
M  V30 40 1 21 38
M  V30 END BOND
M  V30 END CTAB
M  END
>  <Dataset>  (124) 
ChEMBL_Kinases

>  <Ligand_Instance>  (124) 
nan

>  <PDB_ID>  (124) 
nan

>  <Standardized_SMILES>  (124) 
O=C(O)c1cc2cc(Br)cc(OCC(=O)N3CCNCC3)c2o1

>  <Name>  (124) 
nan

>  <Pocket>  (124) 
nan

>  <ATP_Site>  (124) 
nan

>  <Peripheral>  (124) 
nan

>  <Num_H_Atoms_ProtBoundConf>  (124) 
nan

>  <Num_Resolved_Atoms>  (124) 
nan

>  <Num_Not_Resolved_Atoms>  (124) 
nan

$$$$
CHEMBL1802396
     RDKit          3D

  0  0  0  0  0  0  0  0  0  0999 V3000
M  V30 BEGIN CTAB
M  V30 COUNTS 40 43 0 0 0
M  V30 BEGIN ATOM
M  V30 1 C 0.128679 -5.026072 1.326248 0
M  V30 2 O -0.067295 -3.748357 0.813285 0
M  V30 3 C 0.912223 -2.902694 0.336277 0
M  V30 4 C 2.245495 -3.255592 0.318963 0
M  V30 5 C 3.212916 -2.397189 -0.161752 0
M  V30 6 C 2.878786 -1.147282 -0.645311 0
M  V30 7 C 1.535975 -0.773309 -0.635858 0
M  V30 8 C 0.991522 0.518237 -1.111623 0
M  V30 9 C 1.117067 0.919186 -2.425338 0
M  V30 10 N 0.599694 2.117114 -2.827336 0
M  V30 11 C -0.040976 2.911936 -1.920108 0
M  V30 12 N -0.602520 4.172521 -2.277938 0
M  V30 13 N -0.180341 2.544408 -0.620198 0
M  V30 14 C 0.328120 1.358816 -0.207541 0
M  V30 15 C 0.233989 0.871472 1.175983 0
M  V30 16 C 1.420607 0.685582 1.868468 0
M  V30 17 N 1.111862 0.238784 3.107909 0
M  V30 18 C -0.235433 0.137184 3.217090 0
M  V30 19 C -1.143142 -0.249680 4.204279 0
M  V30 20 C -2.508007 -0.228085 3.959412 0
M  V30 21 C -3.021652 0.178553 2.724762 0
M  V30 22 C -2.135984 0.570409 1.720317 0
M  V30 23 Br -2.796266 1.131395 0.024753 0
M  V30 24 C -0.792163 0.527268 2.024070 0
M  V30 25 C 0.580091 -1.657723 -0.145692 0
M  V30 26 H -0.886101 -5.520742 1.320861 0
M  V30 27 H 0.859064 -5.606254 0.748953 0
M  V30 28 H 0.453322 -4.932923 2.376282 0
M  V30 29 H 2.529095 -4.237223 0.696315 0
M  V30 30 H 4.276515 -2.654811 -0.186183 0
M  V30 31 H 3.559494 -0.401686 -1.042247 0
M  V30 32 H 1.622534 0.278879 -3.111829 0
M  V30 33 H -1.401728 4.123507 -2.942780 0
M  V30 34 H -0.339564 5.142036 -1.978732 0
M  V30 35 H 2.457200 0.805943 1.662533 0
M  V30 36 H 1.699540 -0.022593 3.937520 0
M  V30 37 H -0.719169 -0.559115 5.146141 0
M  V30 38 H -3.133579 -0.540114 4.770849 0
M  V30 39 H -4.077019 0.176730 2.590073 0
M  V30 40 H -0.469371 -1.396963 -0.125051 0
M  V30 END ATOM
M  V30 BEGIN BOND
M  V30 1 1 1 2
M  V30 2 1 2 3
M  V30 3 2 3 4
M  V30 4 1 4 5
M  V30 5 2 5 6
M  V30 6 1 6 7
M  V30 7 1 7 8
M  V30 8 2 8 9
M  V30 9 1 9 10
M  V30 10 2 10 11
M  V30 11 1 11 12
M  V30 12 1 11 13
M  V30 13 2 13 14
M  V30 14 1 14 15
M  V30 15 2 15 16
M  V30 16 1 16 17
M  V30 17 1 17 18
M  V30 18 2 18 19
M  V30 19 1 19 20
M  V30 20 2 20 21
M  V30 21 1 21 22
M  V30 22 1 22 23
M  V30 23 2 22 24
M  V30 24 2 7 25
M  V30 25 1 25 3
M  V30 26 1 14 8
M  V30 27 1 24 15
M  V30 28 1 24 18
M  V30 29 1 1 26
M  V30 30 1 1 27
M  V30 31 1 1 28
M  V30 32 1 4 29
M  V30 33 1 5 30
M  V30 34 1 6 31
M  V30 35 1 9 32
M  V30 36 1 12 33
M  V30 37 1 12 34
M  V30 38 1 16 35
M  V30 39 1 17 36
M  V30 40 1 19 37
M  V30 41 1 20 38
M  V30 42 1 21 39
M  V30 43 1 25 40
M  V30 END BOND
M  V30 END CTAB
M  END
>  <Dataset>  (125) 
ChEMBL_Kinases

>  <Ligand_Instance>  (125) 
nan

>  <PDB_ID>  (125) 
nan

>  <Standardized_SMILES>  (125) 
COc1cccc(-c2cnc(N)nc2-c2c[nH]c3cccc(Br)c23)c1

>  <Name>  (125) 
nan

>  <Pocket>  (125) 
nan

>  <ATP_Site>  (125) 
nan

>  <Peripheral>  (125) 
nan

>  <Num_H_Atoms_ProtBoundConf>  (125) 
nan

>  <Num_Resolved_Atoms>  (125) 
nan

>  <Num_Not_Resolved_Atoms>  (125) 
nan

$$$$
CHEMBL1802395
     RDKit          3D

  0  0  0  0  0  0  0  0  0  0999 V3000
M  V30 BEGIN CTAB
M  V30 COUNTS 39 42 0 0 0
M  V30 BEGIN ATOM
M  V30 1 N 3.070328 -3.532053 4.141868 0
M  V30 2 C 2.727979 -2.634625 3.117815 0
M  V30 3 N 3.621402 -1.688035 2.746763 0
M  V30 4 C 3.327290 -0.796043 1.766474 0
M  V30 5 C 2.074441 -0.894457 1.160995 0
M  V30 6 C 1.708891 0.063611 0.119163 0
M  V30 7 C 1.470708 0.013994 -1.228631 0
M  V30 8 C 1.109873 1.146826 -1.917886 0
M  V30 9 C 0.974817 2.374049 -1.264472 0
M  V30 10 C 0.572745 3.592163 -2.047732 0
M  V30 11 F 1.710912 4.258816 -2.429366 0
M  V30 12 F -0.243855 4.407519 -1.285874 0
M  V30 13 F -0.108466 3.207625 -3.167801 0
M  V30 14 C 1.210248 2.452912 0.098865 0
M  V30 15 C 1.578890 1.292291 0.790428 0
M  V30 16 C 1.185025 -1.890724 1.577954 0
M  V30 17 C -0.120416 -2.014842 0.945381 0
M  V30 18 C -0.450533 -2.532580 -0.292153 0
M  V30 19 N -1.763459 -2.480180 -0.566051 0
M  V30 20 C -2.324399 -1.910609 0.520438 0
M  V30 21 C -3.666219 -1.627939 0.728534 0
M  V30 22 Br -4.979942 -2.051816 -0.605374 0
M  V30 23 C -4.003108 -1.030347 1.925424 0
M  V30 24 C -3.054624 -0.724225 2.878980 0
M  V30 25 C -1.721009 -1.013553 2.655624 0
M  V30 26 C -1.337890 -1.617728 1.456556 0
M  V30 27 N 1.491622 -2.770204 2.554370 0
M  V30 28 H 3.589185 -4.442792 4.275476 0
M  V30 29 H 2.677520 -3.156962 5.028184 0
M  V30 30 H 4.004580 -0.027954 1.437301 0
M  V30 31 H 1.620333 -0.983411 -1.566506 0
M  V30 32 H 0.947064 1.017811 -2.972262 0
M  V30 33 H 1.081994 3.444978 0.502315 0
M  V30 34 H 1.716415 1.562421 1.834961 0
M  V30 35 H 0.298763 -2.945154 -0.973064 0
M  V30 36 H -2.184489 -2.832586 -1.468025 0
M  V30 37 H -5.038000 -0.804199 2.102747 0
M  V30 38 H -3.273753 -0.262120 3.817837 0
M  V30 39 H -0.913899 -0.810679 3.346858 0
M  V30 END ATOM
M  V30 BEGIN BOND
M  V30 1 1 1 2
M  V30 2 2 2 3
M  V30 3 1 3 4
M  V30 4 2 4 5
M  V30 5 1 5 6
M  V30 6 2 6 7
M  V30 7 1 7 8
M  V30 8 2 8 9
M  V30 9 1 9 10
M  V30 10 1 10 11
M  V30 11 1 10 12
M  V30 12 1 10 13
M  V30 13 1 9 14
M  V30 14 2 14 15
M  V30 15 1 5 16
M  V30 16 1 16 17
M  V30 17 2 17 18
M  V30 18 1 18 19
M  V30 19 1 19 20
M  V30 20 2 20 21
M  V30 21 1 21 22
M  V30 22 1 21 23
M  V30 23 2 23 24
M  V30 24 1 24 25
M  V30 25 2 25 26
M  V30 26 2 16 27
M  V30 27 1 27 2
M  V30 28 1 15 6
M  V30 29 1 26 17
M  V30 30 1 26 20
M  V30 31 1 1 28
M  V30 32 1 1 29
M  V30 33 1 4 30
M  V30 34 1 7 31
M  V30 35 1 8 32
M  V30 36 1 14 33
M  V30 37 1 15 34
M  V30 38 1 18 35
M  V30 39 1 19 36
M  V30 40 1 23 37
M  V30 41 1 24 38
M  V30 42 1 25 39
M  V30 END BOND
M  V30 END CTAB
M  END
>  <Dataset>  (126) 
ChEMBL_Kinases

>  <Ligand_Instance>  (126) 
nan

>  <PDB_ID>  (126) 
nan

>  <Standardized_SMILES>  (126) 
Nc1ncc(-c2ccc(C(F)(F)F)cc2)c(-c2c[nH]c3c(Br)cccc23)n1

>  <Name>  (126) 
nan

>  <Pocket>  (126) 
nan

>  <ATP_Site>  (126) 
nan

>  <Peripheral>  (126) 
nan

>  <Num_H_Atoms_ProtBoundConf>  (126) 
nan

>  <Num_Resolved_Atoms>  (126) 
nan

>  <Num_Not_Resolved_Atoms>  (126) 
nan

$$$$
CHEMBL1802392
     RDKit          3D

  0  0  0  0  0  0  0  0  0  0999 V3000
M  V30 BEGIN CTAB
M  V30 COUNTS 39 42 0 0 0
M  V30 BEGIN ATOM
M  V30 1 N 2.821999 -4.635317 2.898464 0
M  V30 2 C 2.444939 -3.440364 2.223771 0
M  V30 3 N 3.426499 -2.560105 1.875813 0
M  V30 4 C 3.119390 -1.418163 1.237439 0
M  V30 5 C 1.810406 -1.127671 0.929370 0
M  V30 6 C 1.606023 0.135002 0.239683 0
M  V30 7 C 2.251736 0.206944 -1.000871 0
M  V30 8 C 2.179980 1.336315 -1.821057 0
M  V30 9 C 1.431635 2.392759 -1.343407 0
M  V30 10 C 1.336821 3.619153 -2.203037 0
M  V30 11 F 2.578942 4.230633 -2.326210 0
M  V30 12 F 0.482348 4.540281 -1.631232 0
M  V30 13 F 0.869055 3.318896 -3.461224 0
M  V30 14 C 0.784458 2.355057 -0.129028 0
M  V30 15 C 0.864767 1.242677 0.661128 0
M  V30 16 C 0.828493 -2.030393 1.289076 0
M  V30 17 C -0.545232 -1.660704 0.931416 0
M  V30 18 C -1.011792 -1.488643 -0.369486 0
M  V30 19 N -2.329574 -1.149601 -0.315997 0
M  V30 20 C -2.722401 -1.099078 0.983769 0
M  V30 21 C -3.955800 -0.802364 1.556630 0
M  V30 22 C -4.043771 -0.834380 2.947320 0
M  V30 23 C -2.942545 -1.151186 3.751916 0
M  V30 24 C -1.745463 -1.436878 3.136962 0
M  V30 25 Br -0.257353 -1.865363 4.223465 0
M  V30 26 C -1.617942 -1.415715 1.763241 0
M  V30 27 N 1.138213 -3.178424 1.931011 0
M  V30 28 H 3.712363 -4.651499 3.440406 0
M  V30 29 H 2.232059 -5.490087 2.863747 0
M  V30 30 H 3.942061 -0.758601 0.987236 0
M  V30 31 H 2.859833 -0.605495 -1.428251 0
M  V30 32 H 2.669705 1.391021 -2.761781 0
M  V30 33 H 0.191839 3.186777 0.253492 0
M  V30 34 H 0.402266 1.095795 1.629741 0
M  V30 35 H -0.387400 -1.615650 -1.251100 0
M  V30 36 H -2.926939 -0.961825 -1.159299 0
M  V30 37 H -4.828141 -0.553784 0.980060 0
M  V30 38 H -5.027764 -0.596588 3.375688 0
M  V30 39 H -3.056750 -1.164238 4.837249 0
M  V30 END ATOM
M  V30 BEGIN BOND
M  V30 1 1 1 2
M  V30 2 2 2 3
M  V30 3 1 3 4
M  V30 4 2 4 5
M  V30 5 1 5 6
M  V30 6 2 6 7
M  V30 7 1 7 8
M  V30 8 2 8 9
M  V30 9 1 9 10
M  V30 10 1 10 11
M  V30 11 1 10 12
M  V30 12 1 10 13
M  V30 13 1 9 14
M  V30 14 2 14 15
M  V30 15 1 5 16
M  V30 16 1 16 17
M  V30 17 2 17 18
M  V30 18 1 18 19
M  V30 19 1 19 20
M  V30 20 2 20 21
M  V30 21 1 21 22
M  V30 22 2 22 23
M  V30 23 1 23 24
M  V30 24 1 24 25
M  V30 25 2 24 26
M  V30 26 2 16 27
M  V30 27 1 27 2
M  V30 28 1 15 6
M  V30 29 1 26 17
M  V30 30 1 26 20
M  V30 31 1 1 28
M  V30 32 1 1 29
M  V30 33 1 4 30
M  V30 34 1 7 31
M  V30 35 1 8 32
M  V30 36 1 14 33
M  V30 37 1 15 34
M  V30 38 1 18 35
M  V30 39 1 19 36
M  V30 40 1 21 37
M  V30 41 1 22 38
M  V30 42 1 23 39
M  V30 END BOND
M  V30 END CTAB
M  END
>  <Dataset>  (127) 
ChEMBL_Kinases

>  <Ligand_Instance>  (127) 
nan

>  <PDB_ID>  (127) 
nan

>  <Standardized_SMILES>  (127) 
Nc1ncc(-c2ccc(C(F)(F)F)cc2)c(-c2c[nH]c3cccc(Br)c23)n1

>  <Name>  (127) 
nan

>  <Pocket>  (127) 
nan

>  <ATP_Site>  (127) 
nan

>  <Peripheral>  (127) 
nan

>  <Num_H_Atoms_ProtBoundConf>  (127) 
nan

>  <Num_Resolved_Atoms>  (127) 
nan

>  <Num_Not_Resolved_Atoms>  (127) 
nan

$$$$
CHEMBL1802391
     RDKit          3D

  0  0  0  0  0  0  0  0  0  0999 V3000
M  V30 BEGIN CTAB
M  V30 COUNTS 43 46 0 0 0
M  V30 BEGIN ATOM
M  V30 1 C 0.611960 -6.557560 1.125800 0
M  V30 2 C 0.710771 -5.085451 0.963357 0
M  V30 3 O 0.106069 -4.341096 1.775896 0
M  V30 4 N 1.444856 -4.401735 -0.053067 0
M  V30 5 C 1.461541 -2.981338 -0.103233 0
M  V30 6 C 2.416971 -2.260276 0.564252 0
M  V30 7 C 2.398360 -0.875960 0.489265 0
M  V30 8 C 1.430714 -0.199529 -0.249278 0
M  V30 9 C 1.570162 1.251916 -0.213152 0
M  V30 10 C 2.725917 1.847622 -0.692173 0
M  V30 11 N 2.961389 3.171150 -0.709011 0
M  V30 12 C 1.985571 3.976983 -0.216661 0
M  V30 13 N 2.203666 5.391819 -0.219903 0
M  V30 14 N 0.851886 3.452415 0.257353 0
M  V30 15 C 0.616438 2.121936 0.273719 0
M  V30 16 C -0.627797 1.569482 0.796583 0
M  V30 17 C -1.815803 1.910385 0.154373 0
M  V30 18 N -2.803002 1.270946 0.835905 0
M  V30 19 C -2.316336 0.559484 1.852323 0
M  V30 20 C -2.833274 -0.254884 2.841671 0
M  V30 21 Br -4.728822 -0.502896 2.860137 0
M  V30 22 C -1.989238 -0.854165 3.769200 0
M  V30 23 C -0.625896 -0.650569 3.722666 0
M  V30 24 C -0.089921 0.161995 2.738727 0
M  V30 25 C -0.942377 0.738031 1.840561 0
M  V30 26 C 0.482031 -0.932080 -0.911304 0
M  V30 27 C 0.505724 -2.313456 -0.832692 0
M  V30 28 H 1.130889 -7.113606 0.344521 0
M  V30 29 H 1.109850 -6.801537 2.096724 0
M  V30 30 H -0.437889 -6.901809 1.210788 0
M  V30 31 H 1.959595 -5.013230 -0.744439 0
M  V30 32 H 3.175467 -2.772058 1.142320 0
M  V30 33 H 3.196328 -0.365208 1.050929 0
M  V30 34 H 3.547842 1.268386 -1.100111 0
M  V30 35 H 3.023525 5.850139 0.259195 0
M  V30 36 H 1.457967 5.902706 -0.749119 0
M  V30 37 H -2.013381 2.543829 -0.711839 0
M  V30 38 H -3.835977 1.328882 0.591020 0
M  V30 39 H -2.494868 -1.482687 4.514963 0
M  V30 40 H -0.006911 -1.139534 4.467127 0
M  V30 41 H 0.964476 0.323027 2.699759 0
M  V30 42 H -0.245664 -0.350103 -1.470463 0
M  V30 43 H -0.267845 -2.869745 -1.373901 0
M  V30 END ATOM
M  V30 BEGIN BOND
M  V30 1 1 1 2
M  V30 2 2 2 3
M  V30 3 1 2 4
M  V30 4 1 4 5
M  V30 5 2 5 6
M  V30 6 1 6 7
M  V30 7 2 7 8
M  V30 8 1 8 9
M  V30 9 2 9 10
M  V30 10 1 10 11
M  V30 11 2 11 12
M  V30 12 1 12 13
M  V30 13 1 12 14
M  V30 14 2 14 15
M  V30 15 1 15 16
M  V30 16 2 16 17
M  V30 17 1 17 18
M  V30 18 1 18 19
M  V30 19 2 19 20
M  V30 20 1 20 21
M  V30 21 1 20 22
M  V30 22 2 22 23
M  V30 23 1 23 24
M  V30 24 2 24 25
M  V30 25 1 8 26
M  V30 26 2 26 27
M  V30 27 1 27 5
M  V30 28 1 15 9
M  V30 29 1 25 16
M  V30 30 1 25 19
M  V30 31 1 1 28
M  V30 32 1 1 29
M  V30 33 1 1 30
M  V30 34 1 4 31
M  V30 35 1 6 32
M  V30 36 1 7 33
M  V30 37 1 10 34
M  V30 38 1 13 35
M  V30 39 1 13 36
M  V30 40 1 17 37
M  V30 41 1 18 38
M  V30 42 1 22 39
M  V30 43 1 23 40
M  V30 44 1 24 41
M  V30 45 1 26 42
M  V30 46 1 27 43
M  V30 END BOND
M  V30 END CTAB
M  END
>  <Dataset>  (128) 
ChEMBL_Kinases

>  <Ligand_Instance>  (128) 
nan

>  <PDB_ID>  (128) 
nan

>  <Standardized_SMILES>  (128) 
CC(=O)Nc1ccc(-c2cnc(N)nc2-c2c[nH]c3c(Br)cccc23)cc1

>  <Name>  (128) 
nan

>  <Pocket>  (128) 
nan

>  <ATP_Site>  (128) 
nan

>  <Peripheral>  (128) 
nan

>  <Num_H_Atoms_ProtBoundConf>  (128) 
nan

>  <Num_Resolved_Atoms>  (128) 
nan

>  <Num_Not_Resolved_Atoms>  (128) 
nan

$$$$
CHEMBL1802390
     RDKit          3D

  0  0  0  0  0  0  0  0  0  0999 V3000
M  V30 BEGIN CTAB
M  V30 COUNTS 43 46 0 0 0
M  V30 BEGIN ATOM
M  V30 1 C -0.288161 -6.211649 1.946844 0
M  V30 2 C -0.019470 -4.820147 1.527787 0
M  V30 3 O -0.631311 -3.798837 1.951579 0
M  V30 4 N 0.982854 -4.493637 0.580278 0
M  V30 5 C 1.139866 -3.106178 0.262452 0
M  V30 6 C 0.371236 -2.649107 -0.789208 0
M  V30 7 C 0.484059 -1.317804 -1.138878 0
M  V30 8 C 1.327816 -0.449073 -0.478341 0
M  V30 9 C 1.500889 0.966735 -0.791169 0
M  V30 10 C 1.954139 1.296979 -2.047688 0
M  V30 11 N 2.126888 2.609900 -2.368071 0
M  V30 12 C 1.846086 3.546062 -1.436719 0
M  V30 13 N 2.049188 4.906168 -1.836536 0
M  V30 14 N 1.402131 3.216784 -0.205891 0
M  V30 15 C 1.213549 1.918651 0.161255 0
M  V30 16 C 0.727167 1.598618 1.499870 0
M  V30 17 C 1.313236 1.814899 2.749591 0
M  V30 18 N 0.471600 1.349095 3.689762 0
M  V30 19 C -0.647068 0.832322 3.135873 0
M  V30 20 C -1.774519 0.249671 3.691649 0
M  V30 21 C -2.798049 -0.204687 2.886657 0
M  V30 22 Br -4.374687 -1.015739 3.585406 0
M  V30 23 C -2.625087 -0.043087 1.526799 0
M  V30 24 C -1.514461 0.533235 0.932827 0
M  V30 25 C -0.498611 0.983380 1.753831 0
M  V30 26 C 2.090068 -0.951495 0.582170 0
M  V30 27 C 2.017063 -2.282594 0.977794 0
M  V30 28 H 0.637517 -6.818403 2.084073 0
M  V30 29 H -0.914412 -6.730087 1.203399 0
M  V30 30 H -0.852176 -6.139996 2.912561 0
M  V30 31 H 1.564907 -5.251931 0.151579 0
M  V30 32 H -0.300322 -3.279146 -1.336878 0
M  V30 33 H -0.064811 -0.845644 -1.942756 0
M  V30 34 H 2.182667 0.549245 -2.803630 0
M  V30 35 H 2.844400 5.305255 -1.262561 0
M  V30 36 H 1.496577 5.401732 -2.571463 0
M  V30 37 H 2.280955 2.280791 2.876941 0
M  V30 38 H 0.631424 1.368737 4.721158 0
M  V30 39 H -1.902277 0.125439 4.763017 0
M  V30 40 H -3.411806 -0.390838 0.890819 0
M  V30 41 H -1.455562 0.623089 -0.125777 0
M  V30 42 H 2.796875 -0.371283 1.188715 0
M  V30 43 H 2.594596 -2.684808 1.789667 0
M  V30 END ATOM
M  V30 BEGIN BOND
M  V30 1 1 1 2
M  V30 2 2 2 3
M  V30 3 1 2 4
M  V30 4 1 4 5
M  V30 5 2 5 6
M  V30 6 1 6 7
M  V30 7 2 7 8
M  V30 8 1 8 9
M  V30 9 2 9 10
M  V30 10 1 10 11
M  V30 11 2 11 12
M  V30 12 1 12 13
M  V30 13 1 12 14
M  V30 14 2 14 15
M  V30 15 1 15 16
M  V30 16 2 16 17
M  V30 17 1 17 18
M  V30 18 1 18 19
M  V30 19 2 19 20
M  V30 20 1 20 21
M  V30 21 1 21 22
M  V30 22 2 21 23
M  V30 23 1 23 24
M  V30 24 2 24 25
M  V30 25 1 8 26
M  V30 26 2 26 27
M  V30 27 1 27 5
M  V30 28 1 15 9
M  V30 29 1 25 16
M  V30 30 1 25 19
M  V30 31 1 1 28
M  V30 32 1 1 29
M  V30 33 1 1 30
M  V30 34 1 4 31
M  V30 35 1 6 32
M  V30 36 1 7 33
M  V30 37 1 10 34
M  V30 38 1 13 35
M  V30 39 1 13 36
M  V30 40 1 17 37
M  V30 41 1 18 38
M  V30 42 1 20 39
M  V30 43 1 23 40
M  V30 44 1 24 41
M  V30 45 1 26 42
M  V30 46 1 27 43
M  V30 END BOND
M  V30 END CTAB
M  END
>  <Dataset>  (129) 
ChEMBL_Kinases

>  <Ligand_Instance>  (129) 
nan

>  <PDB_ID>  (129) 
nan

>  <Standardized_SMILES>  (129) 
CC(=O)Nc1ccc(-c2cnc(N)nc2-c2c[nH]c3cc(Br)ccc23)cc1

>  <Name>  (129) 
nan

>  <Pocket>  (129) 
nan

>  <ATP_Site>  (129) 
nan

>  <Peripheral>  (129) 
nan

>  <Num_H_Atoms_ProtBoundConf>  (129) 
nan

>  <Num_Resolved_Atoms>  (129) 
nan

>  <Num_Not_Resolved_Atoms>  (129) 
nan

$$$$
CHEMBL1802389
     RDKit          3D

  0  0  0  0  0  0  0  0  0  0999 V3000
M  V30 BEGIN CTAB
M  V30 COUNTS 43 46 0 0 0
M  V30 BEGIN ATOM
M  V30 1 C 1.493726 -5.509240 3.308192 0
M  V30 2 C 1.625357 -4.387788 2.324259 0
M  V30 3 O 0.879613 -3.390255 2.621988 0
M  V30 4 N 2.417616 -4.222490 1.128851 0
M  V30 5 C 2.101354 -2.930442 0.633520 0
M  V30 6 C 2.871931 -1.916492 1.158704 0
M  V30 7 C 2.624761 -0.623462 0.714175 0
M  V30 8 C 1.619873 -0.422770 -0.230539 0
M  V30 9 C 1.476993 0.977265 -0.613591 0
M  V30 10 C 2.377267 1.362024 -1.599289 0
M  V30 11 N 2.288787 2.668362 -1.994770 0
M  V30 12 C 1.357859 3.486800 -1.419995 0
M  V30 13 N 1.296511 4.850615 -1.860284 0
M  V30 14 N 0.506587 3.063647 -0.464959 0
M  V30 15 C 0.540516 1.770413 -0.023159 0
M  V30 16 C -0.387258 1.349936 1.010373 0
M  V30 17 C -0.116884 1.796879 2.310543 0
M  V30 18 N -1.052857 1.340669 3.158201 0
M  V30 19 C -1.957783 0.589668 2.456983 0
M  V30 20 C -3.106630 -0.126250 2.719984 0
M  V30 21 C -3.772329 -0.780623 1.693661 0
M  V30 22 C -3.317860 -0.739136 0.398545 0
M  V30 23 Br -4.311348 -1.677295 -0.942330 0
M  V30 24 C -2.159572 -0.027608 0.083228 0
M  V30 25 C -1.537954 0.604663 1.146891 0
M  V30 26 C 0.883751 -1.483121 -0.716416 0
M  V30 27 C 1.099601 -2.778026 -0.299416 0
M  V30 28 H 2.401917 -6.151051 3.234090 0
M  V30 29 H 1.507786 -5.066858 4.332042 0
M  V30 30 H 0.547307 -6.062772 3.135922 0
M  V30 31 H 2.961086 -5.109622 0.993217 0
M  V30 32 H 3.653045 -2.085278 1.895781 0
M  V30 33 H 3.239919 0.181132 1.136177 0
M  V30 34 H 3.106329 0.700181 -2.041581 0
M  V30 35 H 0.432166 5.430118 -1.828524 0
M  V30 36 H 2.145211 5.355736 -2.250632 0
M  V30 37 H 0.667190 2.410491 2.726903 0
M  V30 38 H -1.179965 1.464638 4.188121 0
M  V30 39 H -3.426455 -0.130995 3.753731 0
M  V30 40 H -4.658465 -1.315795 1.980654 0
M  V30 41 H -1.805858 0.009644 -0.933618 0
M  V30 42 H 0.127025 -1.256713 -1.448951 0
M  V30 43 H 0.515098 -3.598179 -0.687894 0
M  V30 END ATOM
M  V30 BEGIN BOND
M  V30 1 1 1 2
M  V30 2 2 2 3
M  V30 3 1 2 4
M  V30 4 1 4 5
M  V30 5 2 5 6
M  V30 6 1 6 7
M  V30 7 2 7 8
M  V30 8 1 8 9
M  V30 9 2 9 10
M  V30 10 1 10 11
M  V30 11 2 11 12
M  V30 12 1 12 13
M  V30 13 1 12 14
M  V30 14 2 14 15
M  V30 15 1 15 16
M  V30 16 2 16 17
M  V30 17 1 17 18
M  V30 18 1 18 19
M  V30 19 2 19 20
M  V30 20 1 20 21
M  V30 21 2 21 22
M  V30 22 1 22 23
M  V30 23 1 22 24
M  V30 24 2 24 25
M  V30 25 1 8 26
M  V30 26 2 26 27
M  V30 27 1 27 5
M  V30 28 1 15 9
M  V30 29 1 25 16
M  V30 30 1 25 19
M  V30 31 1 1 28
M  V30 32 1 1 29
M  V30 33 1 1 30
M  V30 34 1 4 31
M  V30 35 1 6 32
M  V30 36 1 7 33
M  V30 37 1 10 34
M  V30 38 1 13 35
M  V30 39 1 13 36
M  V30 40 1 17 37
M  V30 41 1 18 38
M  V30 42 1 20 39
M  V30 43 1 21 40
M  V30 44 1 24 41
M  V30 45 1 26 42
M  V30 46 1 27 43
M  V30 END BOND
M  V30 END CTAB
M  END
>  <Dataset>  (130) 
ChEMBL_Kinases

>  <Ligand_Instance>  (130) 
nan

>  <PDB_ID>  (130) 
nan

>  <Standardized_SMILES>  (130) 
CC(=O)Nc1ccc(-c2cnc(N)nc2-c2c[nH]c3ccc(Br)cc23)cc1

>  <Name>  (130) 
nan

>  <Pocket>  (130) 
nan

>  <ATP_Site>  (130) 
nan

>  <Peripheral>  (130) 
nan

>  <Num_H_Atoms_ProtBoundConf>  (130) 
nan

>  <Num_Resolved_Atoms>  (130) 
nan

>  <Num_Not_Resolved_Atoms>  (130) 
nan

$$$$
CHEMBL4778578
     RDKit          3D

  0  0  0  0  0  0  0  0  0  0999 V3000
M  V30 BEGIN CTAB
M  V30 COUNTS 40 42 0 0 0
M  V30 BEGIN ATOM
M  V30 1 C -3.118269 -3.090347 1.115246 0
M  V30 2 C -1.934669 -2.196657 1.219122 0
M  V30 3 C -0.630775 -2.506820 0.930903 0
M  V30 4 N 0.132442 -1.441510 1.150008 0
M  V30 5 C 1.566903 -1.386333 0.956243 0 CFG=1
M  V30 6 C 2.227985 -2.714530 0.824777 0
M  V30 7 C 1.948247 -0.440212 -0.150800 0 CFG=2
M  V30 8 F 1.548091 0.840305 0.072099 0
M  V30 9 C 1.403850 -0.867566 -1.501680 0
M  V30 10 C 2.242567 0.054606 -2.394016 0
M  V30 11 N 3.477805 0.275328 -1.701380 0
M  V30 12 C 3.426982 -0.490700 -0.463333 0
M  V30 13 C -0.581800 -0.390464 1.581946 0
M  V30 14 N -0.313452 0.876396 1.936504 0
M  V30 15 C -1.302145 1.725284 2.345920 0
M  V30 16 C -1.031665 3.112507 2.737588 0
M  V30 17 N 0.335650 3.544407 2.670824 0
M  V30 18 O -1.946175 3.900974 3.117314 0
M  V30 19 C -2.616295 1.260833 2.394719 0
M  V30 20 C -2.935888 -0.045305 2.035480 0
M  V30 21 Cl -4.589605 -0.569632 2.115587 0
M  V30 22 C -1.885711 -0.870521 1.624386 0
M  V30 23 H -3.601236 -3.022061 0.125247 0
M  V30 24 H -2.723205 -4.141922 1.188702 0
M  V30 25 H -3.809952 -2.995413 1.969769 0
M  V30 26 H -0.264600 -3.460877 0.580318 0
M  V30 27 H 1.970347 -0.919455 1.890215 0
M  V30 28 H 3.320946 -2.544532 0.975147 0
M  V30 29 H 1.916279 -3.373056 1.640039 0
M  V30 30 H 2.113222 -3.174638 -0.175132 0
M  V30 31 H 1.701736 -1.893862 -1.730055 0
M  V30 32 H 0.347158 -0.632654 -1.651800 0
M  V30 33 H 2.351718 -0.368807 -3.406413 0
M  V30 34 H 1.661160 1.017789 -2.447691 0
M  V30 35 H 3.604888 1.279820 -1.422291 0
M  V30 36 H 3.715990 -1.525363 -0.751722 0
M  V30 37 H 4.063784 -0.047294 0.316343 0
M  V30 38 H 0.656042 4.453826 2.266652 0
M  V30 39 H 1.178138 3.021037 3.009206 0
M  V30 40 H -3.423008 1.898974 2.711834 0
M  V30 END ATOM
M  V30 BEGIN BOND
M  V30 1 1 1 2
M  V30 2 2 2 3
M  V30 3 1 3 4
M  V30 4 1 4 5
M  V30 5 1 5 6
M  V30 6 1 5 7
M  V30 7 1 7 8 CFG=1
M  V30 8 1 7 9
M  V30 9 1 9 10
M  V30 10 1 10 11
M  V30 11 1 11 12
M  V30 12 1 4 13
M  V30 13 2 13 14
M  V30 14 1 14 15
M  V30 15 1 15 16
M  V30 16 1 16 17
M  V30 17 2 16 18
M  V30 18 2 15 19
M  V30 19 1 19 20
M  V30 20 1 20 21
M  V30 21 2 20 22
M  V30 22 1 22 2
M  V30 23 1 12 7
M  V30 24 1 22 13
M  V30 25 1 1 23
M  V30 26 1 1 24
M  V30 27 1 1 25
M  V30 28 1 3 26
M  V30 29 1 5 27 CFG=1
M  V30 30 1 6 28
M  V30 31 1 6 29
M  V30 32 1 6 30
M  V30 33 1 9 31
M  V30 34 1 9 32
M  V30 35 1 10 33
M  V30 36 1 10 34
M  V30 37 1 11 35
M  V30 38 1 12 36
M  V30 39 1 12 37
M  V30 40 1 17 38
M  V30 41 1 17 39
M  V30 42 1 19 40
M  V30 END BOND
M  V30 END CTAB
M  END
>  <Dataset>  (131) 
ChEMBL_Kinases

>  <Ligand_Instance>  (131) 
nan

>  <PDB_ID>  (131) 
nan

>  <Standardized_SMILES>  (131) 
Cc1cn([C@@H](C)[C@]2(F)CCNC2)c2nc(C(N)=O)cc(Cl)c12

>  <Name>  (131) 
nan

>  <Pocket>  (131) 
nan

>  <ATP_Site>  (131) 
nan

>  <Peripheral>  (131) 
nan

>  <Num_H_Atoms_ProtBoundConf>  (131) 
nan

>  <Num_Resolved_Atoms>  (131) 
nan

>  <Num_Not_Resolved_Atoms>  (131) 
nan

$$$$
CHEMBL4778588
     RDKit          3D

  0  0  0  0  0  0  0  0  0  0999 V3000
M  V30 BEGIN CTAB
M  V30 COUNTS 49 52 0 0 0
M  V30 BEGIN ATOM
M  V30 1 C 5.641860 -4.371770 3.562006 0
M  V30 2 O 5.726170 -4.378543 2.153661 0
M  V30 3 C 5.160361 -3.448610 1.324371 0
M  V30 4 C 5.269145 -3.493931 -0.067774 0
M  V30 5 C 4.673817 -2.524064 -0.840654 0
M  V30 6 C 3.961690 -1.492581 -0.269450 0
M  V30 7 C 3.815012 -1.388026 1.102593 0
M  V30 8 C 3.061223 -0.303401 1.791303 0 CFG=1
M  V30 9 C 3.858632 0.961163 1.922038 0
M  V30 10 N 1.772797 -0.046043 1.141431 0
M  V30 11 C 0.547041 -0.262148 1.796730 0
M  V30 12 O 0.625840 -0.689205 2.972856 0
M  V30 13 C -0.768502 -0.027740 1.211639 0
M  V30 14 C -1.873766 -0.292067 1.994840 0
M  V30 15 C -3.156313 -0.082848 1.477849 0
M  V30 16 C -3.283271 0.385639 0.189262 0
M  V30 17 C -2.193465 0.656639 -0.611642 0
M  V30 18 C -0.920722 0.441246 -0.077137 0
M  V30 19 C -2.279403 1.156975 -1.990088 0
M  V30 20 O -3.600392 1.332504 -2.412333 0
M  V30 21 C -4.734546 1.078541 -1.656328 0
M  V30 22 C -5.987368 1.300569 -2.210087 0
M  V30 23 N -7.082957 1.043752 -1.448006 0
M  V30 24 C -6.986523 0.580411 -0.172126 0
M  V30 25 N -8.209468 0.340621 0.549012 0
M  V30 26 C -5.721870 0.363266 0.367530 0
M  V30 27 C -4.608465 0.609439 -0.365970 0
M  V30 28 C 4.434961 -2.391687 1.834018 0
M  V30 29 H 6.487829 -4.964204 3.988071 0
M  V30 30 H 4.711611 -4.843913 3.941685 0
M  V30 31 H 5.705566 -3.355184 4.006743 0
M  V30 32 H 5.834835 -4.313912 -0.514718 0
M  V30 33 H 4.774388 -2.583835 -1.919995 0
M  V30 34 H 3.477079 -0.707246 -0.850332 0
M  V30 35 H 2.830472 -0.669189 2.814717 0
M  V30 36 H 3.502175 1.504020 2.824335 0
M  V30 37 H 4.916020 0.710456 2.025391 0
M  V30 38 H 3.762719 1.648027 1.062291 0
M  V30 39 H 1.761287 0.309295 0.160232 0
M  V30 40 H -1.757253 -0.664668 3.018922 0
M  V30 41 H -3.961867 -0.310762 2.146125 0
M  V30 42 H -0.058052 0.648474 -0.690987 0
M  V30 43 H -1.795851 2.170517 -1.996976 0
M  V30 44 H -1.681385 0.560381 -2.710609 0
M  V30 45 H -6.135678 1.672381 -3.230543 0
M  V30 46 H -8.713818 0.834704 1.340348 0
M  V30 47 H -8.783736 -0.500285 0.280976 0
M  V30 48 H -5.747554 0.003831 1.362142 0
M  V30 49 H 4.322597 -2.314441 2.918240 0
M  V30 END ATOM
M  V30 BEGIN BOND
M  V30 1 1 1 2
M  V30 2 1 2 3
M  V30 3 2 3 4
M  V30 4 1 4 5
M  V30 5 2 5 6
M  V30 6 1 6 7
M  V30 7 1 7 8
M  V30 8 1 8 9
M  V30 9 1 8 10
M  V30 10 1 10 11
M  V30 11 2 11 12
M  V30 12 1 11 13
M  V30 13 2 13 14
M  V30 14 1 14 15
M  V30 15 2 15 16
M  V30 16 1 16 17
M  V30 17 2 17 18
M  V30 18 1 17 19
M  V30 19 1 19 20
M  V30 20 1 20 21
M  V30 21 2 21 22
M  V30 22 1 22 23
M  V30 23 2 23 24
M  V30 24 1 24 25
M  V30 25 1 24 26
M  V30 26 2 26 27
M  V30 27 2 7 28
M  V30 28 1 28 3
M  V30 29 1 18 13
M  V30 30 1 27 21
M  V30 31 1 27 16
M  V30 32 1 1 29
M  V30 33 1 1 30
M  V30 34 1 1 31
M  V30 35 1 4 32
M  V30 36 1 5 33
M  V30 37 1 6 34
M  V30 38 1 8 35 CFG=1
M  V30 39 1 9 36
M  V30 40 1 9 37
M  V30 41 1 9 38
M  V30 42 1 10 39
M  V30 43 1 14 40
M  V30 44 1 15 41
M  V30 45 1 18 42
M  V30 46 1 19 43
M  V30 47 1 19 44
M  V30 48 1 22 45
M  V30 49 1 25 46
M  V30 50 1 25 47
M  V30 51 1 26 48
M  V30 52 1 28 49
M  V30 END BOND
M  V30 END CTAB
M  END
>  <Dataset>  (132) 
ChEMBL_Kinases

>  <Ligand_Instance>  (132) 
nan

>  <PDB_ID>  (132) 
nan

>  <Standardized_SMILES>  (132) 
COc1cccc([C@@H](C)NC(=O)c2ccc3c(c2)COc2cnc(N)cc2-3)c1

>  <Name>  (132) 
nan

>  <Pocket>  (132) 
nan

>  <ATP_Site>  (132) 
nan

>  <Peripheral>  (132) 
nan

>  <Num_H_Atoms_ProtBoundConf>  (132) 
nan

>  <Num_Resolved_Atoms>  (132) 
nan

>  <Num_Not_Resolved_Atoms>  (132) 
nan

$$$$
CHEMBL4778671
     RDKit          3D

  0  0  0  0  0  0  0  0  0  0999 V3000
M  V30 BEGIN CTAB
M  V30 COUNTS 50 53 0 0 0
M  V30 BEGIN ATOM
M  V30 1 C 3.303648 -2.400042 4.891882 0
M  V30 2 O 3.664393 -1.079101 5.187926 0
M  V30 3 C 3.809897 -0.050977 4.280546 0
M  V30 4 C 4.178968 1.155115 4.884730 0
M  V30 5 C 4.364296 2.286787 4.097692 0
M  V30 6 C 4.180398 2.198069 2.734818 0
M  V30 7 C 3.814514 1.004377 2.131732 0
M  V30 8 C 3.603112 0.863339 0.646259 0 CFG=1
M  V30 9 C 4.758594 0.227160 -0.051112 0
M  V30 10 N 2.384317 0.111554 0.406579 0
M  V30 11 C 1.233725 0.599191 -0.253624 0
M  V30 12 O 1.347546 1.802873 -0.642030 0
M  V30 13 C 0.040620 -0.217637 -0.458934 0
M  V30 14 C -0.091823 -1.526896 -0.040109 0
M  V30 15 C -1.275777 -2.185992 -0.298726 0
M  V30 16 C -2.293668 -1.552289 -0.956074 0
M  V30 17 C -2.198268 -0.256023 -1.385756 0
M  V30 18 C -1.015545 0.405387 -1.128496 0
M  V30 19 O -3.199781 0.429505 -2.055003 0
M  V30 20 C -4.440786 -0.166508 -2.360634 0
M  V30 21 C -5.585460 0.594531 -1.709802 0
M  V30 22 C -4.528173 -1.570385 -1.888491 0
M  V30 23 C -5.692650 -2.251650 -2.130878 0
M  V30 24 N -5.889283 -3.518140 -1.754475 0
M  V30 25 C -4.919310 -4.202312 -1.098928 0
M  V30 26 C -3.713889 -3.556153 -0.826610 0
M  V30 27 C -3.535394 -2.252373 -1.224148 0
M  V30 28 C 3.635045 -0.108412 2.928890 0
M  V30 29 H 3.753571 -3.105987 5.646550 0
M  V30 30 H 3.503954 -2.700552 3.846952 0
M  V30 31 H 2.201455 -2.485212 5.043367 0
M  V30 32 H 4.340576 1.295350 5.953351 0
M  V30 33 H 4.653795 3.244395 4.547556 0
M  V30 34 H 4.309251 3.046836 2.059228 0
M  V30 35 H 3.472750 1.893421 0.218024 0
M  V30 36 H 5.514383 0.983786 -0.391347 0
M  V30 37 H 4.399163 -0.289630 -0.972638 0
M  V30 38 H 5.258954 -0.516514 0.601352 0
M  V30 39 H 2.420025 -0.864046 0.775146 0
M  V30 40 H 0.742070 -1.984401 0.476077 0
M  V30 41 H -1.293103 -3.200848 0.061779 0
M  V30 42 H -0.916499 1.447597 -1.464573 0
M  V30 43 H -4.614582 -0.089760 -3.453492 0
M  V30 44 H -6.427486 -0.113704 -1.610083 0
M  V30 45 H -5.848269 1.502232 -2.267063 0
M  V30 46 H -5.237686 0.822057 -0.668817 0
M  V30 47 H -6.577172 -1.867283 -2.641866 0
M  V30 48 H -5.068441 -5.229452 -0.789312 0
M  V30 49 H -2.980770 -4.142630 -0.306000 0
M  V30 50 H 3.356314 -1.070092 2.577854 0
M  V30 END ATOM
M  V30 BEGIN BOND
M  V30 1 1 1 2
M  V30 2 1 2 3
M  V30 3 2 3 4
M  V30 4 1 4 5
M  V30 5 2 5 6
M  V30 6 1 6 7
M  V30 7 1 7 8
M  V30 8 1 8 9
M  V30 9 1 8 10
M  V30 10 1 10 11
M  V30 11 2 11 12
M  V30 12 1 11 13
M  V30 13 2 13 14
M  V30 14 1 14 15
M  V30 15 2 15 16
M  V30 16 1 16 17
M  V30 17 2 17 18
M  V30 18 1 17 19
M  V30 19 1 19 20
M  V30 20 1 20 21
M  V30 21 1 20 22
M  V30 22 2 22 23
M  V30 23 1 23 24
M  V30 24 2 24 25
M  V30 25 1 25 26
M  V30 26 2 26 27
M  V30 27 2 7 28
M  V30 28 1 28 3
M  V30 29 1 18 13
M  V30 30 1 27 22
M  V30 31 1 27 16
M  V30 32 1 1 29
M  V30 33 1 1 30
M  V30 34 1 1 31
M  V30 35 1 4 32
M  V30 36 1 5 33
M  V30 37 1 6 34
M  V30 38 1 8 35 CFG=3
M  V30 39 1 9 36
M  V30 40 1 9 37
M  V30 41 1 9 38
M  V30 42 1 10 39
M  V30 43 1 14 40
M  V30 44 1 15 41
M  V30 45 1 18 42
M  V30 46 1 20 43
M  V30 47 1 21 44
M  V30 48 1 21 45
M  V30 49 1 21 46
M  V30 50 1 23 47
M  V30 51 1 25 48
M  V30 52 1 26 49
M  V30 53 1 28 50
M  V30 END BOND
M  V30 END CTAB
M  END
>  <Dataset>  (133) 
ChEMBL_Kinases

>  <Ligand_Instance>  (133) 
nan

>  <PDB_ID>  (133) 
nan

>  <Standardized_SMILES>  (133) 
COc1cccc([C@@H](C)NC(=O)c2ccc3c(c2)OC(C)c2cnccc2-3)c1

>  <Name>  (133) 
nan

>  <Pocket>  (133) 
nan

>  <ATP_Site>  (133) 
nan

>  <Peripheral>  (133) 
nan

>  <Num_H_Atoms_ProtBoundConf>  (133) 
nan

>  <Num_Resolved_Atoms>  (133) 
nan

>  <Num_Not_Resolved_Atoms>  (133) 
nan

$$$$
CHEMBL1802397
     RDKit          3D

  0  0  0  0  0  0  0  0  0  0999 V3000
M  V30 BEGIN CTAB
M  V30 COUNTS 40 43 0 0 0
M  V30 BEGIN ATOM
M  V30 1 C -0.099246 -4.985179 1.242202 0
M  V30 2 O -0.297827 -3.682935 0.761226 0
M  V30 3 C 0.721286 -2.926303 0.186343 0
M  V30 4 C 2.016922 -3.372355 0.030881 0
M  V30 5 C 2.968474 -2.572474 -0.544335 0
M  V30 6 C 2.698356 -1.297873 -0.995235 0
M  V30 7 C 1.406067 -0.838144 -0.846272 0
M  V30 8 C 0.912703 0.479614 -1.257482 0
M  V30 9 C 0.871098 1.021360 -2.536652 0
M  V30 10 N 0.382952 2.243692 -2.725888 0
M  V30 11 C -0.088835 3.007803 -1.702702 0
M  V30 12 N -0.599244 4.312120 -1.975623 0
M  V30 13 N -0.049367 2.486912 -0.468518 0
M  V30 14 C 0.433250 1.248193 -0.195516 0
M  V30 15 C 0.425036 0.793440 1.191966 0
M  V30 16 C 1.648873 0.546170 1.779674 0
M  V30 17 N 1.400757 0.144192 3.041254 0
M  V30 18 C 0.064734 0.125110 3.282134 0
M  V30 19 C -0.779641 -0.180481 4.331675 0
M  V30 20 C -2.155023 -0.072031 4.187996 0
M  V30 21 C -2.739862 0.339851 3.009844 0
M  V30 22 Br -4.620461 0.474792 2.848810 0
M  V30 23 C -1.920699 0.657684 1.926652 0
M  V30 24 C -0.567773 0.535006 2.116620 0
M  V30 25 C 0.426419 -1.648601 -0.259362 0
M  V30 26 H -1.091311 -5.505027 1.316090 0
M  V30 27 H 0.493191 -5.609898 0.536640 0
M  V30 28 H 0.312906 -4.989876 2.271279 0
M  V30 29 H 2.249367 -4.372734 0.379988 0
M  V30 30 H 3.998479 -2.920609 -0.671554 0
M  V30 31 H 3.403345 -0.614154 -1.458779 0
M  V30 32 H 1.261412 0.359430 -3.296691 0
M  V30 33 H -0.243523 4.860980 -2.793288 0
M  V30 34 H -1.334926 4.769013 -1.385395 0
M  V30 35 H 2.674991 0.609416 1.444292 0
M  V30 36 H 2.084547 -0.133298 3.795240 0
M  V30 37 H -0.315322 -0.500070 5.245103 0
M  V30 38 H -2.790921 -0.319446 5.029054 0
M  V30 39 H -2.344934 0.982159 0.994238 0
M  V30 40 H -0.612772 -1.303896 -0.130079 0
M  V30 END ATOM
M  V30 BEGIN BOND
M  V30 1 1 1 2
M  V30 2 1 2 3
M  V30 3 2 3 4
M  V30 4 1 4 5
M  V30 5 2 5 6
M  V30 6 1 6 7
M  V30 7 1 7 8
M  V30 8 2 8 9
M  V30 9 1 9 10
M  V30 10 2 10 11
M  V30 11 1 11 12
M  V30 12 1 11 13
M  V30 13 2 13 14
M  V30 14 1 14 15
M  V30 15 2 15 16
M  V30 16 1 16 17
M  V30 17 1 17 18
M  V30 18 2 18 19
M  V30 19 1 19 20
M  V30 20 2 20 21
M  V30 21 1 21 22
M  V30 22 1 21 23
M  V30 23 2 23 24
M  V30 24 2 7 25
M  V30 25 1 25 3
M  V30 26 1 14 8
M  V30 27 1 24 15
M  V30 28 1 24 18
M  V30 29 1 1 26
M  V30 30 1 1 27
M  V30 31 1 1 28
M  V30 32 1 4 29
M  V30 33 1 5 30
M  V30 34 1 6 31
M  V30 35 1 9 32
M  V30 36 1 12 33
M  V30 37 1 12 34
M  V30 38 1 16 35
M  V30 39 1 17 36
M  V30 40 1 19 37
M  V30 41 1 20 38
M  V30 42 1 23 39
M  V30 43 1 25 40
M  V30 END BOND
M  V30 END CTAB
M  END
>  <Dataset>  (134) 
ChEMBL_Kinases

>  <Ligand_Instance>  (134) 
nan

>  <PDB_ID>  (134) 
nan

>  <Standardized_SMILES>  (134) 
COc1cccc(-c2cnc(N)nc2-c2c[nH]c3ccc(Br)cc23)c1

>  <Name>  (134) 
nan

>  <Pocket>  (134) 
nan

>  <ATP_Site>  (134) 
nan

>  <Peripheral>  (134) 
nan

>  <Num_H_Atoms_ProtBoundConf>  (134) 
nan

>  <Num_Resolved_Atoms>  (134) 
nan

>  <Num_Not_Resolved_Atoms>  (134) 
nan

$$$$
CHEMBL5074567
     RDKit          3D

  0  0  0  0  0  0  0  0  0  0999 V3000
M  V30 BEGIN CTAB
M  V30 COUNTS 42 45 0 0 0
M  V30 BEGIN ATOM
M  V30 1 N 2.273382 -3.431730 4.023335 0
M  V30 2 C 2.638245 -4.566534 3.249852 0
M  V30 3 O 3.048844 -5.581410 3.853256 0
M  V30 4 C 2.511428 -4.468555 1.853535 0
M  V30 5 C 2.120553 -3.546136 0.929369 0
M  V30 6 C 2.121920 -3.800421 -0.407332 0
M  V30 7 C 1.762631 -2.998702 -1.460299 0
M  V30 8 C 1.301999 -1.664569 -1.350837 0
M  V30 9 C 0.898337 -0.790774 -2.295398 0
M  V30 10 C 0.489827 0.454308 -1.942147 0
M  V30 11 C 0.513940 0.771215 -0.547863 0
M  V30 12 C 0.117837 2.075066 0.080948 0
M  V30 13 O -0.281962 2.997216 -0.625810 0
M  V30 14 N 0.263570 2.076949 1.485749 0
M  V30 15 C -0.074395 3.254093 2.257223 0
M  V30 16 C -1.554839 3.421544 2.440088 0
M  V30 17 C -2.133932 2.806921 3.557728 0
M  V30 18 C -3.463482 2.833350 3.916267 0
M  V30 19 N -4.266023 3.533324 3.082062 0
M  V30 20 C -3.766605 4.144127 1.994399 0
M  V30 21 Cl -4.806121 5.047584 0.917583 0
M  V30 22 C -2.435596 4.118778 1.634278 0
M  V30 23 S 1.107698 -0.705716 0.146894 0
M  V30 24 C 1.860858 -3.517693 -2.718955 0
M  V30 25 C 2.282610 -4.768876 -3.083761 0
M  V30 26 C 2.653208 -5.606192 -2.053478 0
M  V30 27 C 2.556303 -5.088916 -0.783794 0
M  V30 28 S 2.951465 -5.897241 0.811101 0
M  V30 29 H 1.364858 -2.881766 3.965006 0
M  V30 30 H 1.932290 -2.600337 4.546026 0
M  V30 31 H 1.833715 -2.647873 1.438457 0
M  V30 32 H 0.893116 -1.066053 -3.342454 0
M  V30 33 H 0.146227 1.237698 -2.601207 0
M  V30 34 H 0.620297 1.233111 2.030106 0
M  V30 35 H 0.344809 4.179222 1.802661 0
M  V30 36 H 0.357764 3.186352 3.270465 0
M  V30 37 H -1.470773 2.240110 4.229412 0
M  V30 38 H -3.792701 2.317710 4.807450 0
M  V30 39 H -1.996721 4.589357 0.785100 0
M  V30 40 H 1.586871 -2.922683 -3.609115 0
M  V30 41 H 2.344228 -5.138072 -4.093516 0
M  V30 42 H 3.009212 -6.620328 -2.160672 0
M  V30 END ATOM
M  V30 BEGIN BOND
M  V30 1 1 1 2
M  V30 2 2 2 3
M  V30 3 1 2 4
M  V30 4 2 4 5
M  V30 5 1 5 6
M  V30 6 2 6 7
M  V30 7 1 7 8
M  V30 8 2 8 9
M  V30 9 1 9 10
M  V30 10 2 10 11
M  V30 11 1 11 12
M  V30 12 2 12 13
M  V30 13 1 12 14
M  V30 14 1 14 15
M  V30 15 1 15 16
M  V30 16 2 16 17
M  V30 17 1 17 18
M  V30 18 2 18 19
M  V30 19 1 19 20
M  V30 20 1 20 21
M  V30 21 2 20 22
M  V30 22 1 11 23
M  V30 23 1 7 24
M  V30 24 2 24 25
M  V30 25 1 25 26
M  V30 26 2 26 27
M  V30 27 1 27 28
M  V30 28 1 28 4
M  V30 29 1 27 6
M  V30 30 1 23 8
M  V30 31 1 22 16
M  V30 32 1 1 29
M  V30 33 1 1 30
M  V30 34 1 5 31
M  V30 35 1 9 32
M  V30 36 1 10 33
M  V30 37 1 14 34
M  V30 38 1 15 35
M  V30 39 1 15 36
M  V30 40 1 17 37
M  V30 41 1 18 38
M  V30 42 1 22 39
M  V30 43 1 24 40
M  V30 44 1 25 41
M  V30 45 1 26 42
M  V30 END BOND
M  V30 END CTAB
M  END
>  <Dataset>  (135) 
ChEMBL_Kinases

>  <Ligand_Instance>  (135) 
nan

>  <PDB_ID>  (135) 
nan

>  <Standardized_SMILES>  (135) 
NC(=O)c1cc2c(-c3ccc(C(=O)NCc4ccnc(Cl)c4)s3)cccc2s1

>  <Name>  (135) 
nan

>  <Pocket>  (135) 
nan

>  <ATP_Site>  (135) 
nan

>  <Peripheral>  (135) 
nan

>  <Num_H_Atoms_ProtBoundConf>  (135) 
nan

>  <Num_Resolved_Atoms>  (135) 
nan

>  <Num_Not_Resolved_Atoms>  (135) 
nan

$$$$
CHEMBL4777781
     RDKit          3D

  0  0  0  0  0  0  0  0  0  0999 V3000
M  V30 BEGIN CTAB
M  V30 COUNTS 41 44 0 0 0
M  V30 BEGIN ATOM
M  V30 1 C 0.446580 -4.550622 0.420031 0
M  V30 2 C 1.705944 -4.039089 1.018142 0
M  V30 3 C 1.418290 -3.281081 2.298237 0
M  V30 4 N 2.524917 -3.256598 0.125138 0
M  V30 5 C 1.672125 -2.214879 -0.317516 0
M  V30 6 N 1.353760 -2.242438 -1.640919 0
M  V30 7 C 0.536749 -1.314970 -2.202824 0
M  V30 8 C -0.009099 -0.295348 -1.438633 0
M  V30 9 C 0.328444 -0.291351 -0.104609 0
M  V30 10 C -0.236013 0.780198 0.700453 0
M  V30 11 C 0.300391 2.049943 0.727147 0
M  V30 12 C 1.436997 2.735866 0.065244 0
M  V30 13 C 2.761599 2.883848 0.687933 0
M  V30 14 C 2.565742 1.991968 -0.487061 0
M  V30 15 N -0.515666 2.701769 1.590923 0
M  V30 16 N -1.462932 1.899329 2.047571 0
M  V30 17 C -2.453552 2.198679 2.923757 0
M  V30 18 C -3.363933 1.214268 3.288401 0
M  V30 19 C -3.203278 -0.038158 2.724397 0
M  V30 20 C -2.211928 -0.338776 1.846472 0
M  V30 21 C -1.336829 0.681101 1.522471 0
M  V30 22 N 1.150380 -1.226997 0.445058 0
M  V30 23 H 0.388552 -4.464030 -0.684082 0
M  V30 24 H -0.403936 -4.023371 0.916797 0
M  V30 25 H 0.331287 -5.622464 0.677156 0
M  V30 26 H 2.350052 -4.904432 1.331011 0
M  V30 27 H 1.211110 -3.996201 3.142275 0
M  V30 28 H 2.299638 -2.641139 2.508948 0
M  V30 29 H 0.499328 -2.696792 2.162072 0
M  V30 30 H 3.511443 -3.428667 -0.122897 0
M  V30 31 H 0.304555 -1.360566 -3.253255 0
M  V30 32 H -0.659514 0.458218 -1.847368 0
M  V30 33 H 1.098209 3.658504 -0.519819 0
M  V30 34 H 3.056502 2.393718 1.621478 0
M  V30 35 H 3.356784 3.820642 0.478950 0
M  V30 36 H 2.917162 2.307420 -1.511967 0
M  V30 37 H 2.640774 0.914805 -0.344288 0
M  V30 38 H -2.600040 3.165627 3.376763 0
M  V30 39 H -4.185012 1.395407 3.989710 0
M  V30 40 H -3.916816 -0.818019 3.006966 0
M  V30 41 H -2.055931 -1.301373 1.386821 0
M  V30 END ATOM
M  V30 BEGIN BOND
M  V30 1 1 1 2
M  V30 2 1 2 3
M  V30 3 1 2 4
M  V30 4 1 4 5
M  V30 5 2 5 6
M  V30 6 1 6 7
M  V30 7 2 7 8
M  V30 8 1 8 9
M  V30 9 1 9 10
M  V30 10 1 10 11
M  V30 11 1 11 12
M  V30 12 1 12 13
M  V30 13 1 13 14
M  V30 14 2 11 15
M  V30 15 1 15 16
M  V30 16 1 16 17
M  V30 17 2 17 18
M  V30 18 1 18 19
M  V30 19 2 19 20
M  V30 20 1 20 21
M  V30 21 2 9 22
M  V30 22 1 22 5
M  V30 23 2 21 10
M  V30 24 1 14 12
M  V30 25 1 21 16
M  V30 26 1 1 23
M  V30 27 1 1 24
M  V30 28 1 1 25
M  V30 29 1 2 26
M  V30 30 1 3 27
M  V30 31 1 3 28
M  V30 32 1 3 29
M  V30 33 1 4 30
M  V30 34 1 7 31
M  V30 35 1 8 32
M  V30 36 1 12 33
M  V30 37 1 13 34
M  V30 38 1 13 35
M  V30 39 1 14 36
M  V30 40 1 14 37
M  V30 41 1 17 38
M  V30 42 1 18 39
M  V30 43 1 19 40
M  V30 44 1 20 41
M  V30 END BOND
M  V30 END CTAB
M  END
>  <Dataset>  (136) 
ChEMBL_Kinases

>  <Ligand_Instance>  (136) 
nan

>  <PDB_ID>  (136) 
nan

>  <Standardized_SMILES>  (136) 
CC(C)Nc1nccc(-c2c(C3CC3)nn3ccccc23)n1

>  <Name>  (136) 
nan

>  <Pocket>  (136) 
nan

>  <ATP_Site>  (136) 
nan

>  <Peripheral>  (136) 
nan

>  <Num_H_Atoms_ProtBoundConf>  (136) 
nan

>  <Num_Resolved_Atoms>  (136) 
nan

>  <Num_Not_Resolved_Atoms>  (136) 
nan

$$$$
CHEMBL1401859
     RDKit          3D

  0  0  0  0  0  0  0  0  0  0999 V3000
M  V30 BEGIN CTAB
M  V30 COUNTS 38 40 0 0 0
M  V30 BEGIN ATOM
M  V30 1 C -0.915455 -4.169179 4.724009 0
M  V30 2 O -0.844111 -3.025673 3.898006 0
M  V30 3 C 0.318116 -2.875704 3.153844 0
M  V30 4 C 1.380416 -3.758893 3.175608 0
M  V30 5 C 2.492403 -3.520119 2.398025 0
M  V30 6 C 2.536936 -2.387357 1.594037 0
M  V30 7 C 1.469464 -1.481916 1.559681 0
M  V30 8 C 1.597082 -0.314702 0.685322 0
M  V30 9 C 2.835614 0.246609 0.454269 0
M  V30 10 C 2.925486 1.360991 -0.385925 0
M  V30 11 C 1.801540 1.909592 -0.987545 0
M  V30 12 N 1.846453 2.976779 -1.798912 0
M  V30 13 C 0.701843 3.456739 -2.351395 0
M  V30 14 N -0.473937 2.845372 -2.071795 0
M  V30 15 C -0.544162 1.791880 -1.274923 0
M  V30 16 N -1.871446 1.309104 -1.117420 0
M  V30 17 C -2.705503 1.167552 0.083951 0
M  V30 18 C -2.517647 0.882144 -2.354342 0
M  V30 19 C 0.604457 1.285870 -0.701841 0
M  V30 20 C 0.436099 0.190767 0.110810 0
M  V30 21 C 0.365216 -1.740291 2.346577 0
M  V30 22 H -0.876854 -5.073492 4.052679 0
M  V30 23 H -0.007394 -4.134206 5.383882 0
M  V30 24 H -1.798021 -4.208914 5.376276 0
M  V30 25 H 1.302968 -4.617608 3.809574 0
M  V30 26 H 3.326569 -4.210540 2.413239 0
M  V30 27 H 3.413124 -2.177678 0.966536 0
M  V30 28 H 3.746660 -0.163790 0.915501 0
M  V30 29 H 3.903083 1.821754 -0.581779 0
M  V30 30 H 0.812141 4.330976 -3.004624 0
M  V30 31 H -2.140438 1.373052 1.012833 0
M  V30 32 H -3.110424 0.134888 0.139107 0
M  V30 33 H -3.573195 1.860624 0.035223 0
M  V30 34 H -3.376338 0.196410 -2.176310 0
M  V30 35 H -2.907531 1.752439 -2.939196 0
M  V30 36 H -1.748994 0.377699 -2.998693 0
M  V30 37 H -0.532710 -0.252186 0.293979 0
M  V30 38 H -0.396791 -0.980127 2.243912 0
M  V30 END ATOM
M  V30 BEGIN BOND
M  V30 1 1 1 2
M  V30 2 1 2 3
M  V30 3 2 3 4
M  V30 4 1 4 5
M  V30 5 2 5 6
M  V30 6 1 6 7
M  V30 7 1 7 8
M  V30 8 2 8 9
M  V30 9 1 9 10
M  V30 10 2 10 11
M  V30 11 1 11 12
M  V30 12 2 12 13
M  V30 13 1 13 14
M  V30 14 2 14 15
M  V30 15 1 15 16
M  V30 16 1 16 17
M  V30 17 1 16 18
M  V30 18 1 15 19
M  V30 19 2 19 20
M  V30 20 2 7 21
M  V30 21 1 21 3
M  V30 22 1 20 8
M  V30 23 1 19 11
M  V30 24 1 1 22
M  V30 25 1 1 23
M  V30 26 1 1 24
M  V30 27 1 4 25
M  V30 28 1 5 26
M  V30 29 1 6 27
M  V30 30 1 9 28
M  V30 31 1 10 29
M  V30 32 1 13 30
M  V30 33 1 17 31
M  V30 34 1 17 32
M  V30 35 1 17 33
M  V30 36 1 18 34
M  V30 37 1 18 35
M  V30 38 1 18 36
M  V30 39 1 20 37
M  V30 40 1 21 38
M  V30 END BOND
M  V30 END CTAB
M  END
>  <Dataset>  (137) 
ChEMBL_Kinases

>  <Ligand_Instance>  (137) 
nan

>  <PDB_ID>  (137) 
nan

>  <Standardized_SMILES>  (137) 
COc1cccc(-c2ccc3ncnc(N(C)C)c3c2)c1

>  <Name>  (137) 
nan

>  <Pocket>  (137) 
nan

>  <ATP_Site>  (137) 
nan

>  <Peripheral>  (137) 
nan

>  <Num_H_Atoms_ProtBoundConf>  (137) 
nan

>  <Num_Resolved_Atoms>  (137) 
nan

>  <Num_Not_Resolved_Atoms>  (137) 
nan

$$$$
CHEMBL1802971
     RDKit          3D

  0  0  0  0  0  0  0  0  0  0999 V3000
M  V30 BEGIN CTAB
M  V30 COUNTS 41 44 0 0 0
M  V30 BEGIN ATOM
M  V30 1 C 2.884168 -5.520724 1.301846 0
M  V30 2 C 1.664917 -5.046474 0.602489 0
M  V30 3 O 0.791426 -5.922594 0.360555 0
M  V30 4 C 1.476527 -3.668708 0.216876 0
M  V30 5 C 2.440987 -2.722399 0.487380 0
M  V30 6 C 2.287522 -1.400479 0.131161 0
M  V30 7 C 1.135532 -1.009011 -0.515513 0
M  V30 8 C 0.706730 0.298150 -0.994879 0
M  V30 9 C 0.646523 0.419253 -2.365486 0
M  V30 10 N 0.247885 1.637354 -2.815253 0
M  V30 11 C -0.049162 2.604013 -1.927246 0
M  V30 12 N -0.459966 3.870348 -2.393897 0
M  V30 13 N 0.023551 2.442843 -0.576359 0
M  V30 14 C 0.414009 1.254019 -0.049421 0
M  V30 15 C 0.488836 1.097674 1.393383 0
M  V30 16 C 1.449147 0.945986 2.363711 0
M  V30 17 N 0.893626 0.836380 3.582683 0
M  V30 18 C -0.439705 0.916083 3.416630 0
M  V30 19 C -1.378608 0.846777 4.425468 0
M  V30 20 Br -0.908600 0.622450 6.256923 0
M  V30 21 C -2.729814 0.945884 4.083722 0
M  V30 22 C -3.052635 1.108457 2.749940 0
M  V30 23 C -2.084773 1.172056 1.782365 0
M  V30 24 C -0.741436 1.079921 2.063900 0
M  V30 25 C 0.152477 -1.963982 -0.793701 0
M  V30 26 C 0.312084 -3.303495 -0.430705 0
M  V30 27 H 3.792027 -4.971983 1.015563 0
M  V30 28 H 3.042859 -6.608637 1.174813 0
M  V30 29 H 2.719069 -5.344284 2.399384 0
M  V30 30 H 3.364722 -2.948495 0.986527 0
M  V30 31 H 2.964118 -0.573940 0.282453 0
M  V30 32 H 0.898199 -0.394242 -3.028614 0
M  V30 33 H -0.680688 4.785602 -2.741771 0
M  V30 34 H -1.458217 4.232338 -2.407032 0
M  V30 35 H 2.481989 0.936138 2.050309 0
M  V30 36 H 1.449517 0.713621 4.461620 0
M  V30 37 H -3.534358 0.903727 4.792251 0
M  V30 38 H -4.074520 1.193050 2.403188 0
M  V30 39 H -2.344076 1.298992 0.742065 0
M  V30 40 H -0.810135 -1.792889 -1.300931 0
M  V30 41 H -0.428919 -4.064831 -0.631316 0
M  V30 END ATOM
M  V30 BEGIN BOND
M  V30 1 1 1 2
M  V30 2 2 2 3
M  V30 3 1 2 4
M  V30 4 2 4 5
M  V30 5 1 5 6
M  V30 6 2 6 7
M  V30 7 1 7 8
M  V30 8 2 8 9
M  V30 9 1 9 10
M  V30 10 2 10 11
M  V30 11 1 11 12
M  V30 12 1 11 13
M  V30 13 2 13 14
M  V30 14 1 14 15
M  V30 15 2 15 16
M  V30 16 1 16 17
M  V30 17 1 17 18
M  V30 18 2 18 19
M  V30 19 1 19 20
M  V30 20 1 19 21
M  V30 21 2 21 22
M  V30 22 1 22 23
M  V30 23 2 23 24
M  V30 24 1 7 25
M  V30 25 2 25 26
M  V30 26 1 26 4
M  V30 27 1 14 8
M  V30 28 1 24 15
M  V30 29 1 24 18
M  V30 30 1 1 27
M  V30 31 1 1 28
M  V30 32 1 1 29
M  V30 33 1 5 30
M  V30 34 1 6 31
M  V30 35 1 9 32
M  V30 36 1 12 33
M  V30 37 1 12 34
M  V30 38 1 16 35
M  V30 39 1 17 36
M  V30 40 1 21 37
M  V30 41 1 22 38
M  V30 42 1 23 39
M  V30 43 1 25 40
M  V30 44 1 26 41
M  V30 END BOND
M  V30 END CTAB
M  END
>  <Dataset>  (138) 
ChEMBL_Kinases

>  <Ligand_Instance>  (138) 
nan

>  <PDB_ID>  (138) 
nan

>  <Standardized_SMILES>  (138) 
CC(=O)c1ccc(-c2cnc(N)nc2-c2c[nH]c3c(Br)cccc23)cc1

>  <Name>  (138) 
nan

>  <Pocket>  (138) 
nan

>  <ATP_Site>  (138) 
nan

>  <Peripheral>  (138) 
nan

>  <Num_H_Atoms_ProtBoundConf>  (138) 
nan

>  <Num_Resolved_Atoms>  (138) 
nan

>  <Num_Not_Resolved_Atoms>  (138) 
nan

$$$$
CHEMBL5074489
     RDKit          3D

  0  0  0  0  0  0  0  0  0  0999 V3000
M  V30 BEGIN CTAB
M  V30 COUNTS 38 40 0 0 0
M  V30 BEGIN ATOM
M  V30 1 C -0.533447 -4.376402 1.381354 0
M  V30 2 C 0.748044 -3.795769 0.869220 0
M  V30 3 C 0.766556 -2.300723 0.985252 0
M  V30 4 N -0.245015 -1.602051 0.263959 0
M  V30 5 C -1.642789 -1.615829 0.582860 0
M  V30 6 C 0.085202 -0.818522 -0.874514 0
M  V30 7 N -0.120535 -1.570744 -1.998954 0
M  V30 8 C 0.151556 -1.065013 -3.225341 0
M  V30 9 N 0.631501 0.194040 -3.361121 0
M  V30 10 C 0.844145 0.962876 -2.259942 0
M  V30 11 N 1.266833 2.212739 -2.006431 0
M  V30 12 C 1.247902 2.451459 -0.660431 0
M  V30 13 C 0.790543 1.299291 -0.002046 0
M  V30 14 C 0.723509 1.322060 1.435115 0
M  V30 15 C 1.343051 0.655159 2.464695 0
M  V30 16 C 1.054158 0.862051 3.790880 0
M  V30 17 C 0.100070 1.776874 4.172925 0
M  V30 18 C -0.560177 2.482021 3.188964 0
M  V30 19 Cl -1.759545 3.630114 3.737101 0
M  V30 20 C -0.244547 2.248087 1.866563 0
M  V30 21 C 0.567204 0.441208 -1.038417 0
M  V30 22 H -1.048247 -3.697428 2.087803 0
M  V30 23 H -1.243558 -4.686035 0.588283 0
M  V30 24 H -0.342067 -5.305295 2.006025 0
M  V30 25 H 1.572341 -4.191889 1.514198 0
M  V30 26 H 1.000974 -4.149552 -0.156736 0
M  V30 27 H 1.796297 -1.980279 0.727188 0
M  V30 28 H 0.665452 -2.093970 2.096454 0
M  V30 29 H -1.709309 -1.451632 1.692237 0
M  V30 30 H -2.218531 -0.783173 0.075034 0
M  V30 31 H -2.190004 -2.520120 0.342147 0
M  V30 32 H 0.019900 -1.586902 -4.150840 0
M  V30 33 H 1.562428 2.885141 -2.764205 0
M  V30 34 H 1.553855 3.403797 -0.273088 0
M  V30 35 H 2.081718 -0.026558 2.064735 0
M  V30 36 H 1.641174 0.247291 4.462223 0
M  V30 37 H -0.022599 1.834403 5.246304 0
M  V30 38 H -0.859325 2.888142 1.212726 0
M  V30 END ATOM
M  V30 BEGIN BOND
M  V30 1 1 1 2
M  V30 2 1 2 3
M  V30 3 1 3 4
M  V30 4 1 4 5
M  V30 5 1 4 6
M  V30 6 2 6 7
M  V30 7 1 7 8
M  V30 8 2 8 9
M  V30 9 1 9 10
M  V30 10 1 10 11
M  V30 11 1 11 12
M  V30 12 2 12 13
M  V30 13 1 13 14
M  V30 14 2 14 15
M  V30 15 1 15 16
M  V30 16 2 16 17
M  V30 17 1 17 18
M  V30 18 1 18 19
M  V30 19 2 18 20
M  V30 20 1 13 21
M  V30 21 1 21 6
M  V30 22 2 21 10
M  V30 23 1 20 14
M  V30 24 1 1 22
M  V30 25 1 1 23
M  V30 26 1 1 24
M  V30 27 1 2 25
M  V30 28 1 2 26
M  V30 29 1 3 27
M  V30 30 1 3 28
M  V30 31 1 5 29
M  V30 32 1 5 30
M  V30 33 1 5 31
M  V30 34 1 8 32
M  V30 35 1 11 33
M  V30 36 1 12 34
M  V30 37 1 15 35
M  V30 38 1 16 36
M  V30 39 1 17 37
M  V30 40 1 20 38
M  V30 END BOND
M  V30 END CTAB
M  END
>  <Dataset>  (139) 
ChEMBL_Kinases

>  <Ligand_Instance>  (139) 
nan

>  <PDB_ID>  (139) 
nan

>  <Standardized_SMILES>  (139) 
CCCN(C)c1ncnc2[nH]cc(-c3cccc(Cl)c3)c12

>  <Name>  (139) 
nan

>  <Pocket>  (139) 
nan

>  <ATP_Site>  (139) 
nan

>  <Peripheral>  (139) 
nan

>  <Num_H_Atoms_ProtBoundConf>  (139) 
nan

>  <Num_Resolved_Atoms>  (139) 
nan

>  <Num_Not_Resolved_Atoms>  (139) 
nan

$$$$
CHEMBL1802969
     RDKit          3D

  0  0  0  0  0  0  0  0  0  0999 V3000
M  V30 BEGIN CTAB
M  V30 COUNTS 41 44 0 0 0
M  V30 BEGIN ATOM
M  V30 1 C 2.440679 -5.469049 1.821379 0
M  V30 2 C 1.242196 -4.908123 1.153452 0
M  V30 3 O 0.303218 -5.771495 1.133201 0
M  V30 4 C 1.124716 -3.568577 0.592250 0
M  V30 5 C 2.111541 -2.617647 0.600091 0
M  V30 6 C 1.946886 -1.364549 0.053780 0
M  V30 7 C 0.719801 -1.097300 -0.515221 0
M  V30 8 C 0.494559 0.219752 -1.104030 0
M  V30 9 C 0.283982 0.371366 -2.457985 0
M  V30 10 N 0.078321 1.589197 -2.989204 0
M  V30 11 C 0.076210 2.689811 -2.189956 0
M  V30 12 N -0.144958 3.959557 -2.798341 0
M  V30 13 N 0.281381 2.516666 -0.888532 0
M  V30 14 C 0.495117 1.343278 -0.267773 0
M  V30 15 C 0.712513 1.222512 1.173455 0
M  V30 16 C 1.789349 1.236148 2.033187 0
M  V30 17 N 1.365357 1.068197 3.300060 0
M  V30 18 C 0.016767 0.945414 3.262339 0
M  V30 19 C -0.810558 0.753942 4.373816 0
M  V30 20 C -2.170006 0.651764 4.119003 0
M  V30 21 C -2.654759 0.737094 2.832111 0
M  V30 22 Br -4.532278 0.588509 2.545783 0
M  V30 23 C -1.789561 0.925666 1.780344 0
M  V30 24 C -0.431626 1.035270 1.963191 0
M  V30 25 C -0.302398 -2.023486 -0.546154 0
M  V30 26 C -0.091701 -3.263370 0.012262 0
M  V30 27 H 2.661984 -6.481750 1.427745 0
M  V30 28 H 3.305933 -4.780647 1.708458 0
M  V30 29 H 2.188570 -5.506299 2.916537 0
M  V30 30 H 3.052946 -2.867357 1.051801 0
M  V30 31 H 2.776594 -0.674186 0.100660 0
M  V30 32 H 0.284775 -0.513345 -3.108121 0
M  V30 33 H 0.333846 4.382165 -3.624905 0
M  V30 34 H -0.856383 4.681424 -2.482388 0
M  V30 35 H 2.738423 1.377859 1.496291 0
M  V30 36 H 2.098620 1.065804 4.019350 0
M  V30 37 H -0.412408 0.686840 5.377105 0
M  V30 38 H -2.858005 0.503838 4.943510 0
M  V30 39 H -2.160620 0.994201 0.765883 0
M  V30 40 H -1.243790 -1.757510 -1.005842 0
M  V30 41 H -0.912399 -3.977635 -0.023511 0
M  V30 END ATOM
M  V30 BEGIN BOND
M  V30 1 1 1 2
M  V30 2 2 2 3
M  V30 3 1 2 4
M  V30 4 2 4 5
M  V30 5 1 5 6
M  V30 6 2 6 7
M  V30 7 1 7 8
M  V30 8 2 8 9
M  V30 9 1 9 10
M  V30 10 2 10 11
M  V30 11 1 11 12
M  V30 12 1 11 13
M  V30 13 2 13 14
M  V30 14 1 14 15
M  V30 15 2 15 16
M  V30 16 1 16 17
M  V30 17 1 17 18
M  V30 18 2 18 19
M  V30 19 1 19 20
M  V30 20 2 20 21
M  V30 21 1 21 22
M  V30 22 1 21 23
M  V30 23 2 23 24
M  V30 24 1 7 25
M  V30 25 2 25 26
M  V30 26 1 26 4
M  V30 27 1 14 8
M  V30 28 1 24 15
M  V30 29 1 24 18
M  V30 30 1 1 27
M  V30 31 1 1 28
M  V30 32 1 1 29
M  V30 33 1 5 30
M  V30 34 1 6 31
M  V30 35 1 9 32
M  V30 36 1 12 33
M  V30 37 1 12 34
M  V30 38 1 16 35
M  V30 39 1 17 36
M  V30 40 1 19 37
M  V30 41 1 20 38
M  V30 42 1 23 39
M  V30 43 1 25 40
M  V30 44 1 26 41
M  V30 END BOND
M  V30 END CTAB
M  END
>  <Dataset>  (140) 
ChEMBL_Kinases

>  <Ligand_Instance>  (140) 
nan

>  <PDB_ID>  (140) 
nan

>  <Standardized_SMILES>  (140) 
CC(=O)c1ccc(-c2cnc(N)nc2-c2c[nH]c3ccc(Br)cc23)cc1

>  <Name>  (140) 
nan

>  <Pocket>  (140) 
nan

>  <ATP_Site>  (140) 
nan

>  <Peripheral>  (140) 
nan

>  <Num_H_Atoms_ProtBoundConf>  (140) 
nan

>  <Num_Resolved_Atoms>  (140) 
nan

>  <Num_Not_Resolved_Atoms>  (140) 
nan

$$$$
CHEMBL1802968
     RDKit          3D

  0  0  0  0  0  0  0  0  0  0999 V3000
M  V30 BEGIN CTAB
M  V30 COUNTS 41 44 0 0 0
M  V30 BEGIN ATOM
M  V30 1 C 1.172865 -5.689167 3.107007 0
M  V30 2 C 0.468353 -4.392138 3.306572 0
M  V30 3 O 0.065972 -4.138572 4.493567 0
M  V30 4 C 0.286957 -3.508620 2.148697 0
M  V30 5 C 0.751059 -3.857387 0.897326 0
M  V30 6 C 0.520871 -2.944686 -0.109842 0
M  V30 7 C -0.125728 -1.743305 0.058337 0
M  V30 8 C -0.374156 -0.773346 -0.998787 0
M  V30 9 C -1.164274 -1.228523 -2.058373 0
M  V30 10 N -1.408614 -0.343821 -3.049254 0
M  V30 11 C -0.894630 0.918806 -2.985297 0
M  V30 12 N -1.239181 1.726242 -4.099308 0
M  V30 13 N -0.125588 1.346374 -1.944037 0
M  V30 14 C 0.146686 0.501161 -0.930875 0
M  V30 15 C 0.962853 0.896360 0.209451 0
M  V30 16 C 2.171210 0.378980 0.595736 0
M  V30 17 N 2.599796 1.000269 1.684292 0
M  V30 18 C 1.717372 1.960420 2.090785 0
M  V30 19 C 1.679373 2.865127 3.129606 0
M  V30 20 C 0.615216 3.736619 3.281614 0
M  V30 21 C -0.399546 3.664104 2.358035 0
M  V30 22 C -0.341422 2.752913 1.327980 0
M  V30 23 Br -1.785592 2.728490 0.107265 0
M  V30 24 C 0.692774 1.873963 1.142215 0
M  V30 25 C -0.545746 -1.491404 1.331420 0
M  V30 26 C -0.385573 -2.314739 2.446711 0
M  V30 27 H 2.258888 -5.594863 2.994195 0
M  V30 28 H 0.802302 -6.194924 2.184632 0
M  V30 29 H 1.003348 -6.378213 3.963343 0
M  V30 30 H 1.257316 -4.787054 0.740493 0
M  V30 31 H 0.878722 -3.198799 -1.108997 0
M  V30 32 H -1.570685 -2.230289 -2.108573 0
M  V30 33 H -1.975058 2.410870 -4.422854 0
M  V30 34 H -0.500561 1.579978 -4.844250 0
M  V30 35 H 2.680900 -0.425564 0.066069 0
M  V30 36 H 3.491799 0.798543 2.182317 0
M  V30 37 H 2.535808 2.811550 3.773348 0
M  V30 38 H 0.637423 4.424889 4.113772 0
M  V30 39 H -1.203254 4.373410 2.532823 0
M  V30 40 H -1.069807 -0.544223 1.526768 0
M  V30 41 H -0.735615 -2.065482 3.421150 0
M  V30 END ATOM
M  V30 BEGIN BOND
M  V30 1 1 1 2
M  V30 2 2 2 3
M  V30 3 1 2 4
M  V30 4 2 4 5
M  V30 5 1 5 6
M  V30 6 2 6 7
M  V30 7 1 7 8
M  V30 8 2 8 9
M  V30 9 1 9 10
M  V30 10 2 10 11
M  V30 11 1 11 12
M  V30 12 1 11 13
M  V30 13 2 13 14
M  V30 14 1 14 15
M  V30 15 2 15 16
M  V30 16 1 16 17
M  V30 17 1 17 18
M  V30 18 2 18 19
M  V30 19 1 19 20
M  V30 20 2 20 21
M  V30 21 1 21 22
M  V30 22 1 22 23
M  V30 23 2 22 24
M  V30 24 1 7 25
M  V30 25 2 25 26
M  V30 26 1 26 4
M  V30 27 1 14 8
M  V30 28 1 24 15
M  V30 29 1 24 18
M  V30 30 1 1 27
M  V30 31 1 1 28
M  V30 32 1 1 29
M  V30 33 1 5 30
M  V30 34 1 6 31
M  V30 35 1 9 32
M  V30 36 1 12 33
M  V30 37 1 12 34
M  V30 38 1 16 35
M  V30 39 1 17 36
M  V30 40 1 19 37
M  V30 41 1 20 38
M  V30 42 1 21 39
M  V30 43 1 25 40
M  V30 44 1 26 41
M  V30 END BOND
M  V30 END CTAB
M  END
>  <Dataset>  (141) 
ChEMBL_Kinases

>  <Ligand_Instance>  (141) 
nan

>  <PDB_ID>  (141) 
nan

>  <Standardized_SMILES>  (141) 
CC(=O)c1ccc(-c2cnc(N)nc2-c2c[nH]c3cccc(Br)c23)cc1

>  <Name>  (141) 
nan

>  <Pocket>  (141) 
nan

>  <ATP_Site>  (141) 
nan

>  <Peripheral>  (141) 
nan

>  <Num_H_Atoms_ProtBoundConf>  (141) 
nan

>  <Num_Resolved_Atoms>  (141) 
nan

>  <Num_Not_Resolved_Atoms>  (141) 
nan

$$$$
CHEMBL1802967
     RDKit          3D

  0  0  0  0  0  0  0  0  0  0999 V3000
M  V30 BEGIN CTAB
M  V30 COUNTS 26 28 0 0 0
M  V30 BEGIN ATOM
M  V30 1 N -1.438655 -4.396447 1.518551 0
M  V30 2 C -0.262141 -3.607006 1.454860 0
M  V30 3 N 0.915664 -3.915190 2.014795 0
M  V30 4 C 2.032222 -3.192111 1.953651 0
M  V30 5 C 2.002702 -2.006299 1.251995 0
M  V30 6 I 3.753067 -0.830616 1.136466 0
M  V30 7 C 0.792806 -1.644914 0.649764 0
M  V30 8 C 0.816006 -0.354483 -0.069462 0
M  V30 9 C 1.479138 0.123556 -1.176915 0
M  V30 10 N 1.046483 1.407275 -1.369674 0
M  V30 11 C 0.153642 1.718449 -0.423557 0
M  V30 12 C -0.496040 2.911276 -0.283717 0
M  V30 13 Br -0.287576 4.406884 -1.427355 0
M  V30 14 C -1.397921 3.058086 0.783611 0
M  V30 15 C -1.615664 2.011827 1.664990 0
M  V30 16 C -0.920016 0.846567 1.443532 0
M  V30 17 C -0.012644 0.635601 0.407595 0
M  V30 18 N -0.288310 -2.433709 0.761975 0
M  V30 19 H -1.882175 -4.918258 0.709350 0
M  V30 20 H -1.862689 -4.415585 2.501507 0
M  V30 21 H 2.932707 -3.580091 2.465680 0
M  V30 22 H 2.194224 -0.531965 -1.691311 0
M  V30 23 H 1.457758 1.932105 -2.193240 0
M  V30 24 H -1.973254 3.952880 1.000042 0
M  V30 25 H -2.299147 2.071240 2.513381 0
M  V30 26 H -1.064228 0.013998 2.121633 0
M  V30 END ATOM
M  V30 BEGIN BOND
M  V30 1 1 1 2
M  V30 2 2 2 3
M  V30 3 1 3 4
M  V30 4 2 4 5
M  V30 5 1 5 6
M  V30 6 1 5 7
M  V30 7 1 7 8
M  V30 8 2 8 9
M  V30 9 1 9 10
M  V30 10 1 10 11
M  V30 11 2 11 12
M  V30 12 1 12 13
M  V30 13 1 12 14
M  V30 14 2 14 15
M  V30 15 1 15 16
M  V30 16 2 16 17
M  V30 17 2 7 18
M  V30 18 1 18 2
M  V30 19 1 17 8
M  V30 20 1 17 11
M  V30 21 1 1 19
M  V30 22 1 1 20
M  V30 23 1 4 21
M  V30 24 1 9 22
M  V30 25 1 10 23
M  V30 26 1 14 24
M  V30 27 1 15 25
M  V30 28 1 16 26
M  V30 END BOND
M  V30 END CTAB
M  END
>  <Dataset>  (142) 
ChEMBL_Kinases

>  <Ligand_Instance>  (142) 
nan

>  <PDB_ID>  (142) 
nan

>  <Standardized_SMILES>  (142) 
Nc1ncc(I)c(-c2c[nH]c3c(Br)cccc23)n1

>  <Name>  (142) 
nan

>  <Pocket>  (142) 
nan

>  <ATP_Site>  (142) 
nan

>  <Peripheral>  (142) 
nan

>  <Num_H_Atoms_ProtBoundConf>  (142) 
nan

>  <Num_Resolved_Atoms>  (142) 
nan

>  <Num_Not_Resolved_Atoms>  (142) 
nan

$$$$
CHEMBL1802966
     RDKit          3D

  0  0  0  0  0  0  0  0  0  0999 V3000
M  V30 BEGIN CTAB
M  V30 COUNTS 26 28 0 0 0
M  V30 BEGIN ATOM
M  V30 1 N -2.097965 -3.975825 1.762994 0
M  V30 2 C -0.777179 -3.444510 1.747215 0
M  V30 3 N 0.303755 -3.847732 2.388086 0
M  V30 4 C 1.531200 -3.344221 2.358059 0
M  V30 5 C 1.670237 -2.233404 1.526211 0
M  V30 6 I 3.594621 -1.371113 1.411839 0
M  V30 7 C 0.569020 -1.736734 0.806742 0
M  V30 8 C 0.808421 -0.560134 -0.018334 0
M  V30 9 C 1.567299 -0.351387 -1.131309 0
M  V30 10 N 1.431190 0.929647 -1.554977 0
M  V30 11 C 0.577062 1.526694 -0.697407 0
M  V30 12 C 0.139317 2.855803 -0.708805 0
M  V30 13 C -0.723487 3.262101 0.288970 0
M  V30 14 Br -1.455469 5.026169 0.469697 0
M  V30 15 C -1.159605 2.399633 1.287033 0
M  V30 16 C -0.719546 1.097370 1.280731 0
M  V30 17 C 0.154329 0.642239 0.287046 0
M  V30 18 N -0.631729 -2.357761 0.935915 0
M  V30 19 H -2.559826 -4.234009 0.829098 0
M  V30 20 H -2.428242 -4.034618 2.780302 0
M  V30 21 H 2.319788 -3.795957 2.953872 0
M  V30 22 H 2.178525 -1.135079 -1.599800 0
M  V30 23 H 1.917694 1.350031 -2.403033 0
M  V30 24 H 0.398136 3.606926 -1.426078 0
M  V30 25 H -1.822980 2.620491 2.110136 0
M  V30 26 H -1.008612 0.368451 2.033940 0
M  V30 END ATOM
M  V30 BEGIN BOND
M  V30 1 1 1 2
M  V30 2 2 2 3
M  V30 3 1 3 4
M  V30 4 2 4 5
M  V30 5 1 5 6
M  V30 6 1 5 7
M  V30 7 1 7 8
M  V30 8 2 8 9
M  V30 9 1 9 10
M  V30 10 1 10 11
M  V30 11 2 11 12
M  V30 12 1 12 13
M  V30 13 1 13 14
M  V30 14 2 13 15
M  V30 15 1 15 16
M  V30 16 2 16 17
M  V30 17 2 7 18
M  V30 18 1 18 2
M  V30 19 1 17 8
M  V30 20 1 17 11
M  V30 21 1 1 19
M  V30 22 1 1 20
M  V30 23 1 4 21
M  V30 24 1 9 22
M  V30 25 1 10 23
M  V30 26 1 12 24
M  V30 27 1 15 25
M  V30 28 1 16 26
M  V30 END BOND
M  V30 END CTAB
M  END
>  <Dataset>  (143) 
ChEMBL_Kinases

>  <Ligand_Instance>  (143) 
nan

>  <PDB_ID>  (143) 
nan

>  <Standardized_SMILES>  (143) 
Nc1ncc(I)c(-c2c[nH]c3cc(Br)ccc23)n1

>  <Name>  (143) 
nan

>  <Pocket>  (143) 
nan

>  <ATP_Site>  (143) 
nan

>  <Peripheral>  (143) 
nan

>  <Num_H_Atoms_ProtBoundConf>  (143) 
nan

>  <Num_Resolved_Atoms>  (143) 
nan

>  <Num_Not_Resolved_Atoms>  (143) 
nan

$$$$
CHEMBL1802408
     RDKit          3D

  0  0  0  0  0  0  0  0  0  0999 V3000
M  V30 BEGIN CTAB
M  V30 COUNTS 28 30 0 0 0
M  V30 BEGIN ATOM
M  V30 1 N -2.550206 -2.615470 2.274820 0
M  V30 2 C -1.196891 -2.193728 2.376722 0
M  V30 3 C -0.512280 -2.651643 3.481664 0
M  V30 4 C 0.803365 -2.280605 3.641869 0
M  V30 5 C 1.380804 -1.465325 2.688343 0
M  V30 6 N 2.645252 -1.012002 2.690544 0
M  V30 7 C 2.744629 -0.268767 1.580302 0
M  V30 8 C 1.601200 -0.202918 0.831685 0
M  V30 9 C 1.168106 0.420759 -0.391471 0
M  V30 10 N -0.080396 0.251766 -0.830971 0
M  V30 11 C -0.621824 0.758319 -1.931456 0
M  V30 12 N -1.982615 0.435873 -2.193538 0
M  V30 13 N 0.129307 1.536970 -2.729374 0
M  V30 14 C 1.428659 1.798769 -2.406814 0
M  V30 15 C 1.874203 1.219684 -1.246628 0
M  V30 16 I 3.875753 1.649751 -0.791770 0
M  V30 17 C 0.741665 -0.982874 1.570564 0
M  V30 18 C -0.571153 -1.387928 1.465334 0
M  V30 19 H -2.898921 -3.606132 2.260727 0
M  V30 20 H -3.123976 -1.741384 2.217096 0
M  V30 21 H -0.946210 -3.290126 4.238738 0
M  V30 22 H 1.353547 -2.631435 4.502906 0
M  V30 23 H 3.394933 -1.190633 3.393940 0
M  V30 24 H 3.659251 0.220572 1.328557 0
M  V30 25 H -2.703492 0.784522 -1.503768 0
M  V30 26 H -2.232637 -0.123003 -3.038663 0
M  V30 27 H 2.035793 2.421476 -3.041310 0
M  V30 28 H -1.210262 -1.107475 0.664562 0
M  V30 END ATOM
M  V30 BEGIN BOND
M  V30 1 1 1 2
M  V30 2 2 2 3
M  V30 3 1 3 4
M  V30 4 2 4 5
M  V30 5 1 5 6
M  V30 6 1 6 7
M  V30 7 2 7 8
M  V30 8 1 8 9
M  V30 9 2 9 10
M  V30 10 1 10 11
M  V30 11 1 11 12
M  V30 12 2 11 13
M  V30 13 1 13 14
M  V30 14 2 14 15
M  V30 15 1 15 16
M  V30 16 1 8 17
M  V30 17 2 17 18
M  V30 18 1 18 2
M  V30 19 1 17 5
M  V30 20 1 15 9
M  V30 21 1 1 19
M  V30 22 1 1 20
M  V30 23 1 3 21
M  V30 24 1 4 22
M  V30 25 1 6 23
M  V30 26 1 7 24
M  V30 27 1 12 25
M  V30 28 1 12 26
M  V30 29 1 14 27
M  V30 30 1 18 28
M  V30 END BOND
M  V30 END CTAB
M  END
>  <Dataset>  (144) 
ChEMBL_Kinases

>  <Ligand_Instance>  (144) 
nan

>  <PDB_ID>  (144) 
nan

>  <Standardized_SMILES>  (144) 
Nc1ccc2[nH]cc(-c3nc(N)ncc3I)c2c1

>  <Name>  (144) 
nan

>  <Pocket>  (144) 
nan

>  <ATP_Site>  (144) 
nan

>  <Peripheral>  (144) 
nan

>  <Num_H_Atoms_ProtBoundConf>  (144) 
nan

>  <Num_Resolved_Atoms>  (144) 
nan

>  <Num_Not_Resolved_Atoms>  (144) 
nan

$$$$
CHEMBL1802964
     RDKit          3D

  0  0  0  0  0  0  0  0  0  0999 V3000
M  V30 BEGIN CTAB
M  V30 COUNTS 26 28 0 0 0
M  V30 BEGIN ATOM
M  V30 1 N -0.591041 -3.818470 2.917433 0
M  V30 2 C 0.487674 -2.906880 2.584332 0
M  V30 3 N 1.641682 -2.935886 3.302394 0
M  V30 4 C 2.592054 -2.046347 2.904961 0
M  V30 5 C 2.433922 -1.178837 1.867365 0
M  V30 6 I 3.800928 0.236632 1.141747 0
M  V30 7 C 1.223632 -1.202664 1.171353 0
M  V30 8 C 0.784664 -0.371702 0.023074 0
M  V30 9 C 1.369076 -0.396741 -1.235188 0
M  V30 10 N 0.680300 0.446909 -2.032849 0
M  V30 11 C -0.323769 1.002403 -1.312684 0
M  V30 12 C -1.328923 1.932024 -1.595953 0
M  V30 13 C -2.205392 2.300687 -0.593224 0
M  V30 14 C -2.165056 1.810499 0.697447 0
M  V30 15 C -1.160506 0.888777 0.957352 0
M  V30 16 Br -1.104980 0.246961 2.761421 0
M  V30 17 C -0.278098 0.505424 -0.021669 0
M  V30 18 N 0.235199 -2.072242 1.529387 0
M  V30 19 H -0.232482 -4.663301 2.398684 0
M  V30 20 H -1.474276 -3.757718 3.476761 0
M  V30 21 H 3.563215 -1.962290 3.400617 0
M  V30 22 H 2.231909 -0.967083 -1.590163 0
M  V30 23 H 0.855614 0.673121 -3.059472 0
M  V30 24 H -1.405997 2.359845 -2.608970 0
M  V30 25 H -2.980424 3.023052 -0.820575 0
M  V30 26 H -2.872967 2.116899 1.454565 0
M  V30 END ATOM
M  V30 BEGIN BOND
M  V30 1 1 1 2
M  V30 2 2 2 3
M  V30 3 1 3 4
M  V30 4 2 4 5
M  V30 5 1 5 6
M  V30 6 1 5 7
M  V30 7 1 7 8
M  V30 8 2 8 9
M  V30 9 1 9 10
M  V30 10 1 10 11
M  V30 11 2 11 12
M  V30 12 1 12 13
M  V30 13 2 13 14
M  V30 14 1 14 15
M  V30 15 1 15 16
M  V30 16 2 15 17
M  V30 17 2 7 18
M  V30 18 1 18 2
M  V30 19 1 17 8
M  V30 20 1 17 11
M  V30 21 1 1 19
M  V30 22 1 1 20
M  V30 23 1 4 21
M  V30 24 1 9 22
M  V30 25 1 10 23
M  V30 26 1 12 24
M  V30 27 1 13 25
M  V30 28 1 14 26
M  V30 END BOND
M  V30 END CTAB
M  END
>  <Dataset>  (145) 
ChEMBL_Kinases

>  <Ligand_Instance>  (145) 
nan

>  <PDB_ID>  (145) 
nan

>  <Standardized_SMILES>  (145) 
Nc1ncc(I)c(-c2c[nH]c3cccc(Br)c23)n1

>  <Name>  (145) 
nan

>  <Pocket>  (145) 
nan

>  <ATP_Site>  (145) 
nan

>  <Peripheral>  (145) 
nan

>  <Num_H_Atoms_ProtBoundConf>  (145) 
nan

>  <Num_Resolved_Atoms>  (145) 
nan

>  <Num_Not_Resolved_Atoms>  (145) 
nan

$$$$
CHEMBL1802962
     RDKit          3D

  0  0  0  0  0  0  0  0  0  0999 V3000
M  V30 BEGIN CTAB
M  V30 COUNTS 26 28 0 0 0
M  V30 BEGIN ATOM
M  V30 1 N -1.569702 -2.883346 3.777476 0
M  V30 2 C -0.301546 -2.665378 3.119011 0
M  V30 3 N 0.846420 -3.339998 3.407544 0
M  V30 4 C 1.966638 -3.042553 2.719471 0
M  V30 5 C 1.831536 -2.062887 1.772176 0
M  V30 6 C 0.707243 -1.345793 1.432390 0
M  V30 7 C 0.897393 -0.367871 0.374723 0
M  V30 8 C 2.077840 -0.080208 -0.324310 0
M  V30 9 N 1.824082 0.883439 -1.214346 0
M  V30 10 C 0.544662 1.284148 -1.179493 0
M  V30 11 C -0.138806 2.233625 -1.906916 0
M  V30 12 C -1.473012 2.440555 -1.656574 0
M  V30 13 C -2.065876 1.660602 -0.660831 0
M  V30 14 C -1.341732 0.723752 0.039749 0
M  V30 15 Br -2.346267 -0.204074 1.327526 0
M  V30 16 C -0.007176 0.499398 -0.193036 0
M  V30 17 N -0.298303 -1.737886 2.176940 0
M  V30 18 H -1.519153 -2.913468 4.835416 0
M  V30 19 H -2.419316 -2.992021 3.175004 0
M  V30 20 H 2.876754 -3.568962 2.939664 0
M  V30 21 H 2.790550 -1.887065 1.263083 0
M  V30 22 H 3.039719 -0.531828 -0.197979 0
M  V30 23 H 2.542148 1.278558 -1.862882 0
M  V30 24 H 0.392826 2.799156 -2.664016 0
M  V30 25 H -1.957788 3.196779 -2.256494 0
M  V30 26 H -3.123175 1.886396 -0.525152 0
M  V30 END ATOM
M  V30 BEGIN BOND
M  V30 1 1 1 2
M  V30 2 2 2 3
M  V30 3 1 3 4
M  V30 4 2 4 5
M  V30 5 1 5 6
M  V30 6 1 6 7
M  V30 7 2 7 8
M  V30 8 1 8 9
M  V30 9 1 9 10
M  V30 10 2 10 11
M  V30 11 1 11 12
M  V30 12 2 12 13
M  V30 13 1 13 14
M  V30 14 1 14 15
M  V30 15 2 14 16
M  V30 16 2 6 17
M  V30 17 1 17 2
M  V30 18 1 16 7
M  V30 19 1 16 10
M  V30 20 1 1 18
M  V30 21 1 1 19
M  V30 22 1 4 20
M  V30 23 1 5 21
M  V30 24 1 8 22
M  V30 25 1 9 23
M  V30 26 1 11 24
M  V30 27 1 12 25
M  V30 28 1 13 26
M  V30 END BOND
M  V30 END CTAB
M  END
>  <Dataset>  (146) 
ChEMBL_Kinases

>  <Ligand_Instance>  (146) 
nan

>  <PDB_ID>  (146) 
nan

>  <Standardized_SMILES>  (146) 
Nc1nccc(-c2c[nH]c3cccc(Br)c23)n1

>  <Name>  (146) 
nan

>  <Pocket>  (146) 
nan

>  <ATP_Site>  (146) 
nan

>  <Peripheral>  (146) 
nan

>  <Num_H_Atoms_ProtBoundConf>  (146) 
nan

>  <Num_Resolved_Atoms>  (146) 
nan

>  <Num_Not_Resolved_Atoms>  (146) 
nan

$$$$
CHEMBL4777871
     RDKit          3D

  0  0  0  0  0  0  0  0  0  0999 V3000
M  V30 BEGIN CTAB
M  V30 COUNTS 57 61 0 0 0
M  V30 BEGIN ATOM
M  V30 1 C 2.081897 -0.178615 3.277007 0
M  V30 2 C 2.494279 -1.631340 3.377635 0
M  V30 3 C 1.507623 -2.354348 4.267363 0
M  V30 4 O 3.762419 -1.770251 3.906318 0
M  V30 5 C 2.516986 -2.221101 1.992544 0
M  V30 6 C 3.115458 -1.454963 1.031218 0
M  V30 7 C 3.240633 -1.797452 -0.322415 0
M  V30 8 N 3.891530 -0.951150 -1.279787 0
M  V30 9 C 2.806600 -0.401213 -2.062775 0
M  V30 10 C 1.677524 0.200138 -1.469725 0
M  V30 11 C 0.594358 0.765540 -2.184690 0
M  V30 12 O -0.219242 1.204065 -1.240374 0
M  V30 13 C -1.424137 1.107813 -0.730202 0
M  V30 14 C -2.247472 2.193227 -0.555260 0
M  V30 15 N -3.418273 1.832882 -0.007723 0
M  V30 16 C -4.538478 2.689957 0.352722 0
M  V30 17 C -5.176952 2.313859 1.674162 0
M  V30 18 C -5.931991 2.031331 0.439385 0
M  V30 19 N -3.380880 0.498981 0.181596 0
M  V30 20 C -2.177161 0.041356 -0.254563 0
M  V30 21 C -1.892994 -1.385365 -0.181036 0
M  V30 22 C -2.132573 -2.149410 0.966531 0
M  V30 23 C -1.855501 -3.515825 0.905184 0
M  V30 24 C -1.365298 -4.075196 -0.249894 0
M  V30 25 C -1.114313 -3.335064 -1.414440 0
M  V30 26 C -1.399928 -1.977489 -1.323048 0
M  V30 27 C 0.706740 0.692038 -3.554367 0
M  V30 28 C 1.813382 0.103825 -4.159980 0
M  V30 29 N 2.816471 -0.418133 -3.433564 0
M  V30 30 C 2.699727 -3.021202 -0.659552 0
M  V30 31 C 2.103365 -3.781069 0.309303 0
M  V30 32 N 2.017418 -3.390883 1.584893 0
M  V30 33 H 1.456010 0.074336 4.165092 0
M  V30 34 H 1.475450 0.003402 2.350266 0
M  V30 35 H 2.973058 0.478354 3.315529 0
M  V30 36 H 1.163031 -3.272462 3.759722 0
M  V30 37 H 2.004910 -2.644371 5.243292 0
M  V30 38 H 0.667955 -1.702395 4.521617 0
M  V30 39 H 3.725125 -2.334434 4.733489 0
M  V30 40 H 3.563822 -0.467629 1.232573 0
M  V30 41 H 4.885778 -0.692696 -1.481967 0
M  V30 42 H 1.822617 0.139451 -0.387041 0
M  V30 43 H -2.030749 3.229272 -0.804228 0
M  V30 44 H -4.470407 3.751607 0.094719 0
M  V30 45 H -4.781805 1.424526 2.223660 0
M  V30 46 H -5.589641 3.096835 2.340401 0
M  V30 47 H -6.032668 0.981830 0.127375 0
M  V30 48 H -6.814158 2.660215 0.205108 0
M  V30 49 H -2.512998 -1.685344 1.855103 0
M  V30 50 H -2.033272 -4.154141 1.785419 0
M  V30 51 H -1.130568 -5.147964 -0.345518 0
M  V30 52 H -0.722055 -3.826161 -2.300967 0
M  V30 53 H -1.183961 -1.467107 -2.276486 0
M  V30 54 H -0.176223 1.143745 -3.975235 0
M  V30 55 H 1.774080 0.116280 -5.231185 0
M  V30 56 H 2.776573 -3.334555 -1.693904 0
M  V30 57 H 1.680892 -4.749289 0.051793 0
M  V30 END ATOM
M  V30 BEGIN BOND
M  V30 1 1 1 2
M  V30 2 1 2 3
M  V30 3 1 2 4
M  V30 4 1 2 5
M  V30 5 2 5 6
M  V30 6 1 6 7
M  V30 7 1 7 8
M  V30 8 1 8 9
M  V30 9 2 9 10
M  V30 10 1 10 11
M  V30 11 1 11 12
M  V30 12 1 12 13
M  V30 13 2 13 14
M  V30 14 1 14 15
M  V30 15 1 15 16
M  V30 16 1 16 17
M  V30 17 1 17 18
M  V30 18 1 15 19
M  V30 19 2 19 20
M  V30 20 1 20 21
M  V30 21 2 21 22
M  V30 22 1 22 23
M  V30 23 2 23 24
M  V30 24 1 24 25
M  V30 25 2 25 26
M  V30 26 2 11 27
M  V30 27 1 27 28
M  V30 28 2 28 29
M  V30 29 2 7 30
M  V30 30 1 30 31
M  V30 31 2 31 32
M  V30 32 1 32 5
M  V30 33 1 29 9
M  V30 34 1 20 13
M  V30 35 1 26 21
M  V30 36 1 18 16
M  V30 37 1 1 33
M  V30 38 1 1 34
M  V30 39 1 1 35
M  V30 40 1 3 36
M  V30 41 1 3 37
M  V30 42 1 3 38
M  V30 43 1 4 39
M  V30 44 1 6 40
M  V30 45 1 8 41
M  V30 46 1 10 42
M  V30 47 1 14 43
M  V30 48 1 16 44
M  V30 49 1 17 45
M  V30 50 1 17 46
M  V30 51 1 18 47
M  V30 52 1 18 48
M  V30 53 1 22 49
M  V30 54 1 23 50
M  V30 55 1 24 51
M  V30 56 1 25 52
M  V30 57 1 26 53
M  V30 58 1 27 54
M  V30 59 1 28 55
M  V30 60 1 30 56
M  V30 61 1 31 57
M  V30 END BOND
M  V30 END CTAB
M  END
>  <Dataset>  (147) 
ChEMBL_Kinases

>  <Ligand_Instance>  (147) 
nan

>  <PDB_ID>  (147) 
nan

>  <Standardized_SMILES>  (147) 
CC(C)(O)c1cc(Nc2cc(Oc3cn(C4CC4)nc3-c3ccccc3)ccn2)ccn1

>  <Name>  (147) 
nan

>  <Pocket>  (147) 
nan

>  <ATP_Site>  (147) 
nan

>  <Peripheral>  (147) 
nan

>  <Num_H_Atoms_ProtBoundConf>  (147) 
nan

>  <Num_Resolved_Atoms>  (147) 
nan

>  <Num_Not_Resolved_Atoms>  (147) 
nan

$$$$
CHEMBL4778214
     RDKit          3D

  0  0  0  0  0  0  0  0  0  0999 V3000
M  V30 BEGIN CTAB
M  V30 COUNTS 55 58 0 0 0
M  V30 BEGIN ATOM
M  V30 1 C 3.517640 -7.788421 4.525089 0
M  V30 2 C 3.636212 -6.547177 4.049260 0
M  V30 3 C 2.993320 -6.409174 2.747644 0
M  V30 4 O 2.471783 -7.475088 2.357304 0
M  V30 5 N 3.022191 -5.148030 2.089851 0
M  V30 6 C 3.686659 -3.987223 2.698376 0
M  V30 7 C 3.132510 -2.724144 2.110293 0
M  V30 8 C 2.835807 -2.595105 0.813282 0
M  V30 9 C 2.297748 -1.381812 0.219276 0
M  V30 10 C 2.038078 -0.242225 0.943023 0
M  V30 11 C 1.528691 0.894218 0.351104 0
M  V30 12 C 1.246092 0.967807 -0.995120 0
M  V30 13 C 0.690792 2.127529 -1.737432 0
M  V30 14 C 1.342942 3.421422 -1.382424 0
M  V30 15 C -0.795671 2.269444 -1.549803 0
M  V30 16 O -1.589852 2.194150 -2.551805 0
M  V30 17 N -1.457631 2.489898 -0.322806 0
M  V30 18 C -2.858784 2.622270 -0.152182 0
M  V30 19 C -3.904390 2.585579 -1.031552 0
M  V30 20 C -5.108783 2.764846 -0.392499 0
M  V30 21 C -6.493596 2.805472 -0.892821 0
M  V30 22 C -7.531524 3.543130 -0.095099 0
M  V30 23 C -7.529702 2.067479 -0.028176 0
M  V30 24 N -4.757535 2.909958 0.893314 0
M  V30 25 N -3.468304 2.829253 1.038346 0
M  V30 26 C 1.515843 -0.201388 -1.720873 0
M  V30 27 C 2.033327 -1.362309 -1.132025 0
M  V30 28 C 3.126450 -3.831662 0.089553 0
M  V30 29 C 2.399916 -4.954824 0.796862 0
M  V30 30 H 2.978833 -8.526724 3.916943 0
M  V30 31 H 3.831435 -8.309870 5.417124 0
M  V30 32 H 4.180619 -5.964833 4.756531 0
M  V30 33 H 4.774743 -4.060189 2.625004 0
M  V30 34 H 3.382916 -3.995363 3.764569 0
M  V30 35 H 2.966804 -1.869677 2.784563 0
M  V30 36 H 2.218864 -0.183191 1.999607 0
M  V30 37 H 1.340360 1.768332 0.928599 0
M  V30 38 H 0.815743 1.962574 -2.845516 0
M  V30 39 H 0.729946 4.304967 -1.553545 0
M  V30 40 H 2.353526 3.546857 -1.834761 0
M  V30 41 H 1.548411 3.406324 -0.271744 0
M  V30 42 H -0.841120 2.559178 0.509978 0
M  V30 43 H -3.830344 2.436665 -2.099379 0
M  V30 44 H -6.691090 2.675161 -1.973980 0
M  V30 45 H -8.409401 4.008679 -0.590842 0
M  V30 46 H -7.103613 4.086132 0.796819 0
M  V30 47 H -8.327975 1.502617 -0.515370 0
M  V30 48 H -7.143800 1.600379 0.898656 0
M  V30 49 H -5.330024 3.070690 1.761339 0
M  V30 50 H 1.303576 -0.182280 -2.799154 0
M  V30 51 H 2.185819 -2.168799 -1.808626 0
M  V30 52 H 2.963550 -3.833143 -0.980791 0
M  V30 53 H 4.225530 -4.043128 0.232306 0
M  V30 54 H 2.459115 -5.919326 0.259703 0
M  V30 55 H 1.342430 -4.656839 0.991253 0
M  V30 END ATOM
M  V30 BEGIN BOND
M  V30 1 2 1 2
M  V30 2 1 2 3
M  V30 3 2 3 4
M  V30 4 1 3 5
M  V30 5 1 5 6
M  V30 6 1 6 7
M  V30 7 2 7 8
M  V30 8 1 8 9
M  V30 9 2 9 10
M  V30 10 1 10 11
M  V30 11 2 11 12
M  V30 12 1 12 13
M  V30 13 1 13 14
M  V30 14 1 13 15
M  V30 15 2 15 16
M  V30 16 1 15 17
M  V30 17 1 17 18
M  V30 18 1 18 19
M  V30 19 2 19 20
M  V30 20 1 20 21
M  V30 21 1 21 22
M  V30 22 1 22 23
M  V30 23 1 20 24
M  V30 24 1 24 25
M  V30 25 1 12 26
M  V30 26 2 26 27
M  V30 27 1 8 28
M  V30 28 1 28 29
M  V30 29 1 29 5
M  V30 30 1 27 9
M  V30 31 2 25 18
M  V30 32 1 23 21
M  V30 33 1 1 30
M  V30 34 1 1 31
M  V30 35 1 2 32
M  V30 36 1 6 33
M  V30 37 1 6 34
M  V30 38 1 7 35
M  V30 39 1 10 36
M  V30 40 1 11 37
M  V30 41 1 13 38
M  V30 42 1 14 39
M  V30 43 1 14 40
M  V30 44 1 14 41
M  V30 45 1 17 42
M  V30 46 1 19 43
M  V30 47 1 21 44
M  V30 48 1 22 45
M  V30 49 1 22 46
M  V30 50 1 23 47
M  V30 51 1 23 48
M  V30 52 1 24 49
M  V30 53 1 26 50
M  V30 54 1 27 51
M  V30 55 1 28 52
M  V30 56 1 28 53
M  V30 57 1 29 54
M  V30 58 1 29 55
M  V30 END BOND
M  V30 END CTAB
M  END
>  <Dataset>  (148) 
ChEMBL_Kinases

>  <Ligand_Instance>  (148) 
nan

>  <PDB_ID>  (148) 
nan

>  <Standardized_SMILES>  (148) 
C=CC(=O)N1CC=C(c2ccc(C(C)C(=O)Nc3cc(C4CC4)[nH]n3)cc2)CC1

>  <Name>  (148) 
nan

>  <Pocket>  (148) 
nan

>  <ATP_Site>  (148) 
nan

>  <Peripheral>  (148) 
nan

>  <Num_H_Atoms_ProtBoundConf>  (148) 
nan

>  <Num_Resolved_Atoms>  (148) 
nan

>  <Num_Not_Resolved_Atoms>  (148) 
nan

$$$$
CHEMBL1403333
     RDKit          3D

  0  0  0  0  0  0  0  0  0  0999 V3000
M  V30 BEGIN CTAB
M  V30 COUNTS 49 52 0 0 0
M  V30 BEGIN ATOM
M  V30 1 C 2.113567 -0.120898 -2.247424 0
M  V30 2 N 2.877463 0.069420 -1.006458 0
M  V30 3 C 3.943528 -0.899195 -1.048723 0
M  V30 4 C 4.835082 -0.866822 0.133194 0
M  V30 5 C 5.996737 -0.099418 0.280248 0
M  V30 6 C 6.459627 -0.428537 1.558342 0
M  V30 7 C 5.573684 -1.340817 2.074358 0
M  V30 8 O 4.633385 -1.578453 1.218728 0
M  V30 9 C 2.527908 1.041164 -0.052356 0
M  V30 10 N 3.405244 2.036739 0.268133 0
M  V30 11 C 3.159545 2.994042 1.153127 0
M  V30 12 N 1.982387 3.055351 1.824792 0
M  V30 13 C 1.047535 2.100157 1.566535 0
M  V30 14 C -0.189007 2.094804 2.217645 0
M  V30 15 C -1.138411 1.114468 1.948106 0
M  V30 16 C -0.830287 0.128707 1.007858 0
M  V30 17 C -1.843770 -0.898783 0.736217 0
M  V30 18 C -1.386037 -2.152044 0.382656 0
M  V30 19 C -2.236031 -3.207878 0.101319 0
M  V30 20 C -3.600505 -2.950899 0.190868 0
M  V30 21 C -4.073894 -1.696052 0.545096 0
M  V30 22 N -5.483441 -1.501637 0.617598 0
M  V30 23 S -6.554418 -2.595924 1.371096 0
M  V30 24 C -6.222890 -2.794752 3.094702 0
M  V30 25 O -7.957105 -2.075287 1.181678 0
M  V30 26 O -6.475528 -3.902718 0.634203 0
M  V30 27 C -3.186225 -0.665127 0.818998 0
M  V30 28 C 0.394283 0.148403 0.374281 0
M  V30 29 C 1.338358 1.121524 0.640908 0
M  V30 30 H 1.250531 0.546844 -2.316995 0
M  V30 31 H 2.795780 0.034107 -3.131236 0
M  V30 32 H 1.753546 -1.161135 -2.367255 0
M  V30 33 H 4.594975 -0.633561 -1.931777 0
M  V30 34 H 3.629321 -1.935003 -1.203741 0
M  V30 35 H 6.405598 0.569797 -0.434602 0
M  V30 36 H 7.371609 0.040970 1.929129 0
M  V30 37 H 5.805800 -1.700078 3.088239 0
M  V30 38 H 3.915391 3.765762 1.361271 0
M  V30 39 H -0.322201 2.908216 2.929402 0
M  V30 40 H -2.077471 1.156131 2.478636 0
M  V30 41 H -0.324256 -2.382143 0.304674 0
M  V30 42 H -1.863916 -4.186308 -0.174968 0
M  V30 43 H -4.239314 -3.807463 -0.038156 0
M  V30 44 H -5.789938 -0.613966 0.157920 0
M  V30 45 H -6.916997 -3.594080 3.467087 0
M  V30 46 H -6.381205 -1.821277 3.591011 0
M  V30 47 H -5.152792 -3.100885 3.198794 0
M  V30 48 H -3.550605 0.316467 1.096120 0
M  V30 49 H 0.578258 -0.639385 -0.343677 0
M  V30 END ATOM
M  V30 BEGIN BOND
M  V30 1 1 1 2
M  V30 2 1 2 3
M  V30 3 1 3 4
M  V30 4 2 4 5
M  V30 5 1 5 6
M  V30 6 2 6 7
M  V30 7 1 7 8
M  V30 8 1 2 9
M  V30 9 2 9 10
M  V30 10 1 10 11
M  V30 11 2 11 12
M  V30 12 1 12 13
M  V30 13 2 13 14
M  V30 14 1 14 15
M  V30 15 2 15 16
M  V30 16 1 16 17
M  V30 17 2 17 18
M  V30 18 1 18 19
M  V30 19 2 19 20
M  V30 20 1 20 21
M  V30 21 1 21 22
M  V30 22 1 22 23
M  V30 23 1 23 24
M  V30 24 2 23 25
M  V30 25 2 23 26
M  V30 26 2 21 27
M  V30 27 1 16 28
M  V30 28 2 28 29
M  V30 29 1 8 4
M  V30 30 1 29 9
M  V30 31 1 29 13
M  V30 32 1 27 17
M  V30 33 1 1 30
M  V30 34 1 1 31
M  V30 35 1 1 32
M  V30 36 1 3 33
M  V30 37 1 3 34
M  V30 38 1 5 35
M  V30 39 1 6 36
M  V30 40 1 7 37
M  V30 41 1 11 38
M  V30 42 1 14 39
M  V30 43 1 15 40
M  V30 44 1 18 41
M  V30 45 1 19 42
M  V30 46 1 20 43
M  V30 47 1 22 44
M  V30 48 1 24 45
M  V30 49 1 24 46
M  V30 50 1 24 47
M  V30 51 1 27 48
M  V30 52 1 28 49
M  V30 END BOND
M  V30 END CTAB
M  END
>  <Dataset>  (149) 
ChEMBL_Kinases

>  <Ligand_Instance>  (149) 
nan

>  <PDB_ID>  (149) 
nan

>  <Standardized_SMILES>  (149) 
CN(Cc1ccco1)c1ncnc2ccc(-c3cccc(NS(C)(=O)=O)c3)cc12

>  <Name>  (149) 
nan

>  <Pocket>  (149) 
nan

>  <ATP_Site>  (149) 
nan

>  <Peripheral>  (149) 
nan

>  <Num_H_Atoms_ProtBoundConf>  (149) 
nan

>  <Num_Resolved_Atoms>  (149) 
nan

>  <Num_Not_Resolved_Atoms>  (149) 
nan

$$$$
CHEMBL4778358
     RDKit          3D

  0  0  0  0  0  0  0  0  0  0999 V3000
M  V30 BEGIN CTAB
M  V30 COUNTS 46 49 0 0 0
M  V30 BEGIN ATOM
M  V30 1 C 4.136041 -3.134585 3.971990 0
M  V30 2 C 3.666572 -2.032489 3.015154 0
M  V30 3 C 2.176806 -2.237821 2.825844 0
M  V30 4 N 4.395678 -2.155489 1.779485 0
M  V30 5 C 5.183348 -3.192214 1.411165 0
M  V30 6 N 5.682881 -2.926596 0.190403 0
M  V30 7 N 5.204471 -1.745391 -0.175699 0
M  V30 8 C 4.404963 -1.236702 0.779508 0
M  V30 9 C 3.712054 0.047500 0.705486 0
M  V30 10 C 4.383540 1.148745 0.181797 0
M  V30 11 C 3.790994 2.391831 0.081719 0
M  V30 12 C 2.480343 2.550617 0.517981 0
M  V30 13 C 1.831137 1.444952 1.034690 0
M  V30 14 N 0.473810 1.469592 1.521962 0
M  V30 15 C -0.486122 1.176794 0.519893 0
M  V30 16 O -0.346479 0.908350 -0.684569 0
M  V30 17 N -1.858434 1.171969 0.883490 0
M  V30 18 C -3.048080 0.924460 0.142473 0
M  V30 19 C -3.740101 1.934488 -0.505162 0
M  V30 20 N -4.876522 1.643195 -1.202711 0
M  V30 21 C -5.310776 0.349972 -1.247430 0
M  V30 22 C -6.476351 0.054856 -1.963555 0
M  V30 23 C -6.957245 -1.252745 -2.036445 0
M  V30 24 C -6.260559 -2.271216 -1.384137 0
M  V30 25 C -5.102846 -1.968060 -0.674724 0
M  V30 26 C -4.632490 -0.667888 -0.607417 0
M  V30 27 N -3.498832 -0.343476 0.082088 0
M  V30 28 N 2.440176 0.247692 1.117138 0
M  V30 29 H 3.688306 -3.032099 4.959508 0
M  V30 30 H 5.244565 -3.077213 3.980135 0
M  V30 31 H 3.833372 -4.090418 3.512344 0
M  V30 32 H 3.887735 -1.070227 3.556983 0
M  V30 33 H 1.581458 -1.401504 3.225701 0
M  V30 34 H 1.797031 -3.149951 3.348792 0
M  V30 35 H 1.992680 -2.444820 1.742311 0
M  V30 36 H 5.361198 -4.084075 2.031440 0
M  V30 37 H 5.403444 1.021800 -0.156830 0
M  V30 38 H 4.304983 3.255340 -0.324359 0
M  V30 39 H 1.945320 3.483286 0.475783 0
M  V30 40 H 0.132873 1.674607 2.507483 0
M  V30 41 H -2.239548 1.366914 1.836549 0
M  V30 42 H -3.375962 2.968137 -0.458136 0
M  V30 43 H -7.044667 0.811617 -2.481776 0
M  V30 44 H -7.842442 -1.549538 -2.566669 0
M  V30 45 H -6.618401 -3.297841 -1.428314 0
M  V30 46 H -4.531628 -2.730824 -0.153460 0
M  V30 END ATOM
M  V30 BEGIN BOND
M  V30 1 1 1 2
M  V30 2 1 2 3
M  V30 3 1 2 4
M  V30 4 1 4 5
M  V30 5 2 5 6
M  V30 6 1 6 7
M  V30 7 2 7 8
M  V30 8 1 8 9
M  V30 9 2 9 10
M  V30 10 1 10 11
M  V30 11 2 11 12
M  V30 12 1 12 13
M  V30 13 1 13 14
M  V30 14 1 14 15
M  V30 15 2 15 16
M  V30 16 1 15 17
M  V30 17 1 17 18
M  V30 18 2 18 19
M  V30 19 1 19 20
M  V30 20 2 20 21
M  V30 21 1 21 22
M  V30 22 2 22 23
M  V30 23 1 23 24
M  V30 24 2 24 25
M  V30 25 1 25 26
M  V30 26 2 26 27
M  V30 27 2 13 28
M  V30 28 1 8 4
M  V30 29 1 28 9
M  V30 30 1 27 18
M  V30 31 1 26 21
M  V30 32 1 1 29
M  V30 33 1 1 30
M  V30 34 1 1 31
M  V30 35 1 2 32
M  V30 36 1 3 33
M  V30 37 1 3 34
M  V30 38 1 3 35
M  V30 39 1 5 36
M  V30 40 1 10 37
M  V30 41 1 11 38
M  V30 42 1 12 39
M  V30 43 1 14 40
M  V30 44 1 17 41
M  V30 45 1 19 42
M  V30 46 1 22 43
M  V30 47 1 23 44
M  V30 48 1 24 45
M  V30 49 1 25 46
M  V30 END BOND
M  V30 END CTAB
M  END
>  <Dataset>  (150) 
ChEMBL_Kinases

>  <Ligand_Instance>  (150) 
nan

>  <PDB_ID>  (150) 
nan

>  <Standardized_SMILES>  (150) 
CC(C)n1cnnc1-c1cccc(NC(=O)Nc2cnc3ccccc3n2)n1

>  <Name>  (150) 
nan

>  <Pocket>  (150) 
nan

>  <ATP_Site>  (150) 
nan

>  <Peripheral>  (150) 
nan

>  <Num_H_Atoms_ProtBoundConf>  (150) 
nan

>  <Num_Resolved_Atoms>  (150) 
nan

>  <Num_Not_Resolved_Atoms>  (150) 
nan

$$$$
CHEMBL4778361
     RDKit          3D

  0  0  0  0  0  0  0  0  0  0999 V3000
M  V30 BEGIN CTAB
M  V30 COUNTS 54 57 0 0 0
M  V30 BEGIN ATOM
M  V30 1 C 2.382352 -7.948747 4.315711 0
M  V30 2 C 2.845120 -6.771617 3.878137 0
M  V30 3 C 2.546030 -6.593216 2.463005 0
M  V30 4 O 1.936658 -7.565745 1.995159 0
M  V30 5 N 3.014039 -5.354948 1.933946 0
M  V30 6 C 3.727818 -4.275796 2.589843 0
M  V30 7 C 3.193394 -2.944050 2.140748 0
M  V30 8 C 2.961713 -2.730391 0.872176 0
M  V30 9 C 2.445585 -1.482332 0.326211 0
M  V30 10 C 2.143416 -0.380656 1.096798 0
M  V30 11 C 1.656090 0.774964 0.521777 0
M  V30 12 C 1.439833 0.911126 -0.833245 0
M  V30 13 C 0.920101 2.066123 -1.584115 0
M  V30 14 C 1.559529 3.365821 -1.185231 0
M  V30 15 C -0.567990 2.240344 -1.444890 0
M  V30 16 O -1.307478 2.160921 -2.480574 0
M  V30 17 N -1.280664 2.494141 -0.247539 0
M  V30 18 C -2.683540 2.653840 -0.136555 0
M  V30 19 C -3.661706 2.612380 -1.076685 0
M  V30 20 C -4.888821 2.824868 -0.488777 0
M  V30 21 C -6.264515 2.876464 -1.074867 0
M  V30 22 C -7.324395 3.638152 -0.351233 0
M  V30 23 C -7.315757 2.116557 -0.291682 0
M  V30 24 N -4.603694 2.990922 0.813785 0
M  V30 25 N -3.316500 2.893194 1.033223 0
M  V30 26 C 1.766198 -0.242993 -1.562769 0
M  V30 27 N 2.241507 -1.368555 -0.998314 0
M  V30 28 C 3.260940 -3.865101 -0.024751 0
M  V30 29 C 2.733179 -5.150693 0.539878 0
M  V30 30 H 1.859028 -8.849098 4.031733 0
M  V30 31 H 2.291243 -8.614384 5.186207 0
M  V30 32 H 3.266731 -6.439816 4.818511 0
M  V30 33 H 3.499488 -4.370525 3.680217 0
M  V30 34 H 4.822977 -4.343750 2.490928 0
M  V30 35 H 3.002289 -2.167556 2.865192 0
M  V30 36 H 2.284205 -0.407204 2.162362 0
M  V30 37 H 1.424243 1.641668 1.119010 0
M  V30 38 H 1.111867 1.929158 -2.688311 0
M  V30 39 H 0.995806 4.245825 -1.488073 0
M  V30 40 H 2.630483 3.371699 -1.462995 0
M  V30 41 H 1.565379 3.398177 -0.055787 0
M  V30 42 H -0.678801 2.564778 0.603030 0
M  V30 43 H -3.564485 2.445597 -2.125643 0
M  V30 44 H -6.363049 2.719934 -2.166351 0
M  V30 45 H -8.178652 4.036953 -0.921954 0
M  V30 46 H -7.006069 4.153521 0.587356 0
M  V30 47 H -8.109213 1.552293 -0.815435 0
M  V30 48 H -7.035275 1.667492 0.667584 0
M  V30 49 H -5.246031 3.179376 1.637868 0
M  V30 50 H 1.659039 -0.317289 -2.651125 0
M  V30 51 H 4.382337 -3.922926 -0.146763 0
M  V30 52 H 2.872622 -3.746711 -1.037843 0
M  V30 53 H 1.626646 -5.176398 0.371520 0
M  V30 54 H 3.219709 -6.019245 0.008293 0
M  V30 END ATOM
M  V30 BEGIN BOND
M  V30 1 2 1 2
M  V30 2 1 2 3
M  V30 3 2 3 4
M  V30 4 1 3 5
M  V30 5 1 5 6
M  V30 6 1 6 7
M  V30 7 2 7 8
M  V30 8 1 8 9
M  V30 9 2 9 10
M  V30 10 1 10 11
M  V30 11 2 11 12
M  V30 12 1 12 13
M  V30 13 1 13 14
M  V30 14 1 13 15
M  V30 15 2 15 16
M  V30 16 1 15 17
M  V30 17 1 17 18
M  V30 18 1 18 19
M  V30 19 2 19 20
M  V30 20 1 20 21
M  V30 21 1 21 22
M  V30 22 1 22 23
M  V30 23 1 20 24
M  V30 24 1 24 25
M  V30 25 1 12 26
M  V30 26 2 26 27
M  V30 27 1 8 28
M  V30 28 1 28 29
M  V30 29 1 29 5
M  V30 30 1 27 9
M  V30 31 2 25 18
M  V30 32 1 23 21
M  V30 33 1 1 30
M  V30 34 1 1 31
M  V30 35 1 2 32
M  V30 36 1 6 33
M  V30 37 1 6 34
M  V30 38 1 7 35
M  V30 39 1 10 36
M  V30 40 1 11 37
M  V30 41 1 13 38
M  V30 42 1 14 39
M  V30 43 1 14 40
M  V30 44 1 14 41
M  V30 45 1 17 42
M  V30 46 1 19 43
M  V30 47 1 21 44
M  V30 48 1 22 45
M  V30 49 1 22 46
M  V30 50 1 23 47
M  V30 51 1 23 48
M  V30 52 1 24 49
M  V30 53 1 26 50
M  V30 54 1 28 51
M  V30 55 1 28 52
M  V30 56 1 29 53
M  V30 57 1 29 54
M  V30 END BOND
M  V30 END CTAB
M  END
>  <Dataset>  (151) 
ChEMBL_Kinases

>  <Ligand_Instance>  (151) 
nan

>  <PDB_ID>  (151) 
nan

>  <Standardized_SMILES>  (151) 
C=CC(=O)N1CC=C(c2ccc(C(C)C(=O)Nc3cc(C4CC4)[nH]n3)cn2)CC1

>  <Name>  (151) 
nan

>  <Pocket>  (151) 
nan

>  <ATP_Site>  (151) 
nan

>  <Peripheral>  (151) 
nan

>  <Num_H_Atoms_ProtBoundConf>  (151) 
nan

>  <Num_Resolved_Atoms>  (151) 
nan

>  <Num_Not_Resolved_Atoms>  (151) 
nan

$$$$
CHEMBL4778362
     RDKit          3D

  0  0  0  0  0  0  0  0  0  0999 V3000
M  V30 BEGIN CTAB
M  V30 COUNTS 57 61 0 0 0
M  V30 BEGIN ATOM
M  V30 1 C 0.625422 -1.642526 4.816983 0
M  V30 2 C 1.588834 -0.913244 3.916147 0
M  V30 3 O 2.806732 -0.716431 4.543288 0
M  V30 4 C 1.836125 -1.657813 2.651976 0
M  V30 5 C 2.677258 -1.210602 1.644491 0
M  V30 6 C 2.806423 -1.991168 0.487781 0
M  V30 7 N 3.672564 -1.392161 -0.457513 0
M  V30 8 C 3.059125 -1.477500 -1.732301 0
M  V30 9 C 2.005023 -0.588709 -1.757555 0
M  V30 10 C 1.142346 -0.351943 -2.840820 0
M  V30 11 O 0.094058 0.515958 -2.896518 0
M  V30 12 C -0.859040 0.776121 -1.947098 0
M  V30 13 C -1.206626 1.931572 -1.273970 0
M  V30 14 N -2.236477 1.727721 -0.403313 0
M  V30 15 C -2.791743 2.798214 0.425431 0
M  V30 16 C -3.080795 2.431547 1.885726 0
M  V30 17 C -4.190811 2.601990 0.880300 0
M  V30 18 N -2.571296 0.436920 -0.500566 0
M  V30 19 C -1.756959 -0.144188 -1.418838 0
M  V30 20 C -1.928921 -1.587304 -1.676536 0
M  V30 21 C -1.393089 -2.519941 -0.610778 0
M  V30 22 C -2.638751 -3.367448 -0.814435 0
M  V30 23 F -2.322775 -4.423626 -1.676370 0
M  V30 24 F -3.266027 -3.770143 0.349816 0
M  V30 25 C -3.281579 -2.171846 -1.483664 0
M  V30 26 C 1.452237 -1.138857 -3.966144 0
M  V30 27 C 2.508057 -2.035662 -3.950169 0
M  V30 28 N 3.279101 -2.187894 -2.856072 0
M  V30 29 C 2.117326 -3.172734 0.359503 0
M  V30 30 C 1.295576 -3.579939 1.377606 0
M  V30 31 N 1.188328 -2.809938 2.475879 0
M  V30 32 C 0.913974 0.424754 3.580532 0
M  V30 33 F -0.283799 0.098029 2.935986 0
M  V30 34 F 0.646981 1.048705 4.764987 0
M  V30 35 F 1.686625 1.205091 2.774122 0
M  V30 36 H 0.427118 -0.920531 5.662876 0
M  V30 37 H -0.334056 -1.790281 4.312575 0
M  V30 38 H 1.058924 -2.532659 5.274118 0
M  V30 39 H 2.729350 -0.810816 5.529685 0
M  V30 40 H 3.178661 -0.258480 1.840658 0
M  V30 41 H 4.593828 -0.938189 -0.445860 0
M  V30 42 H 1.669606 0.073483 -0.953029 0
M  V30 43 H -0.688718 2.867410 -1.455753 0
M  V30 44 H -2.493000 3.813546 0.182273 0
M  V30 45 H -2.806604 1.424895 2.200349 0
M  V30 46 H -2.890603 3.242927 2.621181 0
M  V30 47 H -4.851491 3.464524 1.066784 0
M  V30 48 H -4.732165 1.687784 0.599699 0
M  V30 49 H -1.515893 -1.873186 -2.672131 0
M  V30 50 H -0.449825 -3.020910 -0.924122 0
M  V30 51 H -1.305285 -2.092566 0.409046 0
M  V30 52 H -3.775842 -2.401738 -2.459484 0
M  V30 53 H -3.961160 -1.687550 -0.746809 0
M  V30 54 H 0.843091 -1.036375 -4.879356 0
M  V30 55 H 2.762525 -2.645380 -4.821443 0
M  V30 56 H 2.269790 -3.722629 -0.564155 0
M  V30 57 H 0.740337 -4.502039 1.306096 0
M  V30 END ATOM
M  V30 BEGIN BOND
M  V30 1 1 1 2
M  V30 2 1 2 3
M  V30 3 1 2 4
M  V30 4 2 4 5
M  V30 5 1 5 6
M  V30 6 1 6 7
M  V30 7 1 7 8
M  V30 8 2 8 9
M  V30 9 1 9 10
M  V30 10 1 10 11
M  V30 11 1 11 12
M  V30 12 2 12 13
M  V30 13 1 13 14
M  V30 14 1 14 15
M  V30 15 1 15 16
M  V30 16 1 16 17
M  V30 17 1 14 18
M  V30 18 2 18 19
M  V30 19 1 19 20
M  V30 20 1 20 21
M  V30 21 1 21 22
M  V30 22 1 22 23
M  V30 23 1 22 24
M  V30 24 1 22 25
M  V30 25 2 10 26
M  V30 26 1 26 27
M  V30 27 2 27 28
M  V30 28 2 6 29
M  V30 29 1 29 30
M  V30 30 2 30 31
M  V30 31 1 2 32
M  V30 32 1 32 33
M  V30 33 1 32 34
M  V30 34 1 32 35
M  V30 35 1 31 4
M  V30 36 1 28 8
M  V30 37 1 19 12
M  V30 38 1 25 20
M  V30 39 1 17 15
M  V30 40 1 1 36
M  V30 41 1 1 37
M  V30 42 1 1 38
M  V30 43 1 3 39
M  V30 44 1 5 40
M  V30 45 1 7 41
M  V30 46 1 9 42
M  V30 47 1 13 43
M  V30 48 1 15 44
M  V30 49 1 16 45
M  V30 50 1 16 46
M  V30 51 1 17 47
M  V30 52 1 17 48
M  V30 53 1 20 49
M  V30 54 1 21 50
M  V30 55 1 21 51
M  V30 56 1 25 52
M  V30 57 1 25 53
M  V30 58 1 26 54
M  V30 59 1 27 55
M  V30 60 1 29 56
M  V30 61 1 30 57
M  V30 END BOND
M  V30 END CTAB
M  END
>  <Dataset>  (152) 
ChEMBL_Kinases

>  <Ligand_Instance>  (152) 
nan

>  <PDB_ID>  (152) 
nan

>  <Standardized_SMILES>  (152) 
CC(O)(c1cc(Nc2cc(Oc3cn(C4CC4)nc3C3CC(F)(F)C3)ccn2)ccn1)C(F)(F)F

>  <Name>  (152) 
nan

>  <Pocket>  (152) 
nan

>  <ATP_Site>  (152) 
nan

>  <Peripheral>  (152) 
nan

>  <Num_H_Atoms_ProtBoundConf>  (152) 
nan

>  <Num_Resolved_Atoms>  (152) 
nan

>  <Num_Not_Resolved_Atoms>  (152) 
nan

$$$$
CHEMBL1802410
     RDKit          3D

  0  0  0  0  0  0  0  0  0  0999 V3000
M  V30 BEGIN CTAB
M  V30 COUNTS 28 30 0 0 0
M  V30 BEGIN ATOM
M  V30 1 N 0.357650 -1.282384 5.229196 0
M  V30 2 C 1.256622 -1.128658 4.133287 0
M  V30 3 N 2.558900 -1.468810 4.174303 0
M  V30 4 C 3.409759 -1.312114 3.124090 0
M  V30 5 C 2.916320 -0.774844 1.933551 0
M  V30 6 I 4.142088 -0.491752 0.250043 0
M  V30 7 C 1.569539 -0.424926 1.901359 0
M  V30 8 C 0.972400 0.126006 0.685358 0
M  V30 9 C 1.200589 1.239516 -0.056832 0
M  V30 10 N 0.328227 1.246312 -1.100008 0
M  V30 11 C -0.446176 0.130949 -1.010116 0
M  V30 12 C -1.441326 -0.294421 -1.829153 0
M  V30 13 N -1.866772 0.430420 -2.974489 0
M  V30 14 C -2.130100 -1.485945 -1.594008 0
M  V30 15 C -1.772936 -2.244443 -0.474413 0
M  V30 16 C -0.759223 -1.762886 0.320422 0
M  V30 17 C -0.062103 -0.595415 0.110661 0
M  V30 18 N 0.768952 -0.602551 2.980292 0
M  V30 19 H -0.669120 -1.377557 5.091444 0
M  V30 20 H 0.678612 -1.302924 6.204371 0
M  V30 21 H 4.466714 -1.606598 3.203408 0
M  V30 22 H 1.981771 1.910997 0.253835 0
M  V30 23 H 0.338038 2.023943 -1.786745 0
M  V30 24 H -1.342474 0.152397 -3.864319 0
M  V30 25 H -2.606096 1.042321 -2.560517 0
M  V30 26 H -2.927197 -1.867026 -2.227805 0
M  V30 27 H -2.245642 -3.186326 -0.208571 0
M  V30 28 H -0.471412 -2.346267 1.193965 0
M  V30 END ATOM
M  V30 BEGIN BOND
M  V30 1 1 1 2
M  V30 2 2 2 3
M  V30 3 1 3 4
M  V30 4 2 4 5
M  V30 5 1 5 6
M  V30 6 1 5 7
M  V30 7 1 7 8
M  V30 8 2 8 9
M  V30 9 1 9 10
M  V30 10 1 10 11
M  V30 11 2 11 12
M  V30 12 1 12 13
M  V30 13 1 12 14
M  V30 14 2 14 15
M  V30 15 1 15 16
M  V30 16 2 16 17
M  V30 17 2 7 18
M  V30 18 1 18 2
M  V30 19 1 17 8
M  V30 20 1 17 11
M  V30 21 1 1 19
M  V30 22 1 1 20
M  V30 23 1 4 21
M  V30 24 1 9 22
M  V30 25 1 10 23
M  V30 26 1 13 24
M  V30 27 1 13 25
M  V30 28 1 14 26
M  V30 29 1 15 27
M  V30 30 1 16 28
M  V30 END BOND
M  V30 END CTAB
M  END
>  <Dataset>  (153) 
ChEMBL_Kinases

>  <Ligand_Instance>  (153) 
nan

>  <PDB_ID>  (153) 
nan

>  <Standardized_SMILES>  (153) 
Nc1ncc(I)c(-c2c[nH]c3c(N)cccc23)n1

>  <Name>  (153) 
nan

>  <Pocket>  (153) 
nan

>  <ATP_Site>  (153) 
nan

>  <Peripheral>  (153) 
nan

>  <Num_H_Atoms_ProtBoundConf>  (153) 
nan

>  <Num_Resolved_Atoms>  (153) 
nan

>  <Num_Not_Resolved_Atoms>  (153) 
nan

$$$$
CHEMBL1802409
     RDKit          3D

  0  0  0  0  0  0  0  0  0  0999 V3000
M  V30 BEGIN CTAB
M  V30 COUNTS 28 30 0 0 0
M  V30 BEGIN ATOM
M  V30 1 N -1.757544 -3.932489 3.559898 0
M  V30 2 C -0.984013 -2.981965 2.832992 0
M  V30 3 C -1.646950 -2.092889 1.965023 0
M  V30 4 C -0.858557 -1.198460 1.288828 0
M  V30 5 C 0.512106 -1.094489 1.387748 0
M  V30 6 C 1.491705 -0.274528 0.841090 0
M  V30 7 C 1.106678 0.764527 -0.139258 0
M  V30 8 N 0.529352 0.406983 -1.294539 0
M  V30 9 C 0.092119 1.170973 -2.264838 0
M  V30 10 N -0.526694 0.689135 -3.464113 0
M  V30 11 N 0.253232 2.491496 -2.053976 0
M  V30 12 C 0.810412 3.027697 -0.959223 0
M  V30 13 C 1.245497 2.149252 0.019191 0
M  V30 14 I 2.149714 2.781644 1.840860 0
M  V30 15 C 2.731055 -0.675910 1.384058 0
M  V30 16 N 2.447020 -1.688240 2.207042 0
M  V30 17 C 1.152594 -1.991155 2.261258 0
M  V30 18 C 0.408747 -2.918799 2.967671 0
M  V30 19 H -1.402799 -4.899053 3.770046 0
M  V30 20 H -2.727631 -3.668307 3.912196 0
M  V30 21 H -2.736371 -2.121611 1.832536 0
M  V30 22 H -1.379915 -0.499076 0.616270 0
M  V30 23 H -1.410584 0.170079 -3.656553 0
M  V30 24 H 0.005026 0.893003 -4.360956 0
M  V30 25 H 0.952530 4.082065 -0.769876 0
M  V30 26 H 3.566550 -0.114450 1.034337 0
M  V30 27 H 3.247236 -2.118523 2.704182 0
M  V30 28 H 0.935089 -3.609895 3.640714 0
M  V30 END ATOM
M  V30 BEGIN BOND
M  V30 1 1 1 2
M  V30 2 2 2 3
M  V30 3 1 3 4
M  V30 4 2 4 5
M  V30 5 1 5 6
M  V30 6 1 6 7
M  V30 7 2 7 8
M  V30 8 1 8 9
M  V30 9 1 9 10
M  V30 10 2 9 11
M  V30 11 1 11 12
M  V30 12 2 12 13
M  V30 13 1 13 14
M  V30 14 2 6 15
M  V30 15 1 15 16
M  V30 16 1 16 17
M  V30 17 2 17 18
M  V30 18 1 18 2
M  V30 19 1 17 5
M  V30 20 1 13 7
M  V30 21 1 1 19
M  V30 22 1 1 20
M  V30 23 1 3 21
M  V30 24 1 4 22
M  V30 25 1 10 23
M  V30 26 1 10 24
M  V30 27 1 12 25
M  V30 28 1 15 26
M  V30 29 1 16 27
M  V30 30 1 18 28
M  V30 END BOND
M  V30 END CTAB
M  END
>  <Dataset>  (154) 
ChEMBL_Kinases

>  <Ligand_Instance>  (154) 
nan

>  <PDB_ID>  (154) 
nan

>  <Standardized_SMILES>  (154) 
Nc1ccc2c(-c3nc(N)ncc3I)c[nH]c2c1

>  <Name>  (154) 
nan

>  <Pocket>  (154) 
nan

>  <ATP_Site>  (154) 
nan

>  <Peripheral>  (154) 
nan

>  <Num_H_Atoms_ProtBoundConf>  (154) 
nan

>  <Num_Resolved_Atoms>  (154) 
nan

>  <Num_Not_Resolved_Atoms>  (154) 
nan

$$$$
CHEMBL1802965
     RDKit          3D

  0  0  0  0  0  0  0  0  0  0999 V3000
M  V30 BEGIN CTAB
M  V30 COUNTS 26 28 0 0 0
M  V30 BEGIN ATOM
M  V30 1 N -1.166665 -3.852165 2.368696 0
M  V30 2 C 0.083583 -3.149930 2.153690 0
M  V30 3 N 1.238091 -3.450795 2.819419 0
M  V30 4 C 2.360923 -2.736263 2.533654 0
M  V30 5 C 2.361715 -1.733250 1.604160 0
M  V30 6 I 3.979385 -0.543327 1.036277 0
M  V30 7 C 1.182375 -1.422375 0.921890 0
M  V30 8 C 0.905175 -0.402463 -0.113217 0
M  V30 9 C 1.393968 -0.212424 -1.378086 0
M  V30 10 N 0.775661 0.849258 -1.916922 0
M  V30 11 C -0.094895 1.325012 -1.003461 0
M  V30 12 C -0.957094 2.434928 -1.120974 0
M  V30 13 C -1.720756 2.647612 0.028322 0
M  V30 14 C -1.751977 1.955286 1.218115 0
M  V30 15 Br -2.866796 2.415240 2.689081 0
M  V30 16 C -0.876041 0.895725 1.237068 0
M  V30 17 C -0.066950 0.566445 0.188052 0
M  V30 18 N 0.077296 -2.172889 1.247244 0
M  V30 19 H -1.161868 -4.844841 2.023478 0
M  V30 20 H -2.085416 -3.615099 2.784469 0
M  V30 21 H 3.303517 -2.923273 3.023464 0
M  V30 22 H 2.150507 -0.859273 -1.798158 0
M  V30 23 H 0.937761 1.243233 -2.884765 0
M  V30 24 H -1.033452 3.060598 -1.995781 0
M  V30 25 H -2.380077 3.522335 -0.083457 0
M  V30 26 H -0.812011 0.265767 2.135888 0
M  V30 END ATOM
M  V30 BEGIN BOND
M  V30 1 1 1 2
M  V30 2 2 2 3
M  V30 3 1 3 4
M  V30 4 2 4 5
M  V30 5 1 5 6
M  V30 6 1 5 7
M  V30 7 1 7 8
M  V30 8 2 8 9
M  V30 9 1 9 10
M  V30 10 1 10 11
M  V30 11 2 11 12
M  V30 12 1 12 13
M  V30 13 2 13 14
M  V30 14 1 14 15
M  V30 15 1 14 16
M  V30 16 2 16 17
M  V30 17 2 7 18
M  V30 18 1 18 2
M  V30 19 1 17 8
M  V30 20 1 17 11
M  V30 21 1 1 19
M  V30 22 1 1 20
M  V30 23 1 4 21
M  V30 24 1 9 22
M  V30 25 1 10 23
M  V30 26 1 12 24
M  V30 27 1 13 25
M  V30 28 1 16 26
M  V30 END BOND
M  V30 END CTAB
M  END
>  <Dataset>  (155) 
ChEMBL_Kinases

>  <Ligand_Instance>  (155) 
nan

>  <PDB_ID>  (155) 
nan

>  <Standardized_SMILES>  (155) 
Nc1ncc(I)c(-c2c[nH]c3ccc(Br)cc23)n1

>  <Name>  (155) 
nan

>  <Pocket>  (155) 
nan

>  <ATP_Site>  (155) 
nan

>  <Peripheral>  (155) 
nan

>  <Num_H_Atoms_ProtBoundConf>  (155) 
nan

>  <Num_Resolved_Atoms>  (155) 
nan

>  <Num_Not_Resolved_Atoms>  (155) 
nan

$$$$
CHEMBL4780266
     RDKit          3D

  0  0  0  0  0  0  0  0  0  0999 V3000
M  V30 BEGIN CTAB
M  V30 COUNTS 62 65 0 0 0
M  V30 BEGIN ATOM
M  V30 1 C 0.953265 -4.507627 -3.497659 0
M  V30 2 C 1.447132 -3.629467 -2.418109 0
M  V30 3 N 0.860855 -2.566685 -1.841983 0
M  V30 4 C 1.647106 -2.011473 -0.868151 0
M  V30 5 C 1.112517 -0.875686 -0.139713 0
M  V30 6 C 1.569228 0.347639 0.032248 0
M  V30 7 C 2.814550 0.823786 -0.543184 0
M  V30 8 O 3.581607 0.162662 -1.280905 0
M  V30 9 N 2.957510 2.162215 -0.098264 0
M  V30 10 C 1.835821 2.482590 0.716442 0
M  V30 11 C 1.515090 3.660185 1.381215 0
M  V30 12 C 0.343341 3.760648 2.139297 0
M  V30 13 C -0.529875 2.679313 2.244558 0
M  V30 14 C -1.732240 2.853613 3.052219 0
M  V30 15 O -1.891547 3.947799 3.617184 0
M  V30 16 N -2.683698 1.804712 3.183518 0
M  V30 17 C -3.919168 1.820071 3.943635 0 CFG=2
M  V30 18 C -3.859676 0.739116 4.987555 0
M  V30 19 C -5.097378 1.618122 3.013929 0
M  V30 20 C -5.010897 0.323413 2.294796 0
M  V30 21 C -5.531166 -0.862866 2.740006 0
M  V30 22 C -5.369323 -1.991295 1.952332 0
M  V30 23 C -4.695893 -1.921481 0.740127 0
M  V30 24 F -4.528419 -3.009339 -0.040788 0
M  V30 25 C -4.171317 -0.729520 0.289254 0
M  V30 26 C -4.331344 0.397206 1.073213 0
M  V30 27 C -0.184067 1.529417 1.575615 0
M  V30 28 C 0.968166 1.415387 0.824219 0
M  V30 29 C 2.748386 -2.794245 -0.877918 0
M  V30 30 C 3.885856 -2.612991 0.046015 0
M  V30 31 C 2.672708 -3.792970 -1.806851 0
M  V30 32 N 3.678840 -4.772251 -2.058148 0
M  V30 33 C 4.531481 -4.257931 -3.070922 0
M  V30 34 O 4.644941 -3.210174 -3.790218 0
M  V30 35 C 5.734146 -4.875577 -3.696730 0
M  V30 36 Br 6.421539 -3.642053 -5.004614 0
M  V30 37 H 1.817758 -4.793046 -4.126101 0
M  V30 38 H 0.224566 -3.989983 -4.183395 0
M  V30 39 H 0.488046 -5.442126 -3.124842 0
M  V30 40 H -0.105270 -2.284127 -2.187647 0
M  V30 41 H 0.147421 -1.072769 0.365138 0
M  V30 42 H 3.786471 2.727408 -0.381292 0
M  V30 43 H 2.161410 4.529410 1.330369 0
M  V30 44 H 0.146723 4.710194 2.637087 0
M  V30 45 H -2.565817 0.879845 2.716240 0
M  V30 46 H -4.030014 2.808064 4.471985 0
M  V30 47 H -4.848794 0.584351 5.464822 0
M  V30 48 H -3.471353 -0.190602 4.515842 0
M  V30 49 H -3.157749 1.044579 5.781473 0
M  V30 50 H -6.009201 1.638764 3.656449 0
M  V30 51 H -5.177585 2.488215 2.332482 0
M  V30 52 H -6.046945 -0.871524 3.687129 0
M  V30 53 H -5.769287 -2.946202 2.277844 0
M  V30 54 H -3.637071 -0.656932 -0.663547 0
M  V30 55 H -3.896415 1.321940 0.672567 0
M  V30 56 H -0.847162 0.680405 1.644573 0
M  V30 57 H 4.836927 -2.497329 -0.511437 0
M  V30 58 H 3.769610 -1.761129 0.730766 0
M  V30 59 H 4.018711 -3.545085 0.663586 0
M  V30 60 H 3.960957 -5.719821 -1.728417 0
M  V30 61 H 5.498598 -5.824480 -4.223338 0
M  V30 62 H 6.516206 -5.104520 -2.947847 0
M  V30 END ATOM
M  V30 BEGIN BOND
M  V30 1 1 1 2
M  V30 2 1 2 3
M  V30 3 1 3 4
M  V30 4 1 4 5
M  V30 5 2 5 6
M  V30 6 1 6 7
M  V30 7 2 7 8
M  V30 8 1 7 9
M  V30 9 1 9 10
M  V30 10 2 10 11
M  V30 11 1 11 12
M  V30 12 2 12 13
M  V30 13 1 13 14
M  V30 14 2 14 15
M  V30 15 1 14 16
M  V30 16 1 16 17
M  V30 17 1 17 18
M  V30 18 1 17 19
M  V30 19 1 19 20
M  V30 20 2 20 21
M  V30 21 1 21 22
M  V30 22 2 22 23
M  V30 23 1 23 24
M  V30 24 1 23 25
M  V30 25 2 25 26
M  V30 26 1 13 27
M  V30 27 2 27 28
M  V30 28 2 4 29
M  V30 29 1 29 30
M  V30 30 1 29 31
M  V30 31 1 31 32
M  V30 32 1 32 33
M  V30 33 2 33 34
M  V30 34 1 33 35
M  V30 35 1 35 36
M  V30 36 2 31 2
M  V30 37 1 28 6
M  V30 38 1 28 10
M  V30 39 1 26 20
M  V30 40 1 1 37
M  V30 41 1 1 38
M  V30 42 1 1 39
M  V30 43 1 3 40
M  V30 44 1 5 41
M  V30 45 1 9 42
M  V30 46 1 11 43
M  V30 47 1 12 44
M  V30 48 1 16 45
M  V30 49 1 17 46 CFG=1
M  V30 50 1 18 47
M  V30 51 1 18 48
M  V30 52 1 18 49
M  V30 53 1 19 50
M  V30 54 1 19 51
M  V30 55 1 21 52
M  V30 56 1 22 53
M  V30 57 1 25 54
M  V30 58 1 26 55
M  V30 59 1 27 56
M  V30 60 1 30 57
M  V30 61 1 30 58
M  V30 62 1 30 59
M  V30 63 1 32 60
M  V30 64 1 35 61
M  V30 65 1 35 62
M  V30 END BOND
M  V30 END CTAB
M  END
>  <Dataset>  (156) 
ChEMBL_Kinases

>  <Ligand_Instance>  (156) 
nan

>  <PDB_ID>  (156) 
nan

>  <Standardized_SMILES>  (156) 
Cc1[nH]c(/C=C2\C(=O)Nc3ccc(C(=O)N[C@H](C)Cc4ccc(F)cc4)cc32)c(C)c1NC(=O)CBr

>  <Name>  (156) 
nan

>  <Pocket>  (156) 
nan

>  <ATP_Site>  (156) 
nan

>  <Peripheral>  (156) 
nan

>  <Num_H_Atoms_ProtBoundConf>  (156) 
nan

>  <Num_Resolved_Atoms>  (156) 
nan

>  <Num_Not_Resolved_Atoms>  (156) 
nan

$$$$
CHEMBL4780269
     RDKit          3D

  0  0  0  0  0  0  0  0  0  0999 V3000
M  V30 BEGIN CTAB
M  V30 COUNTS 42 44 0 0 0
M  V30 BEGIN ATOM
M  V30 1 C 0.625947 -3.226625 3.075629 0
M  V30 2 O -0.325824 -3.548921 2.091000 0
M  V30 3 C -0.903834 -2.534393 1.366526 0
M  V30 4 C -0.619214 -1.194406 1.531354 0
M  V30 5 C -1.275713 -0.280681 0.733479 0
M  V30 6 N -0.920586 1.078768 0.971751 0
M  V30 7 C 0.167993 1.577908 0.207531 0
M  V30 8 O 0.806862 0.882050 -0.662492 0
M  V30 9 C 1.081299 2.678416 -0.145829 0 CFG=2
M  V30 10 N 1.450754 2.424851 -1.554197 0
M  V30 11 C 2.359407 2.663365 0.620765 0
M  V30 12 C 3.555921 2.860675 -0.092327 0
M  V30 13 C 4.829546 2.880238 0.427396 0
M  V30 14 C 4.974952 2.691550 1.768307 0
M  V30 15 C 3.854208 2.491930 2.536004 0
M  V30 16 C 2.625829 2.484955 1.955501 0
M  V30 17 Cl 1.273494 2.233769 2.998146 0
M  V30 18 C -2.209028 -0.597359 -0.232390 0
M  V30 19 C -2.495391 -1.938525 -0.398983 0
M  V30 20 C -1.847620 -2.871761 0.391649 0
M  V30 21 C -2.169769 -4.288423 0.193900 0
M  V30 22 C -3.319747 -5.033764 0.034602 0
M  V30 23 N -2.983029 -6.329820 -0.110824 0
M  V30 24 N -1.662983 -6.429136 -0.049069 0
M  V30 25 C -1.135254 -5.213509 0.134836 0
M  V30 26 H 0.710748 -4.124098 3.726646 0
M  V30 27 H 1.628355 -3.047703 2.610712 0
M  V30 28 H 0.280204 -2.372197 3.684493 0
M  V30 29 H 0.106951 -0.904681 2.278314 0
M  V30 30 H -1.159343 1.955341 1.518909 0
M  V30 31 H 0.619396 3.684100 -0.140052 0
M  V30 32 H 1.722128 3.325502 -2.014577 0
M  V30 33 H 0.522247 2.177840 -2.021171 0
M  V30 34 H 3.530122 3.019243 -1.178187 0
M  V30 35 H 5.701015 3.037431 -0.181968 0
M  V30 36 H 5.953658 2.700491 2.208726 0
M  V30 37 H 3.983392 2.345923 3.581212 0
M  V30 38 H -2.657857 0.199743 -0.795793 0
M  V30 39 H -3.220266 -2.232997 -1.144254 0
M  V30 40 H -4.262969 -4.469166 0.052992 0
M  V30 41 H -1.261295 -7.387532 -0.148055 0
M  V30 42 H -0.069814 -5.160935 0.201501 0
M  V30 END ATOM
M  V30 BEGIN BOND
M  V30 1 1 1 2
M  V30 2 1 2 3
M  V30 3 2 3 4
M  V30 4 1 4 5
M  V30 5 1 5 6
M  V30 6 1 6 7
M  V30 7 2 7 8
M  V30 8 1 7 9
M  V30 9 1 9 10
M  V30 10 1 9 11
M  V30 11 2 11 12
M  V30 12 1 12 13
M  V30 13 2 13 14
M  V30 14 1 14 15
M  V30 15 2 15 16
M  V30 16 1 16 17
M  V30 17 2 5 18
M  V30 18 1 18 19
M  V30 19 2 19 20
M  V30 20 1 20 21
M  V30 21 1 21 22
M  V30 22 2 22 23
M  V30 23 1 23 24
M  V30 24 1 24 25
M  V30 25 1 20 3
M  V30 26 2 25 21
M  V30 27 1 16 11
M  V30 28 1 1 26
M  V30 29 1 1 27
M  V30 30 1 1 28
M  V30 31 1 4 29
M  V30 32 1 6 30
M  V30 33 1 9 31 CFG=3
M  V30 34 1 10 32
M  V30 35 1 10 33
M  V30 36 1 12 34
M  V30 37 1 13 35
M  V30 38 1 14 36
M  V30 39 1 15 37
M  V30 40 1 18 38
M  V30 41 1 19 39
M  V30 42 1 22 40
M  V30 43 1 24 41
M  V30 44 1 25 42
M  V30 END BOND
M  V30 END CTAB
M  END
>  <Dataset>  (157) 
ChEMBL_Kinases

>  <Ligand_Instance>  (157) 
nan

>  <PDB_ID>  (157) 
nan

>  <Standardized_SMILES>  (157) 
COc1cc(NC(=O)[C@H](N)c2ccccc2Cl)ccc1-c1cn[nH]c1

>  <Name>  (157) 
nan

>  <Pocket>  (157) 
nan

>  <ATP_Site>  (157) 
nan

>  <Peripheral>  (157) 
nan

>  <Num_H_Atoms_ProtBoundConf>  (157) 
nan

>  <Num_Resolved_Atoms>  (157) 
nan

>  <Num_Not_Resolved_Atoms>  (157) 
nan

$$$$
CHEMBL1794069
     RDKit          3D

  0  0  0  0  0  0  0  0  0  0999 V3000
M  V30 BEGIN CTAB
M  V30 COUNTS 65 69 0 0 0
M  V30 BEGIN ATOM
M  V30 1 C 2.872882 -0.608947 5.097103 0
M  V30 2 C 1.740924 -0.439122 4.074720 0 CFG=1
M  V30 3 O 1.528636 -1.685533 3.505820 0
M  V30 4 C 1.753580 -2.010647 2.175031 0
M  V30 5 C 2.209829 -1.243764 1.151840 0
M  V30 6 C 2.354976 -1.747282 -0.052028 0
M  V30 7 N 2.836092 -1.040455 -1.251978 0
M  V30 8 C 4.014807 -1.140579 -1.873693 0
M  V30 9 N 4.024371 -0.309849 -2.931229 0
M  V30 10 C 2.829512 0.344953 -3.001330 0
M  V30 11 C 2.310542 1.287488 -3.864864 0
M  V30 12 C 1.006895 1.751047 -3.624106 0
M  V30 13 C 0.237360 1.290301 -2.552536 0
M  V30 14 O -0.928928 1.915203 -2.602385 0
M  V30 15 C -2.121173 2.018816 -1.985194 0
M  V30 16 C -3.021253 0.828762 -1.887283 0
M  V30 17 C -3.369640 0.312550 -3.267957 0
M  V30 18 C -4.002168 -1.045227 -3.237081 0
M  V30 19 N -3.274903 -2.018108 -2.450272 0
M  V30 20 C -2.826378 -3.148233 -3.253243 0
M  V30 21 C -2.093098 -1.413206 -1.855003 0
M  V30 22 C -2.609442 -0.270557 -0.992659 0
M  V30 23 C 0.863728 0.353946 -1.764598 0
M  V30 24 C 2.126628 -0.134781 -1.947803 0
M  V30 25 S 1.858935 -3.413406 0.082226 0
M  V30 26 C 1.460358 -3.336739 1.853463 0
M  V30 27 C 0.957399 -4.508405 2.596997 0
M  V30 28 N 0.706430 -4.252146 3.953364 0
M  V30 29 O 0.794312 -5.587387 2.018739 0
M  V30 30 C 0.537102 0.139708 4.742632 0
M  V30 31 C -0.475656 -0.591339 5.335856 0
M  V30 32 C -1.550234 0.036047 5.929134 0
M  V30 33 C -1.660001 1.409528 5.956017 0
M  V30 34 C -0.666261 2.158753 5.373130 0
M  V30 35 C 0.397630 1.518910 4.786215 0
M  V30 36 Cl 1.650057 2.524709 4.050053 0
M  V30 37 H 3.060007 -1.681425 5.326409 0
M  V30 38 H 2.626541 -0.133616 6.059376 0
M  V30 39 H 3.848996 -0.230507 4.684356 0
M  V30 40 H 2.112827 0.265029 3.332842 0
M  V30 41 H 2.451257 -0.188427 1.373719 0
M  V30 42 H 4.804344 -1.812662 -1.524340 0
M  V30 43 H 2.981983 1.576233 -4.656472 0
M  V30 44 H 0.777088 2.487425 -4.410189 0
M  V30 45 H -2.060122 2.495506 -0.943517 0
M  V30 46 H -2.715996 2.829903 -2.533183 0
M  V30 47 H -4.015909 1.217301 -1.463074 0
M  V30 48 H -2.512805 0.331378 -3.942777 0
M  V30 49 H -4.132967 1.005140 -3.702188 0
M  V30 50 H -5.081962 -1.001388 -2.925963 0
M  V30 51 H -4.024383 -1.428034 -4.281314 0
M  V30 52 H -3.561247 -3.960635 -3.324343 0
M  V30 53 H -2.513445 -2.746208 -4.244618 0
M  V30 54 H -1.936841 -3.571824 -2.739249 0
M  V30 55 H -1.541637 -0.959728 -2.697719 0
M  V30 56 H -1.531684 -2.158771 -1.292361 0
M  V30 57 H -3.538463 -0.694464 -0.492622 0
M  V30 58 H -1.948458 -0.012694 -0.152261 0
M  V30 59 H 0.249835 0.032341 -0.958417 0
M  V30 60 H 1.180056 -4.303958 4.904246 0
M  V30 61 H -0.175373 -3.881001 4.416220 0
M  V30 62 H -0.374708 -1.659213 5.306068 0
M  V30 63 H -2.341806 -0.548291 6.393133 0
M  V30 64 H -2.501010 1.930498 6.419549 0
M  V30 65 H -0.739032 3.249277 5.386382 0
M  V30 END ATOM
M  V30 BEGIN BOND
M  V30 1 1 1 2
M  V30 2 1 2 3
M  V30 3 1 3 4
M  V30 4 1 4 5
M  V30 5 2 5 6
M  V30 6 1 6 7
M  V30 7 1 7 8
M  V30 8 2 8 9
M  V30 9 1 9 10
M  V30 10 2 10 11
M  V30 11 1 11 12
M  V30 12 2 12 13
M  V30 13 1 13 14
M  V30 14 1 14 15
M  V30 15 1 15 16
M  V30 16 1 16 17
M  V30 17 1 17 18
M  V30 18 1 18 19
M  V30 19 1 19 20
M  V30 20 1 19 21
M  V30 21 1 21 22
M  V30 22 1 13 23
M  V30 23 2 23 24
M  V30 24 1 6 25
M  V30 25 1 25 26
M  V30 26 1 26 27
M  V30 27 1 27 28
M  V30 28 2 27 29
M  V30 29 1 2 30
M  V30 30 2 30 31
M  V30 31 1 31 32
M  V30 32 2 32 33
M  V30 33 1 33 34
M  V30 34 2 34 35
M  V30 35 1 35 36
M  V30 36 2 26 4
M  V30 37 1 35 30
M  V30 38 1 24 7
M  V30 39 1 24 10
M  V30 40 1 22 16
M  V30 41 1 1 37
M  V30 42 1 1 38
M  V30 43 1 1 39
M  V30 44 1 2 40 CFG=3
M  V30 45 1 5 41
M  V30 46 1 8 42
M  V30 47 1 11 43
M  V30 48 1 12 44
M  V30 49 1 15 45
M  V30 50 1 15 46
M  V30 51 1 16 47
M  V30 52 1 17 48
M  V30 53 1 17 49
M  V30 54 1 18 50
M  V30 55 1 18 51
M  V30 56 1 20 52
M  V30 57 1 20 53
M  V30 58 1 20 54
M  V30 59 1 21 55
M  V30 60 1 21 56
M  V30 61 1 22 57
M  V30 62 1 22 58
M  V30 63 1 23 59
M  V30 64 1 28 60
M  V30 65 1 28 61
M  V30 66 1 31 62
M  V30 67 1 32 63
M  V30 68 1 33 64
M  V30 69 1 34 65
M  V30 END BOND
M  V30 END CTAB
M  END
>  <Dataset>  (158) 
ChEMBL_Kinases

>  <Ligand_Instance>  (158) 
nan

>  <PDB_ID>  (158) 
nan

>  <Standardized_SMILES>  (158) 
C[C@@H](Oc1cc(-n2cnc3ccc(OCC4CCN(C)CC4)cc32)sc1C(N)=O)c1ccccc1Cl

>  <Name>  (158) 
GSK-571989A

>  <Pocket>  (158) 
nan

>  <ATP_Site>  (158) 
nan

>  <Peripheral>  (158) 
nan

>  <Num_H_Atoms_ProtBoundConf>  (158) 
nan

>  <Num_Resolved_Atoms>  (158) 
nan

>  <Num_Not_Resolved_Atoms>  (158) 
nan

$$$$
CHEMBL1794068
     RDKit          3D

  0  0  0  0  0  0  0  0  0  0999 V3000
M  V30 BEGIN CTAB
M  V30 COUNTS 68 72 0 0 0
M  V30 BEGIN ATOM
M  V30 1 C 5.203136 -2.623460 2.239402 0
M  V30 2 C 3.998793 -2.460665 1.326982 0 CFG=1
M  V30 3 O 3.290682 -1.310340 1.544712 0
M  V30 4 C 2.075254 -1.097584 2.079425 0
M  V30 5 C 1.907312 0.268267 2.025504 0
M  V30 6 C 0.729538 0.841251 2.509102 0
M  V30 7 N 0.132085 2.127235 2.657037 0
M  V30 8 C 0.795766 3.205579 3.057739 0
M  V30 9 N -0.067424 4.242784 3.079103 0
M  V30 10 C -1.272596 3.770306 2.681990 0
M  V30 11 C -2.510556 4.366532 2.515157 0
M  V30 12 C -3.594446 3.588355 2.080023 0
M  V30 13 C -3.463249 2.214793 1.806520 0
M  V30 14 O -4.685277 1.771172 1.413468 0
M  V30 15 C -5.069085 0.500932 1.026997 0
M  V30 16 C -4.395356 -0.047429 -0.194501 0
M  V30 17 C -4.670400 0.854191 -1.399739 0
M  V30 18 C -4.838303 0.071613 -2.659272 0
M  V30 19 N -3.961907 -1.066074 -2.787881 0
M  V30 20 C -2.603400 -0.740303 -3.104512 0
M  V30 21 C -4.082101 -1.972412 -1.665028 0
M  V30 22 C -4.981996 -1.403132 -0.585149 0
M  V30 23 C -2.208960 1.692074 1.994051 0
M  V30 24 C -1.149300 2.427186 2.413383 0
M  V30 25 S -0.222307 -0.573365 3.079556 0
M  V30 26 C 1.053836 -1.794435 2.613012 0
M  V30 27 C 0.919760 -3.166104 2.809125 0
M  V30 28 N 1.307483 -4.506378 2.770936 0
M  V30 29 O -0.175307 -3.567146 3.334904 0
M  V30 30 C 4.323908 -2.791670 -0.082720 0
M  V30 31 C 4.082384 -4.082797 -0.583495 0
M  V30 32 C 4.328739 -4.553389 -1.852540 0
M  V30 33 C 4.877680 -3.648804 -2.735692 0
M  V30 34 C 5.132409 -2.369916 -2.290199 0
M  V30 35 C 4.872182 -1.912143 -0.988706 0
M  V30 36 C 5.179876 -0.540058 -0.625225 0
M  V30 37 F 4.159009 0.257262 -0.230548 0
M  V30 38 F 6.277113 -0.457603 0.253852 0
M  V30 39 F 5.691492 0.091127 -1.765486 0
M  V30 40 H 5.912390 -3.303899 1.725665 0
M  V30 41 H 5.643144 -1.664052 2.570088 0
M  V30 42 H 4.935818 -3.130080 3.192211 0
M  V30 43 H 3.339150 -3.295432 1.646208 0
M  V30 44 H 2.454918 1.169699 1.688721 0
M  V30 45 H 1.831328 3.272062 3.323323 0
M  V30 46 H -2.540805 5.423067 2.743201 0
M  V30 47 H -4.472303 4.234971 2.011458 0
M  V30 48 H -6.184925 0.508461 0.834091 0
M  V30 49 H -4.946736 -0.181045 1.909284 0
M  V30 50 H -3.322055 -0.176889 -0.040692 0
M  V30 51 H -3.926798 1.664477 -1.464566 0
M  V30 52 H -5.650567 1.346563 -1.187272 0
M  V30 53 H -5.882202 -0.274136 -2.803589 0
M  V30 54 H -4.584002 0.759408 -3.517698 0
M  V30 55 H -1.978691 -0.825096 -2.179292 0
M  V30 56 H -2.450615 0.273299 -3.498301 0
M  V30 57 H -2.176934 -1.531580 -3.784423 0
M  V30 58 H -3.080445 -2.088865 -1.213248 0
M  V30 59 H -4.426334 -2.975438 -1.988704 0
M  V30 60 H -5.981447 -1.262005 -1.005677 0
M  V30 61 H -4.956933 -2.065034 0.297116 0
M  V30 62 H -2.173150 0.656718 1.783275 0
M  V30 63 H 1.819790 -5.085135 3.486059 0
M  V30 64 H 1.183151 -5.226222 2.023794 0
M  V30 65 H 3.643007 -4.822813 0.108343 0
M  V30 66 H 4.096626 -5.574722 -2.114306 0
M  V30 67 H 5.100104 -3.939505 -3.746680 0
M  V30 68 H 5.571831 -1.673092 -3.024910 0
M  V30 END ATOM
M  V30 BEGIN BOND
M  V30 1 1 1 2
M  V30 2 1 2 3
M  V30 3 1 3 4
M  V30 4 1 4 5
M  V30 5 2 5 6
M  V30 6 1 6 7
M  V30 7 1 7 8
M  V30 8 2 8 9
M  V30 9 1 9 10
M  V30 10 2 10 11
M  V30 11 1 11 12
M  V30 12 2 12 13
M  V30 13 1 13 14
M  V30 14 1 14 15
M  V30 15 1 15 16
M  V30 16 1 16 17
M  V30 17 1 17 18
M  V30 18 1 18 19
M  V30 19 1 19 20
M  V30 20 1 19 21
M  V30 21 1 21 22
M  V30 22 1 13 23
M  V30 23 2 23 24
M  V30 24 1 6 25
M  V30 25 1 25 26
M  V30 26 1 26 27
M  V30 27 1 27 28
M  V30 28 2 27 29
M  V30 29 1 2 30
M  V30 30 2 30 31
M  V30 31 1 31 32
M  V30 32 2 32 33
M  V30 33 1 33 34
M  V30 34 2 34 35
M  V30 35 1 35 36
M  V30 36 1 36 37
M  V30 37 1 36 38
M  V30 38 1 36 39
M  V30 39 2 26 4
M  V30 40 1 35 30
M  V30 41 1 24 7
M  V30 42 1 24 10
M  V30 43 1 22 16
M  V30 44 1 1 40
M  V30 45 1 1 41
M  V30 46 1 1 42
M  V30 47 1 2 43 CFG=1
M  V30 48 1 5 44
M  V30 49 1 8 45
M  V30 50 1 11 46
M  V30 51 1 12 47
M  V30 52 1 15 48
M  V30 53 1 15 49
M  V30 54 1 16 50
M  V30 55 1 17 51
M  V30 56 1 17 52
M  V30 57 1 18 53
M  V30 58 1 18 54
M  V30 59 1 20 55
M  V30 60 1 20 56
M  V30 61 1 20 57
M  V30 62 1 21 58
M  V30 63 1 21 59
M  V30 64 1 22 60
M  V30 65 1 22 61
M  V30 66 1 23 62
M  V30 67 1 28 63
M  V30 68 1 28 64
M  V30 69 1 31 65
M  V30 70 1 32 66
M  V30 71 1 33 67
M  V30 72 1 34 68
M  V30 END BOND
M  V30 END CTAB
M  END
>  <Dataset>  (159) 
ChEMBL_Kinases

>  <Ligand_Instance>  (159) 
nan

>  <PDB_ID>  (159) 
nan

>  <Standardized_SMILES>  (159) 
C[C@@H](Oc1cc(-n2cnc3ccc(OCC4CCN(C)CC4)cc32)sc1C(N)=O)c1ccccc1C(F)(F)F

>  <Name>  (159) 
GSK-326090A

>  <Pocket>  (159) 
nan

>  <ATP_Site>  (159) 
nan

>  <Peripheral>  (159) 
nan

>  <Num_H_Atoms_ProtBoundConf>  (159) 
nan

>  <Num_Resolved_Atoms>  (159) 
nan

>  <Num_Not_Resolved_Atoms>  (159) 
nan

$$$$
CHEMBL1794067
     RDKit          3D

  0  0  0  0  0  0  0  0  0  0999 V3000
M  V30 BEGIN CTAB
M  V30 COUNTS 55 58 0 0 0
M  V30 BEGIN ATOM
M  V30 1 C 0.270962 -3.851918 0.705571 0
M  V30 2 C 1.143634 -2.825315 0.095936 0 CFG=1
M  V30 3 O 2.010243 -2.357053 1.120743 0
M  V30 4 C 1.971457 -1.055174 1.578199 0
M  V30 5 C 1.280009 0.086674 1.324643 0
M  V30 6 C 1.509066 1.213713 1.982514 0
M  V30 7 N 0.782997 2.485242 1.736791 0
M  V30 8 C 1.400305 3.655131 1.653705 0
M  V30 9 N 0.509884 4.640613 1.429588 0
M  V30 10 C -0.719087 4.063382 1.369865 0
M  V30 11 C -2.013411 4.499426 1.173695 0
M  V30 12 C -3.062449 3.567736 1.179427 0
M  V30 13 C -2.846103 2.195938 1.378509 0
M  V30 14 O -4.061498 1.570882 1.327145 0
M  V30 15 C -4.405816 0.245110 1.446848 0
M  V30 16 C -3.863251 -0.702545 0.434230 0 CFG=1
M  V30 17 O -4.312150 -2.016058 0.706922 0
M  V30 18 C -4.370035 -0.410218 -0.965876 0
M  V30 19 O -4.022513 0.845121 -1.399936 0
M  V30 20 C -1.543935 1.799691 1.571193 0
M  V30 21 C -0.526829 2.715116 1.564166 0
M  V30 22 S 2.751934 0.878596 3.093073 0
M  V30 23 C 2.946612 -0.935472 2.595463 0
M  V30 24 C 4.001329 -1.585993 3.404536 0
M  V30 25 N 4.417252 -2.911212 3.358914 0
M  V30 26 O 4.751041 -1.127427 4.293334 0
M  V30 27 C 1.866719 -3.160950 -1.131643 0
M  V30 28 C 1.228306 -2.898435 -2.358079 0
M  V30 29 C 1.795311 -3.162829 -3.587001 0
M  V30 30 C 3.054895 -3.714111 -3.667794 0
M  V30 31 C 3.697743 -3.978990 -2.482359 0
M  V30 32 C 3.119214 -3.709711 -1.255643 0
M  V30 33 Cl 3.960741 -4.063161 0.208331 0
M  V30 34 H -0.404617 -3.304947 1.411263 0
M  V30 35 H -0.426257 -4.327502 -0.013705 0
M  V30 36 H 0.797168 -4.568227 1.371118 0
M  V30 37 H 0.508712 -1.931430 -0.146106 0
M  V30 38 H 0.544127 -0.034867 0.544577 0
M  V30 39 H 2.453774 3.923388 1.735259 0
M  V30 40 H -2.118724 5.562272 1.026273 0
M  V30 41 H -4.012408 4.102447 1.007694 0
M  V30 42 H -5.531198 0.192037 1.352349 0
M  V30 43 H -4.234143 -0.108876 2.497976 0
M  V30 44 H -2.771610 -0.652105 0.392131 0
M  V30 45 H -4.742563 -2.079147 1.598199 0
M  V30 46 H -5.484808 -0.575488 -0.986141 0
M  V30 47 H -3.946604 -1.174334 -1.648711 0
M  V30 48 H -4.144946 0.892882 -2.381221 0
M  V30 49 H -1.458644 0.741505 1.724639 0
M  V30 50 H 4.406829 -3.951304 3.354197 0
M  V30 51 H 4.157945 -3.925819 3.381747 0
M  V30 52 H 0.222955 -2.460033 -2.343294 0
M  V30 53 H 1.216532 -2.923204 -4.491938 0
M  V30 54 H 3.505742 -3.921484 -4.617472 0
M  V30 55 H 4.685243 -4.412495 -2.546598 0
M  V30 END ATOM
M  V30 BEGIN BOND
M  V30 1 1 1 2
M  V30 2 1 2 3
M  V30 3 1 3 4
M  V30 4 1 4 5
M  V30 5 2 5 6
M  V30 6 1 6 7
M  V30 7 1 7 8
M  V30 8 2 8 9
M  V30 9 1 9 10
M  V30 10 2 10 11
M  V30 11 1 11 12
M  V30 12 2 12 13
M  V30 13 1 13 14
M  V30 14 1 14 15
M  V30 15 1 15 16
M  V30 16 1 16 17
M  V30 17 1 16 18
M  V30 18 1 18 19
M  V30 19 1 13 20
M  V30 20 2 20 21
M  V30 21 1 6 22
M  V30 22 1 22 23
M  V30 23 1 23 24
M  V30 24 1 24 25
M  V30 25 2 24 26
M  V30 26 1 2 27
M  V30 27 2 27 28
M  V30 28 1 28 29
M  V30 29 2 29 30
M  V30 30 1 30 31
M  V30 31 2 31 32
M  V30 32 1 32 33
M  V30 33 2 23 4
M  V30 34 1 32 27
M  V30 35 1 21 7
M  V30 36 1 21 10
M  V30 37 1 1 34
M  V30 38 1 1 35
M  V30 39 1 1 36
M  V30 40 1 2 37 CFG=3
M  V30 41 1 5 38
M  V30 42 1 8 39
M  V30 43 1 11 40
M  V30 44 1 12 41
M  V30 45 1 15 42
M  V30 46 1 15 43
M  V30 47 1 16 44 CFG=3
M  V30 48 1 17 45
M  V30 49 1 18 46
M  V30 50 1 18 47
M  V30 51 1 19 48
M  V30 52 1 20 49
M  V30 53 1 25 50
M  V30 54 1 25 51
M  V30 55 1 28 52
M  V30 56 1 29 53
M  V30 57 1 30 54
M  V30 58 1 31 55
M  V30 END BOND
M  V30 END CTAB
M  END
>  <Dataset>  (160) 
ChEMBL_Kinases

>  <Ligand_Instance>  (160) 
nan

>  <PDB_ID>  (160) 
nan

>  <Standardized_SMILES>  (160) 
C[C@@H](Oc1cc(-n2cnc3ccc(OC[C@@H](O)CO)cc32)sc1C(N)=O)c1ccccc1Cl

>  <Name>  (160) 
GSK-978744A

>  <Pocket>  (160) 
nan

>  <ATP_Site>  (160) 
nan

>  <Peripheral>  (160) 
nan

>  <Num_H_Atoms_ProtBoundConf>  (160) 
nan

>  <Num_Resolved_Atoms>  (160) 
nan

>  <Num_Not_Resolved_Atoms>  (160) 
nan

$$$$
CHEMBL1794064
     RDKit          3D

  0  0  0  0  0  0  0  0  0  0999 V3000
M  V30 BEGIN CTAB
M  V30 COUNTS 46 48 0 0 0
M  V30 BEGIN ATOM
M  V30 1 C -2.155200 -2.581811 -0.284027 0
M  V30 2 C -2.386236 -1.094659 -0.171339 0
M  V30 3 N -1.120452 -0.420000 -0.165494 0
M  V30 4 C -0.476969 0.025505 -1.256959 0
M  V30 5 C -0.898499 -0.069225 -2.648399 0
M  V30 6 N -1.995098 -0.601117 -3.216626 0
M  V30 7 O -1.946438 -0.454795 -4.504449 0
M  V30 8 N -0.858179 0.159203 -4.861622 0
M  V30 9 C -0.168618 0.420395 -3.720370 0
M  V30 10 N 1.088361 1.090853 -3.715153 0
M  V30 11 N 0.677126 0.606174 -0.885699 0
M  V30 12 C 0.731897 0.508908 0.462126 0
M  V30 13 C 1.718870 0.954336 1.315730 0
M  V30 14 C 2.905337 1.629253 0.873250 0
M  V30 15 C 3.912960 2.192231 0.513879 0
M  V30 16 C 5.112390 2.884625 0.097808 0
M  V30 17 N 6.086056 3.020329 1.156883 0
M  V30 18 N 1.563336 0.746354 2.638823 0
M  V30 19 C 0.480181 0.122182 3.134662 0
M  V30 20 C -0.538416 -0.345636 2.336130 0
M  V30 21 O -1.709225 -0.995267 2.613379 0
M  V30 22 C -2.237167 -1.400136 3.824180 0
M  V30 23 C -1.455341 -2.389325 4.614530 0
M  V30 24 C -1.254718 -3.691287 3.822129 0
M  V30 25 N -0.529897 -3.314785 2.610662 0
M  V30 26 C -0.405833 -0.144204 0.955566 0
M  V30 27 H -2.373703 -2.978230 -1.292964 0
M  V30 28 H -1.067014 -2.813287 -0.092638 0
M  V30 29 H -2.802330 -3.159824 0.416860 0
M  V30 30 H -3.002500 -0.793736 0.693519 0
M  V30 31 H -3.002798 -0.827950 -1.073447 0
M  V30 32 H 2.021219 0.595013 -3.592848 0
M  V30 33 H 2.040924 0.636048 -3.596368 0
M  V30 34 H 4.845888 3.883015 -0.299757 0
M  V30 35 H 5.609009 2.301985 -0.708439 0
M  V30 36 H 6.682810 2.169901 1.288549 0
M  V30 37 H 6.698244 3.838205 0.983590 0
M  V30 38 H 0.318508 -0.054540 4.181292 0
M  V30 39 H -3.307350 -1.719377 3.750229 0
M  V30 40 H -2.298399 -0.469584 4.468191 0
M  V30 41 H -0.490157 -2.092306 4.992538 0
M  V30 42 H -2.038159 -2.734411 5.522456 0
M  V30 43 H -2.243507 -4.110261 3.550581 0
M  V30 44 H -0.713740 -4.429759 4.432201 0
M  V30 45 H -0.580781 -4.089988 1.889275 0
M  V30 46 H 0.451906 -3.055485 2.835480 0
M  V30 END ATOM
M  V30 BEGIN BOND
M  V30 1 1 1 2
M  V30 2 1 2 3
M  V30 3 1 3 4
M  V30 4 1 4 5
M  V30 5 2 5 6
M  V30 6 1 6 7
M  V30 7 1 7 8
M  V30 8 2 8 9
M  V30 9 1 9 10
M  V30 10 2 4 11
M  V30 11 1 11 12
M  V30 12 2 12 13
M  V30 13 1 13 14
M  V30 14 3 14 15
M  V30 15 1 15 16
M  V30 16 1 16 17
M  V30 17 1 13 18
M  V30 18 2 18 19
M  V30 19 1 19 20
M  V30 20 1 20 21
M  V30 21 1 21 22
M  V30 22 1 22 23
M  V30 23 1 23 24
M  V30 24 1 24 25
M  V30 25 2 20 26
M  V30 26 1 26 3
M  V30 27 1 9 5
M  V30 28 1 26 12
M  V30 29 1 1 27
M  V30 30 1 1 28
M  V30 31 1 1 29
M  V30 32 1 2 30
M  V30 33 1 2 31
M  V30 34 1 10 32
M  V30 35 1 10 33
M  V30 36 1 16 34
M  V30 37 1 16 35
M  V30 38 1 17 36
M  V30 39 1 17 37
M  V30 40 1 19 38
M  V30 41 1 22 39
M  V30 42 1 22 40
M  V30 43 1 23 41
M  V30 44 1 23 42
M  V30 45 1 24 43
M  V30 46 1 24 44
M  V30 47 1 25 45
M  V30 48 1 25 46
M  V30 END BOND
M  V30 END CTAB
M  END
>  <Dataset>  (161) 
ChEMBL_Kinases

>  <Ligand_Instance>  (161) 
nan

>  <PDB_ID>  (161) 
nan

>  <Standardized_SMILES>  (161) 
CCn1c(-c2nonc2N)nc2c(C#CCN)ncc(OCCCN)c21

>  <Name>  (161) 
GSK-561866B

>  <Pocket>  (161) 
nan

>  <ATP_Site>  (161) 
nan

>  <Peripheral>  (161) 
nan

>  <Num_H_Atoms_ProtBoundConf>  (161) 
nan

>  <Num_Resolved_Atoms>  (161) 
nan

>  <Num_Not_Resolved_Atoms>  (161) 
nan

$$$$
CHEMBL178785
     RDKit          3D

  0  0  0  0  0  0  0  0  0  0999 V3000
M  V30 BEGIN CTAB
M  V30 COUNTS 57 60 0 0 0
M  V30 BEGIN ATOM
M  V30 1 C 6.178390 -2.452031 3.891050 0
M  V30 2 N 6.439374 -3.485259 2.931400 0
M  V30 3 C 5.493450 -4.551625 2.946672 0
M  V30 4 S 6.740319 -2.832111 1.376875 0
M  V30 5 O 7.026298 -3.927175 0.385840 0
M  V30 6 O 7.856874 -1.834322 1.436559 0
M  V30 7 C 5.292996 -1.975006 0.891674 0
M  V30 8 C 4.288029 -2.631458 0.211016 0
M  V30 9 C 3.181784 -1.866273 -0.129655 0
M  V30 10 C 3.006319 -0.524600 0.152170 0
M  V30 11 N 1.831444 0.165016 -0.212185 0
M  V30 12 C 0.438624 -0.098513 -0.147037 0
M  V30 13 C -0.420871 0.779615 -0.770043 0
M  V30 14 C -1.777538 0.556503 -0.704360 0
M  V30 15 N -2.667073 1.456698 -1.353134 0
M  V30 16 C -4.085763 1.264344 -1.302643 0 CFG=1
M  V30 17 C -4.637470 1.358665 0.101690 0
M  V30 18 C -5.969628 0.680149 0.095065 0
M  V30 19 C -6.669005 0.694149 -1.220955 0 CFG=2
M  V30 20 N -6.610368 -0.632994 -1.851184 0
M  V30 21 C -6.311660 1.786573 -2.162073 0
M  V30 22 C -4.866814 2.209701 -2.152867 0
M  V30 23 N -2.210769 -0.520847 -0.027330 0
M  V30 24 C -1.367317 -1.378422 0.581912 0
M  V30 25 C -1.668588 -2.510367 1.310140 0
M  V30 26 Br -3.419024 -3.200588 1.659392 0
M  V30 27 C -0.438335 -2.988922 1.699586 0
M  V30 28 N 0.485223 -2.159960 1.208277 0
M  V30 29 N -0.037872 -1.163541 0.519738 0
M  V30 30 C 4.055506 0.084752 0.841359 0
M  V30 31 C 5.173557 -0.638357 1.199073 0
M  V30 32 H 6.171145 -2.833217 4.928410 0
M  V30 33 H 6.821091 -1.577996 3.792409 0
M  V30 34 H 5.133804 -2.078161 3.696901 0
M  V30 35 H 5.040380 -4.658577 3.965623 0
M  V30 36 H 4.638306 -4.274097 2.278894 0
M  V30 37 H 5.913494 -5.510938 2.576353 0
M  V30 38 H 4.387958 -3.671152 -0.023898 0
M  V30 39 H 2.433516 -2.456048 -0.681001 0
M  V30 40 H 2.145142 1.084445 -0.627342 0
M  V30 41 H -0.089878 1.632222 -1.306946 0
M  V30 42 H -2.305417 2.267637 -1.871676 0
M  V30 43 H -4.352436 0.223763 -1.645027 0
M  V30 44 H -3.887884 0.918859 0.786724 0
M  V30 45 H -4.761699 2.433527 0.355904 0
M  V30 46 H -6.583712 1.119737 0.923306 0
M  V30 47 H -5.795862 -0.383378 0.381574 0
M  V30 48 H -7.768271 0.808203 -0.979554 0
M  V30 49 H -7.206674 -1.315127 -1.308055 0
M  V30 50 H -6.993763 -0.610178 -2.807285 0
M  V30 51 H -7.002718 2.668558 -2.087482 0
M  V30 52 H -6.506839 1.376819 -3.197631 0
M  V30 53 H -4.795738 3.241598 -1.768448 0
M  V30 54 H -4.418303 2.224406 -3.176137 0
M  V30 55 H -0.305522 -3.882879 2.297738 0
M  V30 56 H 3.900461 1.139083 1.053144 0
M  V30 57 H 5.921340 -0.064654 1.728568 0
M  V30 END ATOM
M  V30 BEGIN BOND
M  V30 1 1 1 2
M  V30 2 1 2 3
M  V30 3 1 2 4
M  V30 4 2 4 5
M  V30 5 2 4 6
M  V30 6 1 4 7
M  V30 7 2 7 8
M  V30 8 1 8 9
M  V30 9 2 9 10
M  V30 10 1 10 11
M  V30 11 1 11 12
M  V30 12 2 12 13
M  V30 13 1 13 14
M  V30 14 1 14 15
M  V30 15 1 15 16
M  V30 16 1 16 17
M  V30 17 1 17 18
M  V30 18 1 18 19
M  V30 19 1 19 20
M  V30 20 1 19 21
M  V30 21 1 21 22
M  V30 22 2 14 23
M  V30 23 1 23 24
M  V30 24 2 24 25
M  V30 25 1 25 26
M  V30 26 1 25 27
M  V30 27 2 27 28
M  V30 28 1 28 29
M  V30 29 1 10 30
M  V30 30 2 30 31
M  V30 31 1 31 7
M  V30 32 1 29 12
M  V30 33 1 22 16
M  V30 34 1 29 24
M  V30 35 1 1 32
M  V30 36 1 1 33
M  V30 37 1 1 34
M  V30 38 1 3 35
M  V30 39 1 3 36
M  V30 40 1 3 37
M  V30 41 1 8 38
M  V30 42 1 9 39
M  V30 43 1 11 40
M  V30 44 1 13 41
M  V30 45 1 15 42
M  V30 46 1 16 43 CFG=3
M  V30 47 1 17 44
M  V30 48 1 17 45
M  V30 49 1 18 46
M  V30 50 1 18 47
M  V30 51 1 19 48 CFG=1
M  V30 52 1 20 49
M  V30 53 1 20 50
M  V30 54 1 21 51
M  V30 55 1 21 52
M  V30 56 1 22 53
M  V30 57 1 22 54
M  V30 58 1 27 55
M  V30 59 1 30 56
M  V30 60 1 31 57
M  V30 END BOND
M  V30 END CTAB
M  END
>  <Dataset>  (162) 
ChEMBL_Kinases

>  <Ligand_Instance>  (162) 
nan

>  <PDB_ID>  (162) 
nan

>  <Standardized_SMILES>  (162) 
CN(C)S(=O)(=O)c1ccc(Nc2cc(N[C@H]3CC[C@H](N)CC3)nc3c(Br)cnn23)cc1

>  <Name>  (162) 
nan

>  <Pocket>  (162) 
nan

>  <ATP_Site>  (162) 
nan

>  <Peripheral>  (162) 
nan

>  <Num_H_Atoms_ProtBoundConf>  (162) 
nan

>  <Num_Resolved_Atoms>  (162) 
nan

>  <Num_Not_Resolved_Atoms>  (162) 
nan

$$$$
CHEMBL178769
     RDKit          3D

  0  0  0  0  0  0  0  0  0  0999 V3000
M  V30 BEGIN CTAB
M  V30 COUNTS 57 60 0 0 0
M  V30 BEGIN ATOM
M  V30 1 C 4.302182 0.633251 5.012674 0
M  V30 2 N 4.403345 -0.782351 4.809461 0
M  V30 3 C 4.849299 -1.522575 5.949397 0
M  V30 4 S 5.239565 -1.226863 3.376642 0
M  V30 5 O 6.653886 -0.754468 3.412444 0
M  V30 6 O 5.222041 -2.743394 3.321223 0
M  V30 7 C 4.468570 -0.653878 1.942744 0
M  V30 8 C 4.974423 0.193670 0.978604 0
M  V30 9 C 4.223333 0.560781 -0.118938 0
M  V30 10 C 2.935109 0.090655 -0.290322 0
M  V30 11 N 2.142903 0.471147 -1.434215 0
M  V30 12 C 0.818096 -0.067782 -1.549991 0
M  V30 13 C -0.156917 0.691446 -0.942224 0
M  V30 14 C -1.489536 0.255574 -0.995317 0
M  V30 15 N -2.620198 0.906633 -0.429642 0
M  V30 16 C -3.997271 0.535667 -0.433545 0 CFG=1
M  V30 17 C -4.459590 0.426309 -1.875810 0
M  V30 18 C -5.683596 -0.444943 -1.991193 0
M  V30 19 C -5.488172 -1.852114 -1.531796 0 CFG=2
M  V30 20 N -6.820600 -2.393877 -1.221497 0
M  V30 21 C -4.665819 -1.896262 -0.303534 0
M  V30 22 C -4.410070 -0.607464 0.398678 0
M  V30 23 N -1.635294 -0.904402 -1.668244 0
M  V30 24 C -0.677621 -1.609591 -2.240861 0
M  V30 25 C -0.690374 -2.810103 -2.959169 0
M  V30 26 Br -2.216171 -3.872130 -3.357847 0
M  V30 27 C 0.612773 -3.079794 -3.324730 0
M  V30 28 N 1.365084 -2.077879 -2.841246 0
M  V30 29 N 0.597610 -1.215427 -2.203780 0
M  V30 30 C 2.418863 -0.758105 0.668291 0
M  V30 31 C 3.178969 -1.130239 1.779987 0
M  V30 32 Cl 2.364618 -2.206774 2.884095 0
M  V30 33 H 5.186447 0.916334 5.654367 0
M  V30 34 H 3.375621 0.867085 5.591898 0
M  V30 35 H 4.293692 1.180369 4.064466 0
M  V30 36 H 3.955062 -2.056054 6.365478 0
M  V30 37 H 5.653906 -2.222433 5.657383 0
M  V30 38 H 5.258034 -0.812081 6.687647 0
M  V30 39 H 5.983835 0.524973 1.170192 0
M  V30 40 H 4.653631 1.221120 -0.844858 0
M  V30 41 H 2.576823 1.121755 -2.121553 0
M  V30 42 H 0.001291 1.620658 -0.409682 0
M  V30 43 H -2.291773 1.801939 0.053094 0
M  V30 44 H -4.559269 1.450657 -0.063909 0
M  V30 45 H -3.665154 -0.020093 -2.502486 0
M  V30 46 H -4.701062 1.413402 -2.316071 0
M  V30 47 H -6.035939 -0.475786 -3.041718 0
M  V30 48 H -6.464589 0.015965 -1.320238 0
M  V30 49 H -5.118111 -2.512433 -2.349625 0
M  V30 50 H -6.796910 -3.441580 -1.190778 0
M  V30 51 H -7.533695 -2.101652 -1.912129 0
M  V30 52 H -3.655886 -2.387639 -0.472358 0
M  V30 53 H -5.147049 -2.648696 0.396724 0
M  V30 54 H -5.344897 -0.354240 0.951045 0
M  V30 55 H -3.649120 -0.714380 1.218229 0
M  V30 56 H 0.920044 -3.949937 -3.894816 0
M  V30 57 H 1.407641 -1.105722 0.500449 0
M  V30 END ATOM
M  V30 BEGIN BOND
M  V30 1 1 1 2
M  V30 2 1 2 3
M  V30 3 1 2 4
M  V30 4 2 4 5
M  V30 5 2 4 6
M  V30 6 1 4 7
M  V30 7 2 7 8
M  V30 8 1 8 9
M  V30 9 2 9 10
M  V30 10 1 10 11
M  V30 11 1 11 12
M  V30 12 2 12 13
M  V30 13 1 13 14
M  V30 14 1 14 15
M  V30 15 1 15 16
M  V30 16 1 16 17
M  V30 17 1 17 18
M  V30 18 1 18 19
M  V30 19 1 19 20
M  V30 20 1 19 21
M  V30 21 1 21 22
M  V30 22 2 14 23
M  V30 23 1 23 24
M  V30 24 2 24 25
M  V30 25 1 25 26
M  V30 26 1 25 27
M  V30 27 2 27 28
M  V30 28 1 28 29
M  V30 29 1 10 30
M  V30 30 2 30 31
M  V30 31 1 31 32
M  V30 32 1 31 7
M  V30 33 1 29 12
M  V30 34 1 22 16
M  V30 35 1 29 24
M  V30 36 1 1 33
M  V30 37 1 1 34
M  V30 38 1 1 35
M  V30 39 1 3 36
M  V30 40 1 3 37
M  V30 41 1 3 38
M  V30 42 1 8 39
M  V30 43 1 9 40
M  V30 44 1 11 41
M  V30 45 1 13 42
M  V30 46 1 15 43
M  V30 47 1 16 44 CFG=1
M  V30 48 1 17 45
M  V30 49 1 17 46
M  V30 50 1 18 47
M  V30 51 1 18 48
M  V30 52 1 19 49 CFG=3
M  V30 53 1 20 50
M  V30 54 1 20 51
M  V30 55 1 21 52
M  V30 56 1 21 53
M  V30 57 1 22 54
M  V30 58 1 22 55
M  V30 59 1 27 56
M  V30 60 1 30 57
M  V30 END BOND
M  V30 END CTAB
M  END
>  <Dataset>  (163) 
ChEMBL_Kinases

>  <Ligand_Instance>  (163) 
nan

>  <PDB_ID>  (163) 
nan

>  <Standardized_SMILES>  (163) 
CN(C)S(=O)(=O)c1ccc(Nc2cc(N[C@H]3CC[C@H](N)CC3)nc3c(Br)cnn23)cc1Cl

>  <Name>  (163) 
nan

>  <Pocket>  (163) 
nan

>  <ATP_Site>  (163) 
nan

>  <Peripheral>  (163) 
nan

>  <Num_H_Atoms_ProtBoundConf>  (163) 
nan

>  <Num_Resolved_Atoms>  (163) 
nan

>  <Num_Not_Resolved_Atoms>  (163) 
nan

$$$$
CHEMBL1407035
     RDKit          3D

  0  0  0  0  0  0  0  0  0  0999 V3000
M  V30 BEGIN CTAB
M  V30 COUNTS 47 50 0 0 0
M  V30 BEGIN ATOM
M  V30 1 C -0.436392 -3.097788 3.195131 0
M  V30 2 O 0.558839 -4.084717 3.085689 0
M  V30 3 C 1.730731 -3.952058 2.391896 0
M  V30 4 C 2.575803 -5.038868 2.407027 0
M  V30 5 C 3.763556 -4.960487 1.728262 0
M  V30 6 C 4.099911 -3.817475 1.047504 0
M  V30 7 C 3.300617 -2.704162 0.996029 0
M  V30 8 N 3.700125 -1.551912 0.277318 0
M  V30 9 C 3.025360 -0.318544 0.113343 0
M  V30 10 N 3.597185 0.651863 -0.619343 0
M  V30 11 C 3.057498 1.855653 -0.843347 0
M  V30 12 C 1.828182 2.139366 -0.291781 0
M  V30 13 N 1.235037 3.330591 -0.480253 0
M  V30 14 C 0.037123 3.648609 0.040074 0
M  V30 15 C -0.568154 2.666363 0.796172 0
M  V30 16 O -1.693409 2.954898 1.289399 0
M  V30 17 N 0.011822 1.467733 0.994998 0
M  V30 18 C -0.687172 0.516392 1.788798 0
M  V30 19 C -1.603945 -0.379515 1.039781 0
M  V30 20 C -2.677570 0.328438 0.306088 0
M  V30 21 C -3.899371 0.606003 0.869771 0
M  V30 22 C -4.952280 1.257554 0.263236 0
M  V30 23 C -4.722875 1.656263 -1.036760 0
M  V30 24 C -3.518060 1.419851 -1.691380 0
M  V30 25 C -2.499032 0.755832 -1.015821 0
M  V30 26 C 1.208323 1.171984 0.465895 0
M  V30 27 N 1.829637 -0.003737 0.632996 0
M  V30 28 C 2.120437 -2.832344 1.692358 0
M  V30 29 H 0.004943 -2.158295 3.572441 0
M  V30 30 H -1.245309 -3.444473 3.852126 0
M  V30 31 H -0.864562 -2.997087 2.155303 0
M  V30 32 H 2.335052 -5.946774 2.933505 0
M  V30 33 H 4.443469 -5.808893 1.729142 0
M  V30 34 H 5.068935 -3.827829 0.526050 0
M  V30 35 H 4.643366 -1.636148 -0.204135 0
M  V30 36 H 3.595829 2.581352 -1.451988 0
M  V30 37 H -0.411780 4.622967 -0.133993 0
M  V30 38 H -1.256275 1.022915 2.604523 0
M  V30 39 H 0.059028 -0.126991 2.299183 0
M  V30 40 H -1.114319 -1.075325 0.363158 0
M  V30 41 H -2.142856 -1.001463 1.813978 0
M  V30 42 H -4.029007 0.273256 1.888972 0
M  V30 43 H -5.881805 1.433400 0.785633 0
M  V30 44 H -5.510117 2.173651 -1.570295 0
M  V30 45 H -3.406331 1.756133 -2.700820 0
M  V30 46 H -1.540365 0.555782 -1.505173 0
M  V30 47 H 1.420267 -2.026236 1.720909 0
M  V30 END ATOM
M  V30 BEGIN BOND
M  V30 1 1 1 2
M  V30 2 1 2 3
M  V30 3 2 3 4
M  V30 4 1 4 5
M  V30 5 2 5 6
M  V30 6 1 6 7
M  V30 7 1 7 8
M  V30 8 1 8 9
M  V30 9 2 9 10
M  V30 10 1 10 11
M  V30 11 2 11 12
M  V30 12 1 12 13
M  V30 13 2 13 14
M  V30 14 1 14 15
M  V30 15 2 15 16
M  V30 16 1 15 17
M  V30 17 1 17 18
M  V30 18 1 18 19
M  V30 19 1 19 20
M  V30 20 2 20 21
M  V30 21 1 21 22
M  V30 22 2 22 23
M  V30 23 1 23 24
M  V30 24 2 24 25
M  V30 25 1 17 26
M  V30 26 2 26 27
M  V30 27 2 7 28
M  V30 28 1 28 3
M  V30 29 1 27 9
M  V30 30 1 26 12
M  V30 31 1 25 20
M  V30 32 1 1 29
M  V30 33 1 1 30
M  V30 34 1 1 31
M  V30 35 1 4 32
M  V30 36 1 5 33
M  V30 37 1 6 34
M  V30 38 1 8 35
M  V30 39 1 11 36
M  V30 40 1 14 37
M  V30 41 1 18 38
M  V30 42 1 18 39
M  V30 43 1 19 40
M  V30 44 1 19 41
M  V30 45 1 21 42
M  V30 46 1 22 43
M  V30 47 1 23 44
M  V30 48 1 24 45
M  V30 49 1 25 46
M  V30 50 1 28 47
M  V30 END BOND
M  V30 END CTAB
M  END
>  <Dataset>  (164) 
ChEMBL_Kinases

>  <Ligand_Instance>  (164) 
nan

>  <PDB_ID>  (164) 
nan

>  <Standardized_SMILES>  (164) 
COc1cccc(Nc2ncc3ncc(=O)n(CCc4ccccc4)c3n2)c1

>  <Name>  (164) 
nan

>  <Pocket>  (164) 
nan

>  <ATP_Site>  (164) 
nan

>  <Peripheral>  (164) 
nan

>  <Num_H_Atoms_ProtBoundConf>  (164) 
nan

>  <Num_Resolved_Atoms>  (164) 
nan

>  <Num_Not_Resolved_Atoms>  (164) 
nan

$$$$
CHEMBL4778676
     RDKit          3D

  0  0  0  0  0  0  0  0  0  0999 V3000
M  V30 BEGIN CTAB
M  V30 COUNTS 51 54 0 0 0
M  V30 BEGIN ATOM
M  V30 1 C 4.191409 -4.994310 4.160629 0
M  V30 2 C 5.458225 -4.588531 4.380039 0
M  V30 3 C 5.971928 -3.781054 3.312124 0
M  V30 4 O 7.155066 -3.363042 3.456555 0
M  V30 5 N 5.463528 -3.316124 2.082282 0
M  V30 6 C 6.314077 -2.514438 1.236826 0
M  V30 7 C 5.507057 -1.255781 1.040656 0
M  V30 8 C 4.278277 -1.717306 0.934635 0
M  V30 9 C 3.108875 -0.855685 0.727324 0
M  V30 10 C 3.293926 0.506715 0.617033 0
M  V30 11 C 2.153252 1.306485 0.419886 0
M  V30 12 C 0.850532 0.787919 0.331218 0
M  V30 13 C -0.123500 1.872774 0.112104 0
M  V30 14 C -0.652662 2.401764 1.463537 0
M  V30 15 C -1.339448 1.482632 -0.627002 0
M  V30 16 O -1.712467 1.823516 -1.764788 0
M  V30 17 N -2.283260 0.597591 -0.041483 0
M  V30 18 C -3.500150 0.098382 -0.571542 0
M  V30 19 C -4.759271 0.678883 -0.442483 0
M  V30 20 C -5.648575 -0.160587 -1.119412 0
M  V30 21 C -7.142302 -0.033059 -1.308384 0
M  V30 22 C -7.599379 1.408203 -1.553086 0
M  V30 23 C -7.866289 0.766787 -0.214683 0
M  V30 24 N -4.919983 -1.197750 -1.625237 0
M  V30 25 N -3.653580 -1.027606 -1.291652 0
M  V30 26 C 0.771931 -0.575142 0.452145 0
M  V30 27 N 1.858802 -1.342038 0.640737 0
M  V30 28 C 4.407041 -3.185412 1.066003 0
M  V30 29 H 3.372281 -4.924263 3.420160 0
M  V30 30 H 3.343414 -4.951800 3.448118 0
M  V30 31 H 5.003812 -5.193943 5.132018 0
M  V30 32 H 7.218587 -2.202095 1.761194 0
M  V30 33 H 6.519617 -2.990953 0.254081 0
M  V30 34 H 5.920235 -0.233567 1.006230 0
M  V30 35 H 4.283344 0.922287 0.682434 0
M  V30 36 H 2.422607 2.358885 0.346754 0
M  V30 37 H 0.355489 2.772679 -0.335937 0
M  V30 38 H -1.602687 1.929724 1.700856 0
M  V30 39 H 0.096708 2.062311 2.219096 0
M  V30 40 H -0.662597 3.503715 1.500416 0
M  V30 41 H -2.225647 0.172654 0.907467 0
M  V30 42 H -5.048279 1.575177 0.053044 0
M  V30 43 H -7.673137 -0.833747 -1.832821 0
M  V30 44 H -6.805988 2.195041 -1.603787 0
M  V30 45 H -8.471868 1.566026 -2.202385 0
M  V30 46 H -8.910231 0.477615 0.043399 0
M  V30 47 H -7.245883 1.132794 0.647789 0
M  V30 48 H -5.201235 -2.030033 -2.187047 0
M  V30 49 H -0.242457 -0.929290 0.371617 0
M  V30 50 H 3.477531 -3.657879 1.406171 0
M  V30 51 H 4.741028 -3.671832 0.111810 0
M  V30 END ATOM
M  V30 BEGIN BOND
M  V30 1 2 1 2
M  V30 2 1 2 3
M  V30 3 2 3 4
M  V30 4 1 3 5
M  V30 5 1 5 6
M  V30 6 1 6 7
M  V30 7 2 7 8
M  V30 8 1 8 9
M  V30 9 2 9 10
M  V30 10 1 10 11
M  V30 11 2 11 12
M  V30 12 1 12 13
M  V30 13 1 13 14
M  V30 14 1 13 15
M  V30 15 2 15 16
M  V30 16 1 15 17
M  V30 17 1 17 18
M  V30 18 1 18 19
M  V30 19 2 19 20
M  V30 20 1 20 21
M  V30 21 1 21 22
M  V30 22 1 22 23
M  V30 23 1 20 24
M  V30 24 1 24 25
M  V30 25 1 12 26
M  V30 26 2 26 27
M  V30 27 1 8 28
M  V30 28 1 28 5
M  V30 29 1 27 9
M  V30 30 2 25 18
M  V30 31 1 23 21
M  V30 32 1 1 29
M  V30 33 1 1 30
M  V30 34 1 2 31
M  V30 35 1 6 32
M  V30 36 1 6 33
M  V30 37 1 7 34
M  V30 38 1 10 35
M  V30 39 1 11 36
M  V30 40 1 13 37
M  V30 41 1 14 38
M  V30 42 1 14 39
M  V30 43 1 14 40
M  V30 44 1 17 41
M  V30 45 1 19 42
M  V30 46 1 21 43
M  V30 47 1 22 44
M  V30 48 1 22 45
M  V30 49 1 23 46
M  V30 50 1 23 47
M  V30 51 1 24 48
M  V30 52 1 26 49
M  V30 53 1 28 50
M  V30 54 1 28 51
M  V30 END BOND
M  V30 END CTAB
M  END
>  <Dataset>  (165) 
ChEMBL_Kinases

>  <Ligand_Instance>  (165) 
nan

>  <PDB_ID>  (165) 
nan

>  <Standardized_SMILES>  (165) 
C=CC(=O)N1CC=C(c2ccc(C(C)C(=O)Nc3cc(C4CC4)[nH]n3)cn2)C1

>  <Name>  (165) 
nan

>  <Pocket>  (165) 
nan

>  <ATP_Site>  (165) 
nan

>  <Peripheral>  (165) 
nan

>  <Num_H_Atoms_ProtBoundConf>  (165) 
nan

>  <Num_Resolved_Atoms>  (165) 
nan

>  <Num_Not_Resolved_Atoms>  (165) 
nan

$$$$
CHEMBL4780600
     RDKit          3D

  0  0  0  0  0  0  0  0  0  0999 V3000
M  V30 BEGIN CTAB
M  V30 COUNTS 136 140 0 0 0
M  V30 BEGIN ATOM
M  V30 1 C 6.075483 -0.157398 4.515782 0
M  V30 2 C 7.487655 -0.637680 4.504693 0
M  V30 3 N 8.158371 -1.044340 5.561596 0
M  V30 4 C 9.243492 -1.434668 5.655077 0
M  V30 5 S 9.791819 -1.325313 3.852680 0
M  V30 6 C 8.159826 -0.674206 3.323937 0
M  V30 7 C 7.954828 -0.359867 1.895113 0
M  V30 8 C 9.015047 -0.618821 1.048447 0
M  V30 9 C 8.866214 -0.317284 -0.313706 0
M  V30 10 C 7.714880 0.220559 -0.830115 0
M  V30 11 C 7.588489 0.533054 -2.287011 0 CFG=2
M  V30 12 C 8.084038 1.946363 -2.564515 0
M  V30 13 N 6.317508 0.233268 -2.842828 0
M  V30 14 C 5.566040 -0.577308 -3.777441 0
M  V30 15 O 6.375297 -1.353714 -4.351577 0
M  V30 16 C 4.151422 -0.181667 -3.693773 0 CFG=1
M  V30 17 C 4.022387 1.277128 -4.120939 0
M  V30 18 C 3.146934 1.174130 -5.351803 0 CFG=2
M  V30 19 O 1.802232 1.296370 -4.978249 0
M  V30 20 C 3.446870 -0.285290 -5.734359 0
M  V30 21 N 3.210098 -0.915812 -4.460170 0
M  V30 22 C 2.256789 -1.906822 -4.116569 0
M  V30 23 O 1.447535 -2.254937 -5.047437 0
M  V30 24 C 1.897570 -2.695415 -2.941488 0 CFG=1
M  V30 25 N 0.533618 -3.232253 -3.051709 0
M  V30 26 C -0.480298 -2.803236 -2.194813 0
M  V30 27 O -0.116737 -1.935241 -1.330207 0
M  V30 28 C -1.807249 -2.651081 -1.545665 0
M  V30 29 C -1.678962 -2.018946 -0.144974 0
M  V30 30 C -0.957196 -2.913972 0.796064 0
M  V30 31 C -0.577226 -2.455938 2.139007 0
M  V30 32 C -1.565835 -1.907234 3.091416 0
M  V30 33 C -2.083999 -0.576846 2.681587 0
M  V30 34 C -3.111882 -0.024761 3.666205 0
M  V30 35 C -3.556716 1.325704 3.171674 0
M  V30 36 C -2.482724 2.360662 3.091166 0
M  V30 37 C -2.950994 3.708137 2.611724 0
M  V30 38 N -3.489335 3.707385 1.262117 0
M  V30 39 C -2.409159 3.431146 0.312195 0
M  V30 40 C -3.962363 5.051635 0.923721 0
M  V30 41 C -5.214875 5.459265 1.626703 0
M  V30 42 C -6.403650 4.623446 1.232125 0
M  V30 43 O -6.184357 3.298939 1.499966 0
M  V30 44 N -6.676418 2.516811 0.489243 0
M  V30 45 C -6.784059 1.127859 0.260785 0
M  V30 46 O -6.335730 0.433908 1.205501 0
M  V30 47 C -7.331514 0.502066 -0.900566 0
M  V30 48 C -7.772834 1.158627 -2.021521 0
M  V30 49 C -8.249096 0.485715 -3.119362 0
M  V30 50 C -8.307444 -0.889869 -3.149297 0
M  V30 51 F -8.771163 -1.569858 -4.222693 0
M  V30 52 C -7.855829 -1.556893 -2.000951 0
M  V30 53 F -7.930191 -2.903934 -2.075712 0
M  V30 54 C -7.369318 -0.874941 -0.876586 0
M  V30 55 N -7.002052 -1.757129 0.163336 0
M  V30 56 C -7.657858 -2.525227 1.160438 0
M  V30 57 C -7.298658 -3.861406 0.935228 0
M  V30 58 C -7.811913 -4.861752 1.775124 0
M  V30 59 C -8.653080 -4.539701 2.803441 0
M  V30 60 I -9.468037 -5.977687 4.115071 0
M  V30 61 C -8.996943 -3.228509 3.014027 0
M  V30 62 C -8.504810 -2.237118 2.201612 0
M  V30 63 F -8.768820 -0.918765 2.291342 0
M  V30 64 C 2.839680 -3.853069 -2.691586 0
M  V30 65 C 4.264782 -3.406983 -2.463115 0
M  V30 66 C 2.430096 -4.702152 -1.508770 0
M  V30 67 C 2.888208 -4.799015 -3.878661 0
M  V30 68 C 6.683067 0.467000 0.013393 0
M  V30 69 C 6.826204 0.172860 1.351997 0
M  V30 70 H 5.624879 -0.275064 5.552330 0
M  V30 71 H 5.949406 0.895904 4.287083 0
M  V30 72 H 5.432929 -0.860633 3.910844 0
M  V30 73 H 9.733615 -1.763850 6.633118 0
M  V30 74 H 9.985115 -1.035383 1.285609 0
M  V30 75 H 9.668470 -0.499545 -1.013834 0
M  V30 76 H 8.333268 -0.123516 -2.833134 0
M  V30 77 H 7.299711 2.708474 -2.349873 0
M  V30 78 H 8.529826 2.040330 -3.567666 0
M  V30 79 H 8.906387 2.144084 -1.835375 0
M  V30 80 H 5.843956 0.978799 -2.241025 0
M  V30 81 H 3.791468 -0.188951 -2.615053 0
M  V30 82 H 4.997554 1.707600 -4.391067 0
M  V30 83 H 3.531442 1.911358 -3.381032 0
M  V30 84 H 3.403176 1.876462 -6.152656 0
M  V30 85 H 1.167862 0.923278 -5.609885 0
M  V30 86 H 4.519315 -0.325868 -6.021032 0
M  V30 87 H 2.769354 -0.608618 -6.527531 0
M  V30 88 H 1.925155 -2.035721 -2.073548 0
M  V30 89 H -0.120064 -3.900158 -3.571568 0
M  V30 90 H -2.277289 -3.645780 -1.411980 0
M  V30 91 H -2.510740 -2.064231 -2.147160 0
M  V30 92 H -2.774485 -1.934449 0.159715 0
M  V30 93 H -1.275667 -1.031316 -0.259570 0
M  V30 94 H -1.588404 -3.894494 0.917279 0
M  V30 95 H -0.023421 -3.342528 0.316462 0
M  V30 96 H -0.019846 -3.270331 2.707299 0
M  V30 97 H 0.282654 -1.708047 1.972139 0
M  V30 98 H -1.184279 -1.885031 4.140539 0
M  V30 99 H -2.448731 -2.618502 3.114106 0
M  V30 100 H -1.198968 0.143106 2.811153 0
M  V30 101 H -2.427557 -0.412423 1.686965 0
M  V30 102 H -2.701611 0.046183 4.695457 0
M  V30 103 H -3.979693 -0.689412 3.679717 0
M  V30 104 H -3.953105 1.219870 2.119435 0
M  V30 105 H -4.428455 1.683552 3.764752 0
M  V30 106 H -2.030379 2.514791 4.098774 0
M  V30 107 H -1.644745 1.990811 2.454138 0
M  V30 108 H -2.053552 4.379841 2.646346 0
M  V30 109 H -3.715982 4.134612 3.279420 0
M  V30 110 H -2.137716 2.381404 0.245804 0
M  V30 111 H -2.671026 3.830641 -0.703136 0
M  V30 112 H -1.529845 4.041087 0.660370 0
M  V30 113 H -3.115073 5.725868 1.108932 0
M  V30 114 H -4.132451 5.053822 -0.173619 0
M  V30 115 H -5.073145 5.482269 2.726313 0
M  V30 116 H -5.405524 6.543196 1.361579 0
M  V30 117 H -7.347867 5.013376 1.672922 0
M  V30 118 H -6.473836 4.727600 0.108708 0
M  V30 119 H -7.085056 3.056690 -0.339818 0
M  V30 120 H -7.753432 2.236327 -2.063236 0
M  V30 121 H -8.589199 1.061101 -3.996634 0
M  V30 122 H -5.943832 -1.751364 0.061872 0
M  V30 123 H -6.656715 -4.312571 0.187189 0
M  V30 124 H -7.597236 -5.923956 1.687161 0
M  V30 125 H -9.648588 -2.907015 3.797521 0
M  V30 126 H 4.233669 -2.439460 -1.908593 0
M  V30 127 H 4.716511 -3.302755 -3.469633 0
M  V30 128 H 4.774692 -4.185056 -1.851389 0
M  V30 129 H 1.694984 -5.511828 -1.800973 0
M  V30 130 H 1.963694 -4.125988 -0.709317 0
M  V30 131 H 3.302680 -5.251182 -1.078351 0
M  V30 132 H 3.012626 -4.256505 -4.842023 0
M  V30 133 H 3.824575 -5.389503 -3.773938 0
M  V30 134 H 2.055461 -5.531645 -3.881797 0
M  V30 135 H 5.724606 0.889380 -0.263303 0
M  V30 136 H 6.013166 0.366878 2.021950 0
M  V30 END ATOM
M  V30 BEGIN BOND
M  V30 1 1 1 2
M  V30 2 1 2 3
M  V30 3 2 3 4
M  V30 4 1 4 5
M  V30 5 1 5 6
M  V30 6 1 6 7
M  V30 7 2 7 8
M  V30 8 1 8 9
M  V30 9 2 9 10
M  V30 10 1 10 11
M  V30 11 1 11 12
M  V30 12 1 11 13
M  V30 13 1 13 14
M  V30 14 2 14 15
M  V30 15 1 14 16
M  V30 16 1 16 17
M  V30 17 1 17 18
M  V30 18 1 18 19
M  V30 19 1 18 20
M  V30 20 1 20 21
M  V30 21 1 21 22
M  V30 22 2 22 23
M  V30 23 1 22 24
M  V30 24 1 24 25
M  V30 25 1 25 26
M  V30 26 2 26 27
M  V30 27 1 26 28
M  V30 28 1 28 29
M  V30 29 1 29 30
M  V30 30 1 30 31
M  V30 31 1 31 32
M  V30 32 1 32 33
M  V30 33 1 33 34
M  V30 34 1 34 35
M  V30 35 1 35 36
M  V30 36 1 36 37
M  V30 37 1 37 38
M  V30 38 1 38 39
M  V30 39 1 38 40
M  V30 40 1 40 41
M  V30 41 1 41 42
M  V30 42 1 42 43
M  V30 43 1 43 44
M  V30 44 1 44 45
M  V30 45 2 45 46
M  V30 46 1 45 47
M  V30 47 2 47 48
M  V30 48 1 48 49
M  V30 49 2 49 50
M  V30 50 1 50 51
M  V30 51 1 50 52
M  V30 52 1 52 53
M  V30 53 2 52 54
M  V30 54 1 54 55
M  V30 55 1 55 56
M  V30 56 2 56 57
M  V30 57 1 57 58
M  V30 58 2 58 59
M  V30 59 1 59 60
M  V30 60 1 59 61
M  V30 61 2 61 62
M  V30 62 1 62 63
M  V30 63 1 24 64
M  V30 64 1 64 65
M  V30 65 1 64 66
M  V30 66 1 64 67
M  V30 67 1 10 68
M  V30 68 2 68 69
M  V30 69 2 6 2
M  V30 70 1 69 7
M  V30 71 1 21 16
M  V30 72 1 54 47
M  V30 73 1 62 56
M  V30 74 1 1 70
M  V30 75 1 1 71
M  V30 76 1 1 72
M  V30 77 1 4 73
M  V30 78 1 8 74
M  V30 79 1 9 75
M  V30 80 1 11 76 CFG=3
M  V30 81 1 12 77
M  V30 82 1 12 78
M  V30 83 1 12 79
M  V30 84 1 13 80
M  V30 85 1 16 81 CFG=1
M  V30 86 1 17 82
M  V30 87 1 17 83
M  V30 88 1 18 84 CFG=3
M  V30 89 1 19 85
M  V30 90 1 20 86
M  V30 91 1 20 87
M  V30 92 1 24 88 CFG=1
M  V30 93 1 25 89
M  V30 94 1 28 90
M  V30 95 1 28 91
M  V30 96 1 29 92
M  V30 97 1 29 93
M  V30 98 1 30 94
M  V30 99 1 30 95
M  V30 100 1 31 96
M  V30 101 1 31 97
M  V30 102 1 32 98
M  V30 103 1 32 99
M  V30 104 1 33 100
M  V30 105 1 33 101
M  V30 106 1 34 102
M  V30 107 1 34 103
M  V30 108 1 35 104
M  V30 109 1 35 105
M  V30 110 1 36 106
M  V30 111 1 36 107
M  V30 112 1 37 108
M  V30 113 1 37 109
M  V30 114 1 39 110
M  V30 115 1 39 111
M  V30 116 1 39 112
M  V30 117 1 40 113
M  V30 118 1 40 114
M  V30 119 1 41 115
M  V30 120 1 41 116
M  V30 121 1 42 117
M  V30 122 1 42 118
M  V30 123 1 44 119
M  V30 124 1 48 120
M  V30 125 1 49 121
M  V30 126 1 55 122
M  V30 127 1 57 123
M  V30 128 1 58 124
M  V30 129 1 61 125
M  V30 130 1 65 126
M  V30 131 1 65 127
M  V30 132 1 65 128
M  V30 133 1 66 129
M  V30 134 1 66 130
M  V30 135 1 66 131
M  V30 136 1 67 132
M  V30 137 1 67 133
M  V30 138 1 67 134
M  V30 139 1 68 135
M  V30 140 1 69 136
M  V30 END BOND
M  V30 END CTAB
M  END
>  <Dataset>  (166) 
ChEMBL_Kinases

>  <Ligand_Instance>  (166) 
nan

>  <PDB_ID>  (166) 
nan

>  <Standardized_SMILES>  (166) 
Cc1ncsc1-c1ccc([C@H](C)NC(=O)[C@H]2C[C@H](O)CN2C(=O)[C@@H](NC(=O)CCCCCCCCCCN(C)CCCONC(=O)c2ccc(F)c(F)c2Nc2ccc(I)cc2F)C(C)(C)C)cc1

>  <Name>  (166) 
nan

>  <Pocket>  (166) 
nan

>  <ATP_Site>  (166) 
nan

>  <Peripheral>  (166) 
nan

>  <Num_H_Atoms_ProtBoundConf>  (166) 
nan

>  <Num_Resolved_Atoms>  (166) 
nan

>  <Num_Not_Resolved_Atoms>  (166) 
nan

$$$$
CHEMBL4780659
     RDKit          3D

  0  0  0  0  0  0  0  0  0  0999 V3000
M  V30 BEGIN CTAB
M  V30 COUNTS 64 70 0 0 0
M  V30 BEGIN ATOM
M  V30 1 C 1.241491 -2.721545 3.021188 0
M  V30 2 C 1.930797 -1.536377 3.005940 0
M  V30 3 C 3.214408 -1.398697 2.621924 0
M  V30 4 C 3.941250 -0.144639 2.637005 0
M  V30 5 C 5.194754 -0.182680 3.163256 0
M  V30 6 N 5.903065 0.946621 3.227879 0
M  V30 7 C 5.380712 2.117904 2.775086 0
M  V30 8 C 4.091067 2.109732 2.242873 0
M  V30 9 N 3.314122 3.093760 1.729221 0
M  V30 10 C 2.103041 2.620687 1.326209 0
M  V30 11 C 1.117085 3.536373 0.779553 0
M  V30 12 N 1.304496 4.860159 0.645705 0
M  V30 13 N 0.249649 5.452034 0.136630 0
M  V30 14 C -0.656362 4.482721 -0.069415 0
M  V30 15 C -1.921118 4.648042 -0.596345 0
M  V30 16 C -2.641561 3.451335 -0.698484 0
M  V30 17 C -2.164930 2.187998 -0.316534 0
M  V30 18 C -3.116035 1.118205 -0.517238 0
M  V30 19 C -4.464379 1.441067 -0.320742 0
M  V30 20 N -5.520096 0.602835 -0.497797 0
M  V30 21 C -5.276919 -0.669989 -0.902336 0
M  V30 22 C -3.947090 -1.059297 -1.118566 0
M  V30 23 C -3.801381 -2.426577 -1.581659 0
M  V30 24 N -3.622932 -3.459395 -0.648399 0
M  V30 25 C -2.391941 -3.458308 0.087162 0
M  V30 26 C -1.197860 -3.765637 -0.796865 0
M  V30 27 C -1.359268 -5.144465 -1.444588 0
M  V30 28 C 0.045123 -5.700157 -1.536515 0
M  V30 29 C 0.886272 -4.938683 -0.568484 0
M  V30 30 C 0.007788 -3.870023 0.072922 0
M  V30 31 C -2.899990 -0.179483 -0.926586 0
M  V30 32 C -0.892108 2.131588 0.198292 0
M  V30 33 C -0.149236 3.262263 0.320854 0
M  V30 34 N 2.111511 1.304709 1.590056 0
M  V30 35 C 3.311319 0.975596 2.148771 0
M  V30 36 C 3.848732 -2.632435 2.207267 0
M  V30 37 S 2.575700 -3.921221 2.390676 0
M  V30 38 H 0.307732 -3.097842 3.253533 0
M  V30 39 H 1.305557 -0.724918 3.343609 0
M  V30 40 H 5.649746 -1.082290 3.533485 0
M  V30 41 H 5.956936 3.025063 2.830363 0
M  V30 42 H 3.709966 4.082500 1.694858 0
M  V30 43 H 0.219078 6.487394 -0.036992 0
M  V30 44 H -2.355520 5.584542 -0.912277 0
M  V30 45 H -3.652597 3.587277 -1.122429 0
M  V30 46 H -4.849614 2.415703 0.005795 0
M  V30 47 H -6.116851 -1.340792 -1.044258 0
M  V30 48 H -2.938523 -2.503847 -2.319310 0
M  V30 49 H -4.685646 -2.688097 -2.237640 0
M  V30 50 H -4.015580 -4.370950 -0.889995 0
M  V30 51 H -2.265949 -2.520891 0.645495 0
M  V30 52 H -2.445808 -4.284499 0.826382 0
M  V30 53 H -1.126325 -3.044669 -1.601202 0
M  V30 54 H -2.046594 -5.776556 -0.881850 0
M  V30 55 H -1.744198 -5.053360 -2.480368 0
M  V30 56 H 0.080006 -6.796951 -1.373063 0
M  V30 57 H 0.471558 -5.538088 -2.570006 0
M  V30 58 H 1.701319 -4.383881 -1.077016 0
M  V30 59 H 1.354927 -5.604971 0.187886 0
M  V30 60 H 0.552067 -2.935840 0.218024 0
M  V30 61 H -0.232143 -4.280150 1.085938 0
M  V30 62 H -1.874587 -0.463849 -1.087027 0
M  V30 63 H -0.490502 1.181820 0.504620 0
M  V30 64 H 4.992832 -2.591255 1.849244 0
M  V30 END ATOM
M  V30 BEGIN BOND
M  V30 1 2 1 2
M  V30 2 1 2 3
M  V30 3 1 3 4
M  V30 4 2 4 5
M  V30 5 1 5 6
M  V30 6 2 6 7
M  V30 7 1 7 8
M  V30 8 1 8 9
M  V30 9 1 9 10
M  V30 10 1 10 11
M  V30 11 2 11 12
M  V30 12 1 12 13
M  V30 13 1 13 14
M  V30 14 2 14 15
M  V30 15 1 15 16
M  V30 16 2 16 17
M  V30 17 1 17 18
M  V30 18 2 18 19
M  V30 19 1 19 20
M  V30 20 2 20 21
M  V30 21 1 21 22
M  V30 22 1 22 23
M  V30 23 1 23 24
M  V30 24 1 24 25
M  V30 25 1 25 26
M  V30 26 1 26 27
M  V30 27 1 27 28
M  V30 28 1 28 29
M  V30 29 1 29 30
M  V30 30 2 22 31
M  V30 31 1 17 32
M  V30 32 2 32 33
M  V30 33 2 10 34
M  V30 34 1 34 35
M  V30 35 2 3 36
M  V30 36 1 36 37
M  V30 37 1 37 1
M  V30 38 1 35 4
M  V30 39 2 35 8
M  V30 40 1 33 11
M  V30 41 1 33 14
M  V30 42 1 31 18
M  V30 43 1 30 26
M  V30 44 1 1 38
M  V30 45 1 2 39
M  V30 46 1 5 40
M  V30 47 1 7 41
M  V30 48 1 9 42
M  V30 49 1 13 43
M  V30 50 1 15 44
M  V30 51 1 16 45
M  V30 52 1 19 46
M  V30 53 1 21 47
M  V30 54 1 23 48
M  V30 55 1 23 49
M  V30 56 1 24 50
M  V30 57 1 25 51
M  V30 58 1 25 52
M  V30 59 1 26 53
M  V30 60 1 27 54
M  V30 61 1 27 55
M  V30 62 1 28 56
M  V30 63 1 28 57
M  V30 64 1 29 58
M  V30 65 1 29 59
M  V30 66 1 30 60
M  V30 67 1 30 61
M  V30 68 1 31 62
M  V30 69 1 32 63
M  V30 70 1 36 64
M  V30 END BOND
M  V30 END CTAB
M  END
>  <Dataset>  (167) 
ChEMBL_Kinases

>  <Ligand_Instance>  (167) 
nan

>  <PDB_ID>  (167) 
nan

>  <Standardized_SMILES>  (167) 
c1cc(-c2cncc3[nH]c(-c4n[nH]c5ccc(-c6cncc(CNCC7CCCC7)c6)cc45)nc23)cs1

>  <Name>  (167) 
nan

>  <Pocket>  (167) 
nan

>  <ATP_Site>  (167) 
nan

>  <Peripheral>  (167) 
nan

>  <Num_H_Atoms_ProtBoundConf>  (167) 
nan

>  <Num_Resolved_Atoms>  (167) 
nan

>  <Num_Not_Resolved_Atoms>  (167) 
nan

$$$$
CHEMBL4780788
     RDKit          3D

  0  0  0  0  0  0  0  0  0  0999 V3000
M  V30 BEGIN CTAB
M  V30 COUNTS 56 59 0 0 0
M  V30 BEGIN ATOM
M  V30 1 C 0.284149 -1.313768 4.887480 0
M  V30 2 C 1.046486 -2.365863 5.075025 0
M  V30 3 C 2.457300 -2.376534 4.730392 0
M  V30 4 O 3.159840 -3.397671 4.922580 0
M  V30 5 N 3.220332 -1.320284 4.163723 0
M  V30 6 C 4.614978 -1.594493 3.911063 0
M  V30 7 C 4.783909 -1.760967 2.419415 0
M  V30 8 C 3.815166 -0.961745 1.600750 0
M  V30 9 C 3.341176 0.287053 2.315599 0
M  V30 10 C 2.145941 0.789590 1.590873 0
M  V30 11 C 2.065454 1.942984 0.852357 0
M  V30 12 C 0.862471 2.296221 0.228011 0
M  V30 13 C -0.294766 1.505935 0.324328 0
M  V30 14 C -1.416659 2.104979 -0.417030 0
M  V30 15 C -2.513009 2.446154 0.613830 0
M  V30 16 C -2.058172 1.161710 -1.353096 0
M  V30 17 O -1.907913 1.405235 -2.593771 0
M  V30 18 N -2.833088 0.006572 -1.099102 0
M  V30 19 C -3.386900 -0.806679 -2.125211 0
M  V30 20 C -3.156960 -1.908036 -2.937838 0
M  V30 21 C -4.283355 -2.050138 -3.730550 0
M  V30 22 C -4.296849 -3.165365 -4.698181 0
M  V30 23 C -3.019160 -3.613163 -5.360781 0
M  V30 24 C -3.700992 -4.491714 -4.322802 0
M  V30 25 N -5.156417 -1.085028 -3.418135 0
M  V30 26 N -4.626981 -0.343727 -2.464437 0
M  V30 27 C -0.131022 0.376448 1.075975 0
M  V30 28 N 1.024230 0.043905 1.671478 0
M  V30 29 C 2.981822 0.045145 3.735611 0
M  V30 30 H -0.259593 -0.401685 4.695936 0
M  V30 31 H -0.752701 -1.287809 5.133534 0
M  V30 32 H 0.601047 -3.240020 5.497195 0
M  V30 33 H 4.955508 -2.539970 4.387276 0
M  V30 34 H 5.304778 -0.816214 4.317537 0
M  V30 35 H 4.638179 -2.829329 2.180676 0
M  V30 36 H 5.827040 -1.439927 2.152235 0
M  V30 37 H 2.946082 -1.611352 1.329503 0
M  V30 38 H 4.310876 -0.694811 0.646091 0
M  V30 39 H 4.138571 1.060884 2.258728 0
M  V30 40 H 2.966306 2.524871 0.797449 0
M  V30 41 H 0.969250 3.229675 -0.310552 0
M  V30 42 H -1.128923 3.053018 -0.919879 0
M  V30 43 H -3.517001 2.391665 0.145613 0
M  V30 44 H -2.466264 1.746156 1.460517 0
M  V30 45 H -2.389155 3.508086 0.946456 0
M  V30 46 H -2.996878 -0.227658 -0.099478 0
M  V30 47 H -2.199471 -2.351115 -2.750761 0
M  V30 48 H -5.233038 -3.255058 -5.303824 0
M  V30 49 H -2.069170 -3.197926 -4.998607 0
M  V30 50 H -3.088391 -3.913530 -6.439015 0
M  V30 51 H -3.239625 -4.643425 -3.340433 0
M  V30 52 H -4.127713 -5.422288 -4.759673 0
M  V30 53 H -6.065004 -1.046891 -3.924872 0
M  V30 54 H -1.028814 -0.204076 1.134745 0
M  V30 55 H 1.905874 0.254797 3.899862 0
M  V30 56 H 3.600727 0.691312 4.389030 0
M  V30 END ATOM
M  V30 BEGIN BOND
M  V30 1 2 1 2
M  V30 2 1 2 3
M  V30 3 2 3 4
M  V30 4 1 3 5
M  V30 5 1 5 6
M  V30 6 1 6 7
M  V30 7 1 7 8
M  V30 8 1 8 9
M  V30 9 1 9 10
M  V30 10 2 10 11
M  V30 11 1 11 12
M  V30 12 2 12 13
M  V30 13 1 13 14
M  V30 14 1 14 15
M  V30 15 1 14 16
M  V30 16 2 16 17
M  V30 17 1 16 18
M  V30 18 1 18 19
M  V30 19 1 19 20
M  V30 20 2 20 21
M  V30 21 1 21 22
M  V30 22 1 22 23
M  V30 23 1 23 24
M  V30 24 1 21 25
M  V30 25 1 25 26
M  V30 26 1 13 27
M  V30 27 2 27 28
M  V30 28 1 9 29
M  V30 29 1 29 5
M  V30 30 1 28 10
M  V30 31 2 26 19
M  V30 32 1 24 22
M  V30 33 1 1 30
M  V30 34 1 1 31
M  V30 35 1 2 32
M  V30 36 1 6 33
M  V30 37 1 6 34
M  V30 38 1 7 35
M  V30 39 1 7 36
M  V30 40 1 8 37
M  V30 41 1 8 38
M  V30 42 1 9 39
M  V30 43 1 11 40
M  V30 44 1 12 41
M  V30 45 1 14 42
M  V30 46 1 15 43
M  V30 47 1 15 44
M  V30 48 1 15 45
M  V30 49 1 18 46
M  V30 50 1 20 47
M  V30 51 1 22 48
M  V30 52 1 23 49
M  V30 53 1 23 50
M  V30 54 1 24 51
M  V30 55 1 24 52
M  V30 56 1 25 53
M  V30 57 1 27 54
M  V30 58 1 29 55
M  V30 59 1 29 56
M  V30 END BOND
M  V30 END CTAB
M  END
>  <Dataset>  (168) 
ChEMBL_Kinases

>  <Ligand_Instance>  (168) 
nan

>  <PDB_ID>  (168) 
nan

>  <Standardized_SMILES>  (168) 
C=CC(=O)N1CCCC(c2ccc(C(C)C(=O)Nc3cc(C4CC4)[nH]n3)cn2)C1

>  <Name>  (168) 
nan

>  <Pocket>  (168) 
nan

>  <ATP_Site>  (168) 
nan

>  <Peripheral>  (168) 
nan

>  <Num_H_Atoms_ProtBoundConf>  (168) 
nan

>  <Num_Resolved_Atoms>  (168) 
nan

>  <Num_Not_Resolved_Atoms>  (168) 
nan

$$$$
CHEMBL1782533
     RDKit          3D

  0  0  0  0  0  0  0  0  0  0999 V3000
M  V30 BEGIN CTAB
M  V30 COUNTS 37 39 0 0 0
M  V30 BEGIN ATOM
M  V30 1 O 4.346566 -3.491459 3.185699 0
M  V30 2 C 3.519032 -2.568525 2.969273 0
M  V30 3 O 3.136116 -1.692607 3.967089 0
M  V30 4 C 2.959841 -2.438448 1.615648 0
M  V30 5 C 3.267619 -3.252040 0.545150 0
M  V30 6 C 2.492518 -2.716648 -0.462495 0
M  V30 7 C 2.348793 -3.077699 -1.783770 0
M  V30 8 C 1.506206 -2.388716 -2.624118 0
M  V30 9 Br 1.305094 -2.881413 -4.443543 0
M  V30 10 C 0.768055 -1.313638 -2.198974 0
M  V30 11 C 0.902504 -0.936741 -0.866046 0
M  V30 12 N 0.165200 0.202781 -0.371873 0
M  V30 13 C -0.001715 0.858456 0.906911 0 CFG=1
M  V30 14 C -0.711141 2.206812 0.781877 0
M  V30 15 C -2.126518 2.123737 1.299782 0
M  V30 16 C -2.802541 0.966727 0.633778 0 CFG=2
M  V30 17 O -4.178372 0.947604 0.860690 0
M  V30 18 C -2.161657 -0.306019 1.134059 0
M  V30 19 C -0.859450 0.007812 1.837720 0
M  V30 20 C 1.759690 -1.638242 -0.014603 0
M  V30 21 O 2.092916 -1.533632 1.237539 0
M  V30 22 H 3.283484 -1.919312 4.951776 0
M  V30 23 H 3.941454 -4.098025 0.489986 0
M  V30 24 H 2.887682 -3.898682 -2.182593 0
M  V30 25 H 0.106185 -0.774567 -2.863923 0
M  V30 26 H -0.406805 0.699668 -1.121120 0
M  V30 27 H 0.961609 1.027431 1.391170 0
M  V30 28 H -0.185922 2.993727 1.334321 0
M  V30 29 H -0.784952 2.432490 -0.306994 0
M  V30 30 H -2.200382 2.133429 2.407277 0
M  V30 31 H -2.638901 3.082452 0.992161 0
M  V30 32 H -2.670556 1.110181 -0.458311 0
M  V30 33 H -4.309891 0.353431 1.657306 0
M  V30 34 H -2.829819 -0.879675 1.795986 0
M  V30 35 H -1.942291 -0.929358 0.268646 0
M  V30 36 H -0.981836 0.564268 2.778808 0
M  V30 37 H -0.360165 -0.931986 2.098683 0
M  V30 END ATOM
M  V30 BEGIN BOND
M  V30 1 2 1 2
M  V30 2 1 2 3
M  V30 3 1 2 4
M  V30 4 2 4 5
M  V30 5 1 5 6
M  V30 6 2 6 7
M  V30 7 1 7 8
M  V30 8 1 8 9
M  V30 9 2 8 10
M  V30 10 1 10 11
M  V30 11 1 11 12
M  V30 12 1 12 13
M  V30 13 1 13 14
M  V30 14 1 14 15
M  V30 15 1 15 16
M  V30 16 1 16 17
M  V30 17 1 16 18
M  V30 18 1 18 19
M  V30 19 2 11 20
M  V30 20 1 20 21
M  V30 21 1 21 4
M  V30 22 1 20 6
M  V30 23 1 19 13
M  V30 24 1 3 22
M  V30 25 1 5 23
M  V30 26 1 7 24
M  V30 27 1 10 25
M  V30 28 1 12 26
M  V30 29 1 13 27 CFG=1
M  V30 30 1 14 28
M  V30 31 1 14 29
M  V30 32 1 15 30
M  V30 33 1 15 31
M  V30 34 1 16 32 CFG=3
M  V30 35 1 17 33
M  V30 36 1 18 34
M  V30 37 1 18 35
M  V30 38 1 19 36
M  V30 39 1 19 37
M  V30 END BOND
M  V30 END CTAB
M  END
>  <Dataset>  (169) 
ChEMBL_Kinases

>  <Ligand_Instance>  (169) 
nan

>  <PDB_ID>  (169) 
nan

>  <Standardized_SMILES>  (169) 
O=C(O)c1cc2cc(Br)cc(N[C@H]3CC[C@H](O)CC3)c2o1

>  <Name>  (169) 
nan

>  <Pocket>  (169) 
nan

>  <ATP_Site>  (169) 
nan

>  <Peripheral>  (169) 
nan

>  <Num_H_Atoms_ProtBoundConf>  (169) 
nan

>  <Num_Resolved_Atoms>  (169) 
nan

>  <Num_Not_Resolved_Atoms>  (169) 
nan

$$$$
CHEMBL1782532
     RDKit          3D

  0  0  0  0  0  0  0  0  0  0999 V3000
M  V30 BEGIN CTAB
M  V30 COUNTS 37 39 0 0 0
M  V30 BEGIN ATOM
M  V30 1 O 3.608439 -3.735125 3.875374 0
M  V30 2 C 2.885744 -2.770383 3.512425 0
M  V30 3 O 2.373708 -1.868315 4.435838 0
M  V30 4 C 2.588826 -2.609868 2.089270 0
M  V30 5 C 3.038700 -3.438678 1.082308 0
M  V30 6 C 2.494388 -2.871057 -0.050335 0
M  V30 7 C 2.564541 -3.212881 -1.371884 0
M  V30 8 C 1.932627 -2.487801 -2.343197 0
M  V30 9 Br 2.041979 -2.976831 -4.165680 0
M  V30 10 C 1.192751 -1.377602 -2.049936 0
M  V30 11 C 1.099771 -1.000201 -0.710996 0
M  V30 12 N 0.345955 0.176666 -0.347869 0
M  V30 13 C -0.008079 0.845582 0.881372 0 CFG=1
M  V30 14 C -0.658499 2.194308 0.657614 0
M  V30 15 C -2.137208 2.210231 0.927693 0
M  V30 16 C -2.819230 1.023516 0.328454 0 CFG=1
M  V30 17 O -2.770775 1.086651 -1.070666 0
M  V30 18 C -2.246197 -0.246614 0.887251 0
M  V30 19 C -1.008976 0.047531 1.692789 0
M  V30 20 C 1.752836 -1.752969 0.270050 0
M  V30 21 O 1.856164 -1.661092 1.563053 0
M  V30 22 H 2.195629 -2.184154 5.397941 0
M  V30 23 H 3.665732 -4.324248 1.135393 0
M  V30 24 H 3.134703 -4.080862 -1.665723 0
M  V30 25 H 0.686257 -0.796505 -2.828209 0
M  V30 26 H -0.059273 0.696424 -1.186306 0
M  V30 27 H 0.908289 0.957626 1.490071 0
M  V30 28 H -0.218717 2.912593 1.409693 0
M  V30 29 H -0.407841 2.615959 -0.326574 0
M  V30 30 H -2.387768 2.321405 2.003088 0
M  V30 31 H -2.573577 3.114959 0.432910 0
M  V30 32 H -3.912166 1.048582 0.579815 0
M  V30 33 H -2.640601 2.008320 -1.390786 0
M  V30 34 H -2.968782 -0.781641 1.541911 0
M  V30 35 H -2.030604 -0.902459 0.040230 0
M  V30 36 H -0.625927 -0.852231 2.160261 0
M  V30 37 H -1.295171 0.714741 2.556325 0
M  V30 END ATOM
M  V30 BEGIN BOND
M  V30 1 2 1 2
M  V30 2 1 2 3
M  V30 3 1 2 4
M  V30 4 2 4 5
M  V30 5 1 5 6
M  V30 6 2 6 7
M  V30 7 1 7 8
M  V30 8 1 8 9
M  V30 9 2 8 10
M  V30 10 1 10 11
M  V30 11 1 11 12
M  V30 12 1 12 13
M  V30 13 1 13 14
M  V30 14 1 14 15
M  V30 15 1 15 16
M  V30 16 1 16 17
M  V30 17 1 16 18
M  V30 18 1 18 19
M  V30 19 2 11 20
M  V30 20 1 20 21
M  V30 21 1 21 4
M  V30 22 1 20 6
M  V30 23 1 19 13
M  V30 24 1 3 22
M  V30 25 1 5 23
M  V30 26 1 7 24
M  V30 27 1 10 25
M  V30 28 1 12 26
M  V30 29 1 13 27 CFG=1
M  V30 30 1 14 28
M  V30 31 1 14 29
M  V30 32 1 15 30
M  V30 33 1 15 31
M  V30 34 1 16 32 CFG=3
M  V30 35 1 17 33
M  V30 36 1 18 34
M  V30 37 1 18 35
M  V30 38 1 19 36
M  V30 39 1 19 37
M  V30 END BOND
M  V30 END CTAB
M  END
>  <Dataset>  (170) 
ChEMBL_Kinases

>  <Ligand_Instance>  (170) 
nan

>  <PDB_ID>  (170) 
nan

>  <Standardized_SMILES>  (170) 
O=C(O)c1cc2cc(Br)cc(N[C@H]3CC[C@@H](O)CC3)c2o1

>  <Name>  (170) 
nan

>  <Pocket>  (170) 
nan

>  <ATP_Site>  (170) 
nan

>  <Peripheral>  (170) 
nan

>  <Num_H_Atoms_ProtBoundConf>  (170) 
nan

>  <Num_Resolved_Atoms>  (170) 
nan

>  <Num_Not_Resolved_Atoms>  (170) 
nan

$$$$
CHEMBL1782531
     RDKit          3D

  0  0  0  0  0  0  0  0  0  0999 V3000
M  V30 BEGIN CTAB
M  V30 COUNTS 38 40 0 0 0
M  V30 BEGIN ATOM
M  V30 1 N 0.329404 -3.396458 4.470468 0
M  V30 2 C 0.629840 -3.815539 3.115326 0 CFG=1
M  V30 3 C -0.575097 -3.791723 2.208337 0
M  V30 4 C -0.428256 -2.741464 1.123903 0
M  V30 5 C -0.000889 -1.443612 1.799980 0 CFG=2
M  V30 6 N -0.162170 -0.282925 1.013858 0
M  V30 7 C 0.274286 0.195233 -0.244771 0
M  V30 8 C 1.078790 -0.517840 -1.103218 0
M  V30 9 C 1.538033 -0.107342 -2.334575 0
M  V30 10 Br 2.652707 -1.161047 -3.463969 0
M  V30 11 C 1.140969 1.150598 -2.732783 0
M  V30 12 C 0.336362 1.917587 -1.923291 0
M  V30 13 C -0.186948 3.181817 -2.091067 0
M  V30 14 C -0.920730 3.442271 -0.954539 0
M  V30 15 C -1.660348 4.671036 -0.685423 0
M  V30 16 O -1.634665 5.578875 -1.556975 0
M  V30 17 O -2.366316 4.820007 0.500253 0
M  V30 18 O -0.822890 2.390272 -0.183315 0
M  V30 19 C -0.083319 1.445568 -0.709952 0
M  V30 20 C 1.451062 -1.610126 2.179612 0
M  V30 21 C 1.784650 -3.025715 2.550833 0
M  V30 22 H -0.681748 -3.210642 4.631696 0
M  V30 23 H 0.952356 -2.640262 4.827920 0
M  V30 24 H 0.965547 -4.870198 3.178595 0
M  V30 25 H -0.763397 -4.782673 1.760635 0
M  V30 26 H -1.455078 -3.524941 2.822048 0
M  V30 27 H -1.352822 -2.592375 0.543282 0
M  V30 28 H 0.426950 -3.083500 0.513284 0
M  V30 29 H -0.628047 -1.354630 2.733146 0
M  V30 30 H -0.787306 0.430219 1.510866 0
M  V30 31 H 1.429608 -1.508633 -0.867957 0
M  V30 32 H 1.438939 1.577943 -3.677965 0
M  V30 33 H -0.034505 3.817357 -2.952755 0
M  V30 34 H -2.948824 5.645864 0.676504 0
M  V30 35 H 1.650603 -0.905789 3.039726 0
M  V30 36 H 2.082968 -1.226907 1.361045 0
M  V30 37 H 2.233935 -3.500896 1.668314 0
M  V30 38 H 2.571067 -2.990545 3.335105 0
M  V30 END ATOM
M  V30 BEGIN BOND
M  V30 1 1 1 2
M  V30 2 1 2 3
M  V30 3 1 3 4
M  V30 4 1 4 5
M  V30 5 1 5 6
M  V30 6 1 6 7
M  V30 7 2 7 8
M  V30 8 1 8 9
M  V30 9 1 9 10
M  V30 10 2 9 11
M  V30 11 1 11 12
M  V30 12 1 12 13
M  V30 13 2 13 14
M  V30 14 1 14 15
M  V30 15 2 15 16
M  V30 16 1 15 17
M  V30 17 1 14 18
M  V30 18 1 18 19
M  V30 19 1 5 20
M  V30 20 1 20 21
M  V30 21 1 21 2
M  V30 22 1 19 7
M  V30 23 2 19 12
M  V30 24 1 1 22
M  V30 25 1 1 23
M  V30 26 1 2 24 CFG=1
M  V30 27 1 3 25
M  V30 28 1 3 26
M  V30 29 1 4 27
M  V30 30 1 4 28
M  V30 31 1 5 29 CFG=1
M  V30 32 1 6 30
M  V30 33 1 8 31
M  V30 34 1 11 32
M  V30 35 1 13 33
M  V30 36 1 17 34
M  V30 37 1 20 35
M  V30 38 1 20 36
M  V30 39 1 21 37
M  V30 40 1 21 38
M  V30 END BOND
M  V30 END CTAB
M  END
>  <Dataset>  (171) 
ChEMBL_Kinases

>  <Ligand_Instance>  (171) 
nan

>  <PDB_ID>  (171) 
nan

>  <Standardized_SMILES>  (171) 
N[C@H]1CC[C@H](Nc2cc(Br)cc3cc(C(=O)O)oc23)CC1

>  <Name>  (171) 
nan

>  <Pocket>  (171) 
nan

>  <ATP_Site>  (171) 
nan

>  <Peripheral>  (171) 
nan

>  <Num_H_Atoms_ProtBoundConf>  (171) 
nan

>  <Num_Resolved_Atoms>  (171) 
nan

>  <Num_Not_Resolved_Atoms>  (171) 
nan

$$$$
CHEMBL1782530
     RDKit          3D

  0  0  0  0  0  0  0  0  0  0999 V3000
M  V30 BEGIN CTAB
M  V30 COUNTS 38 40 0 0 0
M  V30 BEGIN ATOM
M  V30 1 N -0.931222 -1.623470 3.460926 0
M  V30 2 C 0.125395 -2.542397 3.006831 0 CFG=1
M  V30 3 C -0.248369 -2.940047 1.616199 0
M  V30 4 C 0.935899 -3.117186 0.700312 0
M  V30 5 C 1.891803 -1.955121 0.817963 0 CFG=1
M  V30 6 N 1.197033 -0.734941 0.579139 0
M  V30 7 C 0.603789 -0.233448 -0.598118 0
M  V30 8 C 0.613366 -0.845690 -1.813435 0
M  V30 9 C 0.026359 -0.365647 -2.964952 0
M  V30 10 Br 0.095463 -1.299618 -4.618845 0
M  V30 11 C -0.624633 0.842061 -2.864827 0
M  V30 12 C -0.670974 1.506400 -1.678306 0
M  V30 13 C -1.253422 2.709840 -1.338797 0
M  V30 14 C -0.972118 2.866955 0.002862 0
M  V30 15 C -1.398812 4.015732 0.796342 0
M  V30 16 O -2.065615 4.925951 0.231735 0
M  V30 17 O -1.072099 4.099051 2.152243 0
M  V30 18 O -0.277835 1.833688 0.416414 0
M  V30 19 C -0.069769 0.975598 -0.578020 0
M  V30 20 C 2.478216 -2.062000 2.192160 0
M  V30 21 C 1.417641 -1.867569 3.209090 0
M  V30 22 H -1.208443 -1.777619 4.432792 0
M  V30 23 H -1.690273 -1.504872 2.786561 0
M  V30 24 H 0.040775 -3.411272 3.701432 0
M  V30 25 H -0.768231 -3.919765 1.663291 0
M  V30 26 H -0.961819 -2.240560 1.121187 0
M  V30 27 H 0.604683 -3.368588 -0.297121 0
M  V30 28 H 1.502948 -3.998345 1.129575 0
M  V30 29 H 2.718221 -2.135184 0.090971 0
M  V30 30 H 1.128467 -0.120001 1.444932 0
M  V30 31 H 1.117149 -1.785001 -1.940087 0
M  V30 32 H -1.104890 1.275156 -3.724662 0
M  V30 33 H -1.800979 3.370771 -1.978940 0
M  V30 34 H -1.254013 4.965124 2.682275 0
M  V30 35 H 3.276777 -1.319862 2.388939 0
M  V30 36 H 2.916040 -3.085249 2.290529 0
M  V30 37 H 1.866461 -2.198301 4.194370 0
M  V30 38 H 1.291750 -0.755705 3.369221 0
M  V30 END ATOM
M  V30 BEGIN BOND
M  V30 1 1 1 2
M  V30 2 1 2 3
M  V30 3 1 3 4
M  V30 4 1 4 5
M  V30 5 1 5 6
M  V30 6 1 6 7
M  V30 7 2 7 8
M  V30 8 1 8 9
M  V30 9 1 9 10
M  V30 10 2 9 11
M  V30 11 1 11 12
M  V30 12 1 12 13
M  V30 13 2 13 14
M  V30 14 1 14 15
M  V30 15 2 15 16
M  V30 16 1 15 17
M  V30 17 1 14 18
M  V30 18 1 18 19
M  V30 19 1 5 20
M  V30 20 1 20 21
M  V30 21 1 21 2
M  V30 22 1 19 7
M  V30 23 2 19 12
M  V30 24 1 1 22
M  V30 25 1 1 23
M  V30 26 1 2 24 CFG=1
M  V30 27 1 3 25
M  V30 28 1 3 26
M  V30 29 1 4 27
M  V30 30 1 4 28
M  V30 31 1 5 29 CFG=3
M  V30 32 1 6 30
M  V30 33 1 8 31
M  V30 34 1 11 32
M  V30 35 1 13 33
M  V30 36 1 17 34
M  V30 37 1 20 35
M  V30 38 1 20 36
M  V30 39 1 21 37
M  V30 40 1 21 38
M  V30 END BOND
M  V30 END CTAB
M  END
>  <Dataset>  (172) 
ChEMBL_Kinases

>  <Ligand_Instance>  (172) 
nan

>  <PDB_ID>  (172) 
nan

>  <Standardized_SMILES>  (172) 
N[C@H]1CC[C@@H](Nc2cc(Br)cc3cc(C(=O)O)oc23)CC1

>  <Name>  (172) 
nan

>  <Pocket>  (172) 
nan

>  <ATP_Site>  (172) 
nan

>  <Peripheral>  (172) 
nan

>  <Num_H_Atoms_ProtBoundConf>  (172) 
nan

>  <Num_Resolved_Atoms>  (172) 
nan

>  <Num_Not_Resolved_Atoms>  (172) 
nan

$$$$
CHEMBL1782529
     RDKit          3D

  0  0  0  0  0  0  0  0  0  0999 V3000
M  V30 BEGIN CTAB
M  V30 COUNTS 40 42 0 0 0
M  V30 BEGIN ATOM
M  V30 1 O 1.191877 -3.512361 3.575853 0
M  V30 2 C 1.718341 -4.059478 2.561812 0
M  V30 3 O 1.925090 -5.412144 2.750305 0
M  V30 4 C 2.093912 -3.419792 1.310219 0
M  V30 5 C 2.668426 -3.932871 0.162892 0
M  V30 6 C 2.776566 -2.832801 -0.665742 0
M  V30 7 C 3.280306 -2.744047 -1.947003 0
M  V30 8 C 3.293188 -1.543716 -2.593744 0
M  V30 9 Br 3.970902 -1.337765 -4.364736 0
M  V30 10 C 2.807517 -0.395186 -1.989854 0
M  V30 11 C 2.305954 -0.499978 -0.705683 0
M  V30 12 C 1.741212 0.596535 0.114820 0
M  V30 13 O 2.437039 1.559681 0.572977 0
M  V30 14 N 0.339729 0.667563 0.468798 0
M  V30 15 C 0.171704 1.846824 1.259168 0
M  V30 16 C -1.241057 2.100120 1.728822 0
M  V30 17 C -2.245992 2.278610 0.657166 0
M  V30 18 C -2.931469 1.041275 0.156767 0
M  V30 19 N -3.316031 0.140024 1.195103 0
M  V30 20 C -3.160589 0.752018 2.512774 0
M  V30 21 C -1.698957 1.056521 2.709581 0
M  V30 22 C 2.272684 -1.704924 -0.007646 0
M  V30 23 O 1.891795 -2.139725 1.149086 0
M  V30 24 H 2.218411 -5.804144 3.621898 0
M  V30 25 H 2.935766 -4.969920 0.039431 0
M  V30 26 H 3.678440 -3.630178 -2.466613 0
M  V30 27 H 2.763241 0.608037 -2.398679 0
M  V30 28 H -0.174214 -0.163008 0.054297 0
M  V30 29 H 0.804348 1.725983 2.180313 0
M  V30 30 H 0.552931 2.733460 0.712787 0
M  V30 31 H -1.201387 3.095153 2.291030 0
M  V30 32 H -3.086529 2.945811 1.029370 0
M  V30 33 H -1.785273 2.826384 -0.202294 0
M  V30 34 H -2.326108 0.525820 -0.618659 0
M  V30 35 H -3.854268 1.358669 -0.396267 0
M  V30 36 H -2.748025 -0.732370 1.167767 0
M  V30 37 H -3.775272 1.673281 2.558434 0
M  V30 38 H -3.463275 0.004664 3.256937 0
M  V30 39 H -1.478447 1.348162 3.758204 0
M  V30 40 H -1.149005 0.101367 2.506137 0
M  V30 END ATOM
M  V30 BEGIN BOND
M  V30 1 2 1 2
M  V30 2 1 2 3
M  V30 3 1 2 4
M  V30 4 2 4 5
M  V30 5 1 5 6
M  V30 6 2 6 7
M  V30 7 1 7 8
M  V30 8 1 8 9
M  V30 9 2 8 10
M  V30 10 1 10 11
M  V30 11 1 11 12
M  V30 12 2 12 13
M  V30 13 1 12 14
M  V30 14 1 14 15
M  V30 15 1 15 16
M  V30 16 1 16 17
M  V30 17 1 17 18
M  V30 18 1 18 19
M  V30 19 1 19 20
M  V30 20 1 20 21
M  V30 21 2 11 22
M  V30 22 1 22 23
M  V30 23 1 23 4
M  V30 24 1 22 6
M  V30 25 1 21 16
M  V30 26 1 3 24
M  V30 27 1 5 25
M  V30 28 1 7 26
M  V30 29 1 10 27
M  V30 30 1 14 28
M  V30 31 1 15 29
M  V30 32 1 15 30
M  V30 33 1 16 31
M  V30 34 1 17 32
M  V30 35 1 17 33
M  V30 36 1 18 34
M  V30 37 1 18 35
M  V30 38 1 19 36
M  V30 39 1 20 37
M  V30 40 1 20 38
M  V30 41 1 21 39
M  V30 42 1 21 40
M  V30 END BOND
M  V30 END CTAB
M  END
>  <Dataset>  (173) 
ChEMBL_Kinases

>  <Ligand_Instance>  (173) 
nan

>  <PDB_ID>  (173) 
nan

>  <Standardized_SMILES>  (173) 
O=C(O)c1cc2cc(Br)cc(C(=O)NCC3CCNCC3)c2o1

>  <Name>  (173) 
nan

>  <Pocket>  (173) 
nan

>  <ATP_Site>  (173) 
nan

>  <Peripheral>  (173) 
nan

>  <Num_H_Atoms_ProtBoundConf>  (173) 
nan

>  <Num_Resolved_Atoms>  (173) 
nan

>  <Num_Not_Resolved_Atoms>  (173) 
nan

$$$$
CHEMBL1782528
     RDKit          3D

  0  0  0  0  0  0  0  0  0  0999 V3000
M  V30 BEGIN CTAB
M  V30 COUNTS 37 39 0 0 0
M  V30 BEGIN ATOM
M  V30 1 O 1.901024 -3.592092 4.496172 0
M  V30 2 C 2.753046 -3.727968 3.579980 0
M  V30 3 O 3.556145 -4.864757 3.774462 0
M  V30 4 C 3.009852 -2.906907 2.400265 0
M  V30 5 C 3.873708 -2.905598 1.325754 0
M  V30 6 C 3.561165 -1.802427 0.557836 0
M  V30 7 C 4.170649 -1.405463 -0.615136 0
M  V30 8 C 3.644261 -0.241303 -1.181731 0
M  V30 9 Br 4.454192 0.360747 -2.816650 0
M  V30 10 C 2.598797 0.457503 -0.615965 0
M  V30 11 C 2.060240 -0.026895 0.560652 0
M  V30 12 C 0.937434 0.658428 1.237799 0
M  V30 13 O 0.822062 1.310050 2.286766 0
M  V30 14 N -0.295950 0.552141 0.534833 0
M  V30 15 C -1.660081 0.977393 0.673130 0
M  V30 16 C -2.208788 1.888116 -0.334274 0
M  V30 17 C -3.626235 1.394185 -0.649811 0
M  V30 18 N -3.562474 0.047599 -1.213987 0
M  V30 19 C -3.047334 -0.906519 -0.273887 0
M  V30 20 C -2.599528 -0.179370 0.959966 0
M  V30 21 C 2.510804 -1.167379 1.196475 0
M  V30 22 O 2.226307 -1.844085 2.259186 0
M  V30 23 H 3.378514 -5.571268 4.463938 0
M  V30 24 H 4.596050 -3.710012 1.269797 0
M  V30 25 H 4.990218 -1.967210 -1.042305 0
M  V30 26 H 2.206315 1.358415 -1.072521 0
M  V30 27 H -0.433277 0.043044 -0.383139 0
M  V30 28 H -1.686271 1.557742 1.640056 0
M  V30 29 H -2.329193 2.945287 -0.017145 0
M  V30 30 H -1.713020 1.930099 -1.310113 0
M  V30 31 H -4.302557 1.472110 0.213802 0
M  V30 32 H -4.008322 2.066942 -1.448226 0
M  V30 33 H -4.544155 -0.208827 -1.465318 0
M  V30 34 H -3.875408 -1.584147 0.078717 0
M  V30 35 H -2.282269 -1.578832 -0.694225 0
M  V30 36 H -1.980804 -0.912533 1.547224 0
M  V30 37 H -3.497468 0.127365 1.520590 0
M  V30 END ATOM
M  V30 BEGIN BOND
M  V30 1 2 1 2
M  V30 2 1 2 3
M  V30 3 1 2 4
M  V30 4 2 4 5
M  V30 5 1 5 6
M  V30 6 2 6 7
M  V30 7 1 7 8
M  V30 8 1 8 9
M  V30 9 2 8 10
M  V30 10 1 10 11
M  V30 11 1 11 12
M  V30 12 2 12 13
M  V30 13 1 12 14
M  V30 14 1 14 15
M  V30 15 1 15 16
M  V30 16 1 16 17
M  V30 17 1 17 18
M  V30 18 1 18 19
M  V30 19 1 19 20
M  V30 20 2 11 21
M  V30 21 1 21 22
M  V30 22 1 22 4
M  V30 23 1 21 6
M  V30 24 1 20 15
M  V30 25 1 3 23
M  V30 26 1 5 24
M  V30 27 1 7 25
M  V30 28 1 10 26
M  V30 29 1 14 27
M  V30 30 1 15 28
M  V30 31 1 16 29
M  V30 32 1 16 30
M  V30 33 1 17 31
M  V30 34 1 17 32
M  V30 35 1 18 33
M  V30 36 1 19 34
M  V30 37 1 19 35
M  V30 38 1 20 36
M  V30 39 1 20 37
M  V30 END BOND
M  V30 END CTAB
M  END
>  <Dataset>  (174) 
ChEMBL_Kinases

>  <Ligand_Instance>  (174) 
nan

>  <PDB_ID>  (174) 
nan

>  <Standardized_SMILES>  (174) 
O=C(O)c1cc2cc(Br)cc(C(=O)NC3CCNCC3)c2o1

>  <Name>  (174) 
nan

>  <Pocket>  (174) 
nan

>  <ATP_Site>  (174) 
nan

>  <Peripheral>  (174) 
nan

>  <Num_H_Atoms_ProtBoundConf>  (174) 
nan

>  <Num_Resolved_Atoms>  (174) 
nan

>  <Num_Not_Resolved_Atoms>  (174) 
nan

$$$$
CHEMBL4780548
     RDKit          3D

  0  0  0  0  0  0  0  0  0  0999 V3000
M  V30 BEGIN CTAB
M  V30 COUNTS 66 71 0 0 0
M  V30 BEGIN ATOM
M  V30 1 O 5.848796 0.584418 2.872780 0
M  V30 2 C 4.501919 0.374156 2.523200 0
M  V30 3 C 4.276224 -1.123191 2.777756 0
M  V30 4 F 2.957498 -1.478535 2.467402 0
M  V30 5 F 4.459933 -1.447651 4.093137 0
M  V30 6 F 5.091534 -1.887116 1.972079 0
M  V30 7 C 4.233665 0.638414 1.090827 0
M  V30 8 C 3.101371 1.528416 0.750427 0
M  V30 9 N 2.612022 2.353982 1.800923 0
M  V30 10 C 1.342861 2.989530 1.777821 0
M  V30 11 C 0.462125 2.832982 0.753300 0
M  V30 12 C -0.783794 3.414815 0.660746 0
M  V30 13 N -1.726642 3.245217 -0.377093 0
M  V30 14 C -2.044496 2.149508 -1.213300 0
M  V30 15 C -1.555836 0.884430 -1.116189 0
M  V30 16 C -1.860511 -0.168969 -1.947431 0
M  V30 17 O -1.299961 -1.445067 -1.763221 0
M  V30 18 C -1.907146 -2.406521 -0.982537 0
M  V30 19 C -3.101478 -2.320204 -0.277390 0
M  V30 20 N -3.246272 -3.532165 0.321187 0
M  V30 21 C -4.358004 -3.931905 1.180422 0
M  V30 22 C -5.099828 -2.806664 1.803174 0
M  V30 23 C -5.718257 -3.585551 0.686242 0
M  V30 24 N -2.218933 -4.302086 0.006610 0
M  V30 25 C -1.350339 -3.657381 -0.802936 0
M  V30 26 C -0.065991 -4.178242 -1.375964 0
M  V30 27 C -0.225127 -4.805871 -2.719997 0
M  V30 28 C -0.123484 -6.176564 -2.088492 0
M  V30 29 F 0.876937 -6.970490 -2.633081 0
M  V30 30 F -1.363869 -6.776709 -2.062132 0
M  V30 31 C 0.229668 -5.538789 -0.785474 0
M  V30 32 C -2.757683 0.073520 -2.995045 0
M  V30 33 C -3.242782 1.361980 -3.076970 0
M  V30 34 N -2.902114 2.344733 -2.229496 0
M  V30 35 C -1.078438 4.218555 1.761494 0
M  V30 36 C -0.225587 4.410103 2.820282 0
M  V30 37 N 0.966066 3.785491 2.795436 0
M  V30 38 C 3.487500 2.528872 2.943712 0
M  V30 39 C 3.648287 1.108847 3.505772 0
M  V30 40 H 5.957839 0.239500 3.795536 0
M  V30 41 H 5.164590 1.129116 0.677448 0
M  V30 42 H 4.183477 -0.322171 0.503570 0
M  V30 43 H 3.327451 2.180135 -0.134652 0
M  V30 44 H 2.257353 0.862368 0.410293 0
M  V30 45 H 0.800371 2.201888 -0.052493 0
M  V30 46 H -2.283252 4.140193 -0.527269 0
M  V30 47 H -0.881813 0.635294 -0.337110 0
M  V30 48 H -3.752858 -1.461433 -0.233514 0
M  V30 49 H -4.204957 -4.856290 1.768522 0
M  V30 50 H -4.848684 -1.755925 1.549906 0
M  V30 51 H -5.468199 -2.911319 2.834833 0
M  V30 52 H -5.841405 -3.125555 -0.320717 0
M  V30 53 H -6.601762 -4.190332 1.013979 0
M  V30 54 H 0.799113 -3.524681 -1.201561 0
M  V30 55 H 0.648080 -4.575085 -3.394536 0
M  V30 56 H -1.204869 -4.618584 -3.231786 0
M  V30 57 H 1.277916 -5.691043 -0.443245 0
M  V30 58 H -0.432257 -5.819046 0.071914 0
M  V30 59 H -3.025948 -0.723462 -3.671826 0
M  V30 60 H -3.948930 1.611956 -3.876112 0
M  V30 61 H -2.042312 4.728453 1.788281 0
M  V30 62 H -0.539994 5.051934 3.630111 0
M  V30 63 H 3.045501 3.196393 3.705143 0
M  V30 64 H 4.468475 2.874822 2.583131 0
M  V30 65 H 4.210195 1.220600 4.450431 0
M  V30 66 H 2.653825 0.639674 3.640977 0
M  V30 END ATOM
M  V30 BEGIN BOND
M  V30 1 1 1 2
M  V30 2 1 2 3
M  V30 3 1 3 4
M  V30 4 1 3 5
M  V30 5 1 3 6
M  V30 6 1 2 7
M  V30 7 1 7 8
M  V30 8 1 8 9
M  V30 9 1 9 10
M  V30 10 2 10 11
M  V30 11 1 11 12
M  V30 12 1 12 13
M  V30 13 1 13 14
M  V30 14 2 14 15
M  V30 15 1 15 16
M  V30 16 1 16 17
M  V30 17 1 17 18
M  V30 18 2 18 19
M  V30 19 1 19 20
M  V30 20 1 20 21
M  V30 21 1 21 22
M  V30 22 1 22 23
M  V30 23 1 20 24
M  V30 24 2 24 25
M  V30 25 1 25 26
M  V30 26 1 26 27
M  V30 27 1 27 28
M  V30 28 1 28 29
M  V30 29 1 28 30
M  V30 30 1 28 31
M  V30 31 2 16 32
M  V30 32 1 32 33
M  V30 33 2 33 34
M  V30 34 2 12 35
M  V30 35 1 35 36
M  V30 36 2 36 37
M  V30 37 1 9 38
M  V30 38 1 38 39
M  V30 39 1 39 2
M  V30 40 1 37 10
M  V30 41 1 34 14
M  V30 42 1 25 18
M  V30 43 1 31 26
M  V30 44 1 23 21
M  V30 45 1 1 40
M  V30 46 1 7 41
M  V30 47 1 7 42
M  V30 48 1 8 43
M  V30 49 1 8 44
M  V30 50 1 11 45
M  V30 51 1 13 46
M  V30 52 1 15 47
M  V30 53 1 19 48
M  V30 54 1 21 49
M  V30 55 1 22 50
M  V30 56 1 22 51
M  V30 57 1 23 52
M  V30 58 1 23 53
M  V30 59 1 26 54
M  V30 60 1 27 55
M  V30 61 1 27 56
M  V30 62 1 31 57
M  V30 63 1 31 58
M  V30 64 1 32 59
M  V30 65 1 33 60
M  V30 66 1 35 61
M  V30 67 1 36 62
M  V30 68 1 38 63
M  V30 69 1 38 64
M  V30 70 1 39 65
M  V30 71 1 39 66
M  V30 END BOND
M  V30 END CTAB
M  END
>  <Dataset>  (175) 
ChEMBL_Kinases

>  <Ligand_Instance>  (175) 
nan

>  <PDB_ID>  (175) 
nan

>  <Standardized_SMILES>  (175) 
OC1(C(F)(F)F)CCN(c2cc(Nc3cc(Oc4cn(C5CC5)nc4C4CC(F)(F)C4)ccn3)ccn2)CC1

>  <Name>  (175) 
nan

>  <Pocket>  (175) 
nan

>  <ATP_Site>  (175) 
nan

>  <Peripheral>  (175) 
nan

>  <Num_H_Atoms_ProtBoundConf>  (175) 
nan

>  <Num_Resolved_Atoms>  (175) 
nan

>  <Num_Not_Resolved_Atoms>  (175) 
nan

$$$$
CHEMBL4778931
     RDKit          3D

  0  0  0  0  0  0  0  0  0  0999 V3000
M  V30 BEGIN CTAB
M  V30 COUNTS 45 48 0 0 0
M  V30 BEGIN ATOM
M  V30 1 O -0.700864 -5.092862 0.865589 0
M  V30 2 C -1.131988 -4.712422 -0.249895 0
M  V30 3 N -2.025856 -3.611789 -0.296429 0
M  V30 4 C -2.547235 -2.823708 0.741460 0
M  V30 5 C -3.740102 -3.116059 1.412853 0
M  V30 6 N -3.892152 -2.136337 2.325221 0
M  V30 7 N -2.898992 -1.275860 2.268013 0
M  V30 8 C -2.059658 -1.685978 1.295027 0
M  V30 9 C -0.830322 -1.001180 0.916777 0
M  V30 10 O -0.179507 -1.540650 -0.012749 0
M  V30 11 N -0.341273 0.173313 1.495478 0
M  V30 12 C 0.813544 0.920093 1.224373 0
M  V30 13 C 1.769343 0.639075 0.275567 0
M  V30 14 N 2.869536 1.373202 0.035200 0
M  V30 15 C 3.127017 2.489833 0.739973 0
M  V30 16 C 2.194474 2.811466 1.703879 0
M  V30 17 C 2.393052 4.008406 2.516114 0
M  V30 18 C 3.040952 5.099225 1.937744 0
M  V30 19 C 3.284449 6.288481 2.610626 0
M  V30 20 C 2.838946 6.350041 3.935588 0
M  V30 21 C 2.190971 5.290284 4.549798 0
M  V30 22 F 1.776067 5.390771 5.833510 0
M  V30 23 C 1.971646 4.127180 3.838774 0
M  V30 24 C 1.073073 2.056137 1.943227 0
M  V30 25 C -0.699752 -5.412630 -1.447583 0
M  V30 26 C 0.174630 -6.472096 -1.302368 0
M  V30 27 N 0.614759 -7.167122 -2.389577 0
M  V30 28 C 0.185140 -6.809885 -3.632457 0
M  V30 29 C -0.692495 -5.754461 -3.834785 0
M  V30 30 F -1.127106 -5.388990 -5.062098 0
M  V30 31 C -1.132817 -5.053388 -2.706567 0
M  V30 32 H -2.409958 -3.258512 -1.186413 0
M  V30 33 H -4.401113 -3.953543 1.235763 0
M  V30 34 H -4.695670 -2.083328 2.980652 0
M  V30 35 H -0.990325 0.506545 2.256501 0
M  V30 36 H 1.659582 -0.232465 -0.343335 0
M  V30 37 H 4.015518 3.067938 0.533767 0
M  V30 38 H 3.369882 5.014976 0.915217 0
M  V30 39 H 3.790333 7.105550 2.119506 0
M  V30 40 H 3.035086 7.282727 4.448072 0
M  V30 41 H 1.471507 3.272736 4.271887 0
M  V30 42 H 0.380839 2.365997 2.716086 0
M  V30 43 H 0.574531 -6.834904 -0.363520 0
M  V30 44 H 0.515145 -7.342974 -4.535218 0
M  V30 45 H -1.804004 -4.245838 -2.859103 0
M  V30 END ATOM
M  V30 BEGIN BOND
M  V30 1 2 1 2
M  V30 2 1 2 3
M  V30 3 1 3 4
M  V30 4 2 4 5
M  V30 5 1 5 6
M  V30 6 1 6 7
M  V30 7 2 7 8
M  V30 8 1 8 9
M  V30 9 2 9 10
M  V30 10 1 9 11
M  V30 11 1 11 12
M  V30 12 2 12 13
M  V30 13 1 13 14
M  V30 14 2 14 15
M  V30 15 1 15 16
M  V30 16 1 16 17
M  V30 17 2 17 18
M  V30 18 1 18 19
M  V30 19 2 19 20
M  V30 20 1 20 21
M  V30 21 1 21 22
M  V30 22 2 21 23
M  V30 23 2 16 24
M  V30 24 1 2 25
M  V30 25 2 25 26
M  V30 26 1 26 27
M  V30 27 2 27 28
M  V30 28 1 28 29
M  V30 29 1 29 30
M  V30 30 2 29 31
M  V30 31 1 8 4
M  V30 32 1 24 12
M  V30 33 1 31 25
M  V30 34 1 23 17
M  V30 35 1 3 32
M  V30 36 1 5 33
M  V30 37 1 6 34
M  V30 38 1 11 35
M  V30 39 1 13 36
M  V30 40 1 15 37
M  V30 41 1 18 38
M  V30 42 1 19 39
M  V30 43 1 20 40
M  V30 44 1 23 41
M  V30 45 1 24 42
M  V30 46 1 26 43
M  V30 47 1 28 44
M  V30 48 1 31 45
M  V30 END BOND
M  V30 END CTAB
M  END
>  <Dataset>  (176) 
ChEMBL_Kinases

>  <Ligand_Instance>  (176) 
nan

>  <PDB_ID>  (176) 
nan

>  <Standardized_SMILES>  (176) 
O=C(Nc1c[nH]nc1C(=O)Nc1cncc(-c2cccc(F)c2)c1)c1cncc(F)c1

>  <Name>  (176) 
nan

>  <Pocket>  (176) 
nan

>  <ATP_Site>  (176) 
nan

>  <Peripheral>  (176) 
nan

>  <Num_H_Atoms_ProtBoundConf>  (176) 
nan

>  <Num_Resolved_Atoms>  (176) 
nan

>  <Num_Not_Resolved_Atoms>  (176) 
nan

$$$$
CHEMBL4778959
     RDKit          3D

  0  0  0  0  0  0  0  0  0  0999 V3000
M  V30 BEGIN CTAB
M  V30 COUNTS 74 79 0 0 0
M  V30 BEGIN ATOM
M  V30 1 C 4.736141 -5.647464 5.233857 0
M  V30 2 N 3.728801 -5.595279 4.227731 0
M  V30 3 C 2.510830 -4.955876 4.573278 0
M  V30 4 C 2.414325 -3.497669 4.285552 0
M  V30 5 C 3.426050 -3.066007 3.264970 0
M  V30 6 C 3.046531 -1.776335 2.638944 0
M  V30 7 N 3.621312 -0.579667 2.574455 0
M  V30 8 O 2.867687 0.203535 1.902065 0
M  V30 9 C 1.774168 -0.359378 1.473303 0
M  V30 10 C 0.594592 -0.004192 0.700742 0
M  V30 11 C -0.398733 -0.913394 0.436069 0
M  V30 12 N -1.454677 -0.524809 -0.280153 0
M  V30 13 C -1.645369 0.701940 -0.780685 0
M  V30 14 N -2.764983 1.124071 -1.544667 0
M  V30 15 C -3.885329 0.351117 -1.929720 0
M  V30 16 C -4.872977 0.950871 -2.675105 0
M  V30 17 C -6.013661 0.324259 -3.119358 0
M  V30 18 C -6.198498 -0.991949 -2.807656 0
M  V30 19 C -5.260577 -1.667582 -2.066140 0
M  V30 20 C -4.129835 -0.973625 -1.648884 0
M  V30 21 C -5.636425 -3.082801 -1.829617 0
M  V30 22 C -4.558567 -3.992728 -2.368622 0
M  V30 23 C -5.712306 -3.369034 -0.334895 0
M  V30 24 O -6.854692 -3.218110 -2.475118 0
M  V30 25 C -7.207938 -2.012915 -3.054272 0
M  V30 26 O -8.282745 -1.823579 -3.719649 0
M  V30 27 N -0.660892 1.562869 -0.505444 0
M  V30 28 C 0.431601 1.265704 0.201943 0
M  V30 29 N 1.342725 2.342282 0.388746 0
M  V30 30 C 1.312249 3.698495 -0.072702 0 CFG=2
M  V30 31 C -0.033206 4.356015 0.243352 0
M  V30 32 O -0.199291 4.322687 1.626592 0
M  V30 33 C 1.803523 3.952661 -1.418996 0
M  V30 34 C 2.614938 5.071855 -1.671501 0
M  V30 35 C 3.158661 5.446322 -2.879918 0
M  V30 36 C 2.885290 4.647815 -3.961319 0
M  V30 37 C 2.101541 3.529831 -3.819132 0
M  V30 38 C 1.601881 3.235250 -2.571138 0
M  V30 39 N 1.918039 -1.602992 1.953680 0
M  V30 40 C 3.564691 -4.158091 2.245272 0
M  V30 41 C 4.178399 -5.379153 2.890981 0
M  V30 42 H 5.744137 -5.479532 4.815604 0
M  V30 43 H 4.751170 -6.711158 5.609099 0
M  V30 44 H 4.499257 -5.038777 6.109543 0
M  V30 45 H 2.401338 -5.062716 5.692374 0
M  V30 46 H 1.635758 -5.527882 4.163479 0
M  V30 47 H 2.495763 -2.865936 5.197435 0
M  V30 48 H 1.401389 -3.244226 3.868488 0
M  V30 49 H 4.424287 -2.893769 3.752248 0
M  V30 50 H -0.331409 -1.915942 0.795806 0
M  V30 51 H -2.750730 2.134024 -1.856841 0
M  V30 52 H -4.809880 2.006502 -2.973151 0
M  V30 53 H -6.769262 0.801862 -3.695555 0
M  V30 54 H -3.397716 -1.498518 -1.071317 0
M  V30 55 H -3.580914 -3.489341 -2.137711 0
M  V30 56 H -4.569523 -4.921789 -1.799784 0
M  V30 57 H -4.592207 -4.096473 -3.468461 0
M  V30 58 H -6.489265 -4.119170 -0.099163 0
M  V30 59 H -5.986330 -2.425558 0.181980 0
M  V30 60 H -4.711371 -3.688233 0.055250 0
M  V30 61 H 2.173538 2.085695 0.959449 0
M  V30 62 H 2.020545 4.286296 0.617289 0
M  V30 63 H -0.872542 3.907005 -0.283582 0
M  V30 64 H 0.100954 5.438744 -0.043561 0
M  V30 65 H -1.145446 4.197615 1.891851 0
M  V30 66 H 2.852173 5.728188 -0.834506 0
M  V30 67 H 3.770908 6.330975 -2.959031 0
M  V30 68 H 3.302919 4.927243 -4.913540 0
M  V30 69 H 1.889035 2.903644 -4.673985 0
M  V30 70 H 0.999104 2.348155 -2.519953 0
M  V30 71 H 2.527797 -4.450977 1.961784 0
M  V30 72 H 4.087420 -3.854985 1.338722 0
M  V30 73 H 4.024775 -6.305304 2.270991 0
M  V30 74 H 5.277266 -5.215816 2.913376 0
M  V30 END ATOM
M  V30 BEGIN BOND
M  V30 1 1 1 2
M  V30 2 1 2 3
M  V30 3 1 3 4
M  V30 4 1 4 5
M  V30 5 1 5 6
M  V30 6 2 6 7
M  V30 7 1 7 8
M  V30 8 1 8 9
M  V30 9 1 9 10
M  V30 10 2 10 11
M  V30 11 1 11 12
M  V30 12 2 12 13
M  V30 13 1 13 14
M  V30 14 1 14 15
M  V30 15 2 15 16
M  V30 16 1 16 17
M  V30 17 2 17 18
M  V30 18 1 18 19
M  V30 19 2 19 20
M  V30 20 1 19 21
M  V30 21 1 21 22
M  V30 22 1 21 23
M  V30 23 1 21 24
M  V30 24 1 24 25
M  V30 25 2 25 26
M  V30 26 1 13 27
M  V30 27 2 27 28
M  V30 28 1 28 29
M  V30 29 1 29 30
M  V30 30 1 30 31
M  V30 31 1 31 32
M  V30 32 1 30 33
M  V30 33 2 33 34
M  V30 34 1 34 35
M  V30 35 2 35 36
M  V30 36 1 36 37
M  V30 37 2 37 38
M  V30 38 2 9 39
M  V30 39 1 5 40
M  V30 40 1 40 41
M  V30 41 1 41 2
M  V30 42 1 39 6
M  V30 43 1 28 10
M  V30 44 1 38 33
M  V30 45 1 20 15
M  V30 46 1 25 18
M  V30 47 1 1 42
M  V30 48 1 1 43
M  V30 49 1 1 44
M  V30 50 1 3 45
M  V30 51 1 3 46
M  V30 52 1 4 47
M  V30 53 1 4 48
M  V30 54 1 5 49
M  V30 55 1 11 50
M  V30 56 1 14 51
M  V30 57 1 16 52
M  V30 58 1 17 53
M  V30 59 1 20 54
M  V30 60 1 22 55
M  V30 61 1 22 56
M  V30 62 1 22 57
M  V30 63 1 23 58
M  V30 64 1 23 59
M  V30 65 1 23 60
M  V30 66 1 29 61
M  V30 67 1 30 62 CFG=1
M  V30 68 1 31 63
M  V30 69 1 31 64
M  V30 70 1 32 65
M  V30 71 1 34 66
M  V30 72 1 35 67
M  V30 73 1 36 68
M  V30 74 1 37 69
M  V30 75 1 38 70
M  V30 76 1 40 71
M  V30 77 1 40 72
M  V30 78 1 41 73
M  V30 79 1 41 74
M  V30 END BOND
M  V30 END CTAB
M  END
>  <Dataset>  (177) 
ChEMBL_Kinases

>  <Ligand_Instance>  (177) 
nan

>  <PDB_ID>  (177) 
nan

>  <Standardized_SMILES>  (177) 
CN1CCC(c2noc(-c3cnc(Nc4ccc5c(c4)C(C)(C)OC5=O)nc3N[C@H](CO)c3ccccc3)n2)CC1

>  <Name>  (177) 
nan

>  <Pocket>  (177) 
nan

>  <ATP_Site>  (177) 
nan

>  <Peripheral>  (177) 
nan

>  <Num_H_Atoms_ProtBoundConf>  (177) 
nan

>  <Num_Resolved_Atoms>  (177) 
nan

>  <Num_Not_Resolved_Atoms>  (177) 
nan

$$$$
CHEMBL4778963
     RDKit          3D

  0  0  0  0  0  0  0  0  0  0999 V3000
M  V30 BEGIN CTAB
M  V30 COUNTS 49 53 0 0 0
M  V30 BEGIN ATOM
M  V30 1 C 0.752568 -1.053785 6.050257 0
M  V30 2 C 0.889798 -1.895687 4.820858 0
M  V30 3 C 0.907659 -3.282694 4.872578 0
M  V30 4 C 1.041493 -3.976889 3.676845 0
M  V30 5 C 1.156362 -3.352067 2.451439 0
M  V30 6 C 1.132466 -1.962186 2.459906 0
M  V30 7 C 1.249699 -1.211986 1.202067 0
M  V30 8 N 2.159626 -0.331963 0.787427 0
M  V30 9 C 1.843098 0.105232 -0.468345 0
M  V30 10 C 2.798898 1.098884 -1.047144 0
M  V30 11 N 2.490486 2.454896 -0.718930 0
M  V30 12 C 1.376276 3.259433 -1.033103 0
M  V30 13 C 1.237485 4.585610 -0.597529 0
M  V30 14 C 0.118488 5.304396 -0.956173 0
M  V30 15 C -0.890580 4.813171 -1.722186 0
M  V30 16 C -0.791907 3.526114 -2.165617 0
M  V30 17 F -1.786881 3.014026 -2.930001 0
M  V30 18 C 0.330102 2.784335 -1.813797 0
M  V30 19 N 0.718668 -0.547678 -0.775074 0
M  V30 20 C 0.324005 -1.361089 0.218058 0
M  V30 21 C -0.885985 -2.144506 0.045167 0
M  V30 22 C -1.979287 -1.885251 0.876678 0
M  V30 23 C -3.093045 -2.667913 0.660075 0
M  V30 24 C -3.235751 -3.663073 -0.277017 0
M  V30 25 N -4.233161 -4.500053 -0.610429 0
M  V30 26 N -3.812578 -5.259244 -1.600669 0
M  V30 27 C -2.532699 -4.928750 -1.929232 0
M  V30 28 C -2.130387 -3.898669 -1.090754 0
M  V30 29 C -0.988578 -3.149905 -0.922986 0
M  V30 30 N 1.002482 -1.297221 3.622179 0
M  V30 31 H 0.045610 -1.518438 6.785361 0
M  V30 32 H 0.230369 -0.107565 5.725063 0
M  V30 33 H 1.717528 -0.757450 6.485037 0
M  V30 34 H 0.819135 -3.779181 5.831367 0
M  V30 35 H 1.054112 -5.062316 3.721718 0
M  V30 36 H 1.260158 -3.903300 1.521310 0
M  V30 37 H 2.936114 -0.123664 1.455377 0
M  V30 38 H 3.842774 0.846101 -0.852814 0
M  V30 39 H 2.663566 1.031003 -2.174120 0
M  V30 40 H 3.221266 2.944694 -0.137491 0
M  V30 41 H 2.060273 4.974458 0.021401 0
M  V30 42 H 0.049573 6.328945 -0.598561 0
M  V30 43 H -1.736026 5.441382 -1.960640 0
M  V30 44 H 0.320503 1.781768 -2.212369 0
M  V30 45 H -1.951624 -1.125897 1.631974 0
M  V30 46 H -3.941555 -2.469682 1.301506 0
M  V30 47 H -5.160110 -4.488326 -0.118505 0
M  V30 48 H -1.870519 -5.332095 -2.683186 0
M  V30 49 H -0.137067 -3.363374 -1.581375 0
M  V30 END ATOM
M  V30 BEGIN BOND
M  V30 1 1 1 2
M  V30 2 2 2 3
M  V30 3 1 3 4
M  V30 4 2 4 5
M  V30 5 1 5 6
M  V30 6 1 6 7
M  V30 7 1 7 8
M  V30 8 1 8 9
M  V30 9 1 9 10
M  V30 10 1 10 11
M  V30 11 1 11 12
M  V30 12 2 12 13
M  V30 13 1 13 14
M  V30 14 2 14 15
M  V30 15 1 15 16
M  V30 16 1 16 17
M  V30 17 2 16 18
M  V30 18 2 9 19
M  V30 19 1 19 20
M  V30 20 1 20 21
M  V30 21 2 21 22
M  V30 22 1 22 23
M  V30 23 2 23 24
M  V30 24 1 24 25
M  V30 25 1 25 26
M  V30 26 2 26 27
M  V30 27 1 27 28
M  V30 28 2 28 29
M  V30 29 2 6 30
M  V30 30 1 30 2
M  V30 31 2 20 7
M  V30 32 1 29 21
M  V30 33 1 18 12
M  V30 34 1 28 24
M  V30 35 1 1 31
M  V30 36 1 1 32
M  V30 37 1 1 33
M  V30 38 1 3 34
M  V30 39 1 4 35
M  V30 40 1 5 36
M  V30 41 1 8 37
M  V30 42 1 10 38
M  V30 43 1 10 39
M  V30 44 1 11 40
M  V30 45 1 13 41
M  V30 46 1 14 42
M  V30 47 1 15 43
M  V30 48 1 18 44
M  V30 49 1 22 45
M  V30 50 1 23 46
M  V30 51 1 25 47
M  V30 52 1 27 48
M  V30 53 1 29 49
M  V30 END BOND
M  V30 END CTAB
M  END
>  <Dataset>  (178) 
ChEMBL_Kinases

>  <Ligand_Instance>  (178) 
nan

>  <PDB_ID>  (178) 
nan

>  <Standardized_SMILES>  (178) 
Cc1cccc(-c2[nH]c(CNc3cccc(F)c3)nc2-c2ccc3[nH]ncc3c2)n1

>  <Name>  (178) 
nan

>  <Pocket>  (178) 
nan

>  <ATP_Site>  (178) 
nan

>  <Peripheral>  (178) 
nan

>  <Num_H_Atoms_ProtBoundConf>  (178) 
nan

>  <Num_Resolved_Atoms>  (178) 
nan

>  <Num_Not_Resolved_Atoms>  (178) 
nan

$$$$
CHEMBL4778971
     RDKit          3D

  0  0  0  0  0  0  0  0  0  0999 V3000
M  V30 BEGIN CTAB
M  V30 COUNTS 57 62 0 0 0
M  V30 BEGIN ATOM
M  V30 1 C 2.681344 -7.464600 3.850660 0
M  V30 2 C 2.457969 -6.817706 2.535572 0
M  V30 3 C 2.533033 -5.439098 2.365533 0
M  V30 4 C 2.328249 -4.783483 1.140803 0
M  V30 5 C 2.466364 -3.342784 1.198433 0
M  V30 6 C 3.649501 -2.814349 1.731073 0
M  V30 7 N 3.560973 -1.451266 1.721986 0
M  V30 8 C 2.363201 -1.123605 1.202606 0
M  V30 9 C 1.759004 0.100784 0.977126 0
M  V30 10 C 0.489630 0.170217 0.434869 0
M  V30 11 C -0.249881 1.401181 0.150758 0
M  V30 12 C -0.125225 2.560239 0.897352 0
M  V30 13 C -0.854739 3.704359 0.583969 0
M  V30 14 C -1.735273 3.725022 -0.490152 0
M  V30 15 C -2.438574 4.991297 -0.706966 0
M  V30 16 C -3.552194 4.943266 -1.702708 0
M  V30 17 N -4.696816 5.664961 -1.151107 0
M  V30 18 C -5.188465 4.843519 -0.052543 0
M  V30 19 C -4.108729 4.898913 1.015741 0
M  V30 20 N -2.928551 5.584865 0.516621 0
M  V30 21 C -1.819754 2.548200 -1.196651 0
M  V30 22 C -1.121071 1.393273 -0.926737 0
M  V30 23 C -0.123647 -1.033892 0.139556 0
M  V30 24 C 0.490343 -2.245697 0.369327 0
M  V30 25 N 1.725483 -2.265998 0.897166 0
M  V30 26 C 2.045876 -5.640726 0.115378 0
M  V30 27 C 1.859394 -5.023372 -1.097552 0
M  V30 28 C 1.576595 -5.702104 -2.262792 0
M  V30 29 F 1.377386 -5.207974 -3.490003 0
M  V30 30 C 1.487606 -7.097342 -2.140391 0
M  V30 31 C 1.680419 -7.690486 -0.914477 0
M  V30 32 F 1.585178 -9.049059 -0.840481 0
M  V30 33 C 1.963139 -7.006893 0.246037 0
M  V30 34 N 2.166307 -7.559631 1.429478 0
M  V30 35 H 2.095541 -8.403169 3.884845 0
M  V30 36 H 2.359721 -6.808465 4.689233 0
M  V30 37 H 3.753938 -7.715265 4.015834 0
M  V30 38 H 2.769287 -4.903553 3.286681 0
M  V30 39 H 4.558964 -3.257640 2.121706 0
M  V30 40 H 2.229474 1.041175 1.204113 0
M  V30 41 H 0.579425 2.445611 1.706946 0
M  V30 42 H -0.606220 4.483127 1.285552 0
M  V30 43 H -1.687571 5.726863 -1.115814 0
M  V30 44 H -3.313004 5.509061 -2.653583 0
M  V30 45 H -3.911489 3.921922 -1.952795 0
M  V30 46 H -4.319897 6.577312 -0.755441 0
M  V30 47 H -6.161247 5.192611 0.326428 0
M  V30 48 H -5.323960 3.804762 -0.413858 0
M  V30 49 H -4.490963 5.465489 1.871177 0
M  V30 50 H -3.843481 3.888256 1.348178 0
M  V30 51 H -2.253033 5.653204 1.277913 0
M  V30 52 H -2.484004 2.530577 -2.031064 0
M  V30 53 H -1.261979 0.521663 -1.547657 0
M  V30 54 H -1.124650 -1.083373 -0.290351 0
M  V30 55 H -0.012097 -3.196870 0.129932 0
M  V30 56 H 1.936564 -3.960061 -1.244571 0
M  V30 57 H 1.268619 -7.717019 -2.999800 0
M  V30 END ATOM
M  V30 BEGIN BOND
M  V30 1 1 1 2
M  V30 2 2 2 3
M  V30 3 1 3 4
M  V30 4 1 4 5
M  V30 5 2 5 6
M  V30 6 1 6 7
M  V30 7 2 7 8
M  V30 8 1 8 9
M  V30 9 2 9 10
M  V30 10 1 10 11
M  V30 11 2 11 12
M  V30 12 1 12 13
M  V30 13 2 13 14
M  V30 14 1 14 15
M  V30 15 1 15 16
M  V30 16 1 16 17
M  V30 17 1 17 18
M  V30 18 1 18 19
M  V30 19 1 19 20
M  V30 20 1 14 21
M  V30 21 2 21 22
M  V30 22 1 10 23
M  V30 23 2 23 24
M  V30 24 1 24 25
M  V30 25 2 4 26
M  V30 26 1 26 27
M  V30 27 2 27 28
M  V30 28 1 28 29
M  V30 29 1 28 30
M  V30 30 2 30 31
M  V30 31 1 31 32
M  V30 32 1 31 33
M  V30 33 2 33 34
M  V30 34 1 34 2
M  V30 35 1 25 5
M  V30 36 1 33 26
M  V30 37 1 25 8
M  V30 38 1 22 11
M  V30 39 1 20 15
M  V30 40 1 1 35
M  V30 41 1 1 36
M  V30 42 1 1 37
M  V30 43 1 3 38
M  V30 44 1 6 39
M  V30 45 1 9 40
M  V30 46 1 12 41
M  V30 47 1 13 42
M  V30 48 1 15 43
M  V30 49 1 16 44
M  V30 50 1 16 45
M  V30 51 1 17 46
M  V30 52 1 18 47
M  V30 53 1 18 48
M  V30 54 1 19 49
M  V30 55 1 19 50
M  V30 56 1 20 51
M  V30 57 1 21 52
M  V30 58 1 22 53
M  V30 59 1 23 54
M  V30 60 1 24 55
M  V30 61 1 27 56
M  V30 62 1 30 57
M  V30 END BOND
M  V30 END CTAB
M  END
>  <Dataset>  (179) 
ChEMBL_Kinases

>  <Ligand_Instance>  (179) 
nan

>  <PDB_ID>  (179) 
nan

>  <Standardized_SMILES>  (179) 
Cc1cc(-c2cnc3cc(-c4ccc(C5CNCCN5)cc4)ccn23)c2cc(F)cc(F)c2n1

>  <Name>  (179) 
nan

>  <Pocket>  (179) 
nan

>  <ATP_Site>  (179) 
nan

>  <Peripheral>  (179) 
nan

>  <Num_H_Atoms_ProtBoundConf>  (179) 
nan

>  <Num_Resolved_Atoms>  (179) 
nan

>  <Num_Not_Resolved_Atoms>  (179) 
nan

$$$$
CHEMBL4779023
     RDKit          3D

  0  0  0  0  0  0  0  0  0  0999 V3000
M  V30 BEGIN CTAB
M  V30 COUNTS 113 117 0 0 0
M  V30 BEGIN ATOM
M  V30 1 C 9.235225 -4.614580 1.530035 0
M  V30 2 N 8.028829 -4.015272 2.031497 0
M  V30 3 C 7.600949 -4.277215 3.384717 0
M  V30 4 O 8.088028 -5.214622 4.042202 0
M  V30 5 C 6.547609 -3.315028 3.860529 0
M  V30 6 C 5.406461 -3.355929 2.905820 0
M  V30 7 C 5.741962 -3.128677 1.471883 0
M  V30 8 N 5.135511 -1.932376 0.898784 0
M  V30 9 C 4.219253 -1.847175 -0.190733 0
M  V30 10 O 3.824036 -2.890674 -0.784092 0
M  V30 11 C 3.907458 -0.434757 -0.404630 0
M  V30 12 C 3.073238 0.124737 -1.350381 0
M  V30 13 C 2.992059 1.496882 -1.300386 0
M  V30 14 C 3.686981 2.247580 -0.380379 0
M  V30 15 N 3.639525 3.658571 -0.330676 0
M  V30 16 C 3.142257 4.880024 -0.859864 0
M  V30 17 C 2.360631 4.672493 -2.157599 0
M  V30 18 O 1.924596 5.873554 -2.658960 0
M  V30 19 C 1.266238 5.762623 -3.832785 0
M  V30 20 C -0.045102 5.067103 -3.891195 0
M  V30 21 O -0.084202 3.771188 -3.504981 0
M  V30 22 C -1.373625 3.214265 -3.602251 0
M  V30 23 C -1.892942 3.123145 -4.986613 0
M  V30 24 O -3.096182 2.633364 -5.241520 0
M  V30 25 C -3.614826 1.449962 -4.964771 0
M  V30 26 C -2.900015 0.213659 -5.441696 0
M  V30 27 O -3.665474 -0.897304 -5.078107 0
M  V30 28 C -3.050430 -2.085015 -5.342621 0
M  V30 29 C -2.003633 -2.404707 -4.293623 0
M  V30 30 O -2.510028 -2.560152 -3.054458 0
M  V30 31 C -3.150069 -1.624657 -2.355173 0
M  V30 32 C -2.336594 -0.412018 -1.938384 0
M  V30 33 N -1.249553 -0.930890 -1.090909 0
M  V30 34 C -0.380462 0.097223 -0.623999 0
M  V30 35 C -0.982333 1.058158 0.368901 0
M  V30 36 C -1.452593 0.267868 1.547097 0
M  V30 37 O -1.991122 0.988957 2.587326 0
M  V30 38 N -3.151792 0.444504 3.019934 0
M  V30 39 C -3.933261 -0.482309 3.724960 0
M  V30 40 O -3.215393 -1.312831 4.316212 0
M  V30 41 C -5.372771 -0.369018 3.679182 0
M  V30 42 C -6.031912 0.680445 3.119668 0
M  V30 43 C -7.426013 0.679381 3.188980 0
M  V30 44 C -8.149120 -0.317758 3.787343 0
M  V30 45 F -9.496030 -0.367924 3.882029 0
M  V30 46 C -7.414069 -1.367102 4.342098 0
M  V30 47 F -8.099401 -2.374316 4.940232 0
M  V30 48 C -6.016296 -1.412800 4.297962 0
M  V30 49 N -5.353160 -2.525392 4.841864 0
M  V30 50 C -5.198609 -3.838459 4.352587 0
M  V30 51 C -5.653720 -4.893686 5.139364 0
M  V30 52 C -5.603765 -6.260706 4.839080 0
M  V30 53 C -5.026741 -6.525151 3.608850 0
M  V30 54 I -4.871464 -8.537800 3.001611 0
M  V30 55 C -4.540980 -5.570845 2.743206 0
M  V30 56 C -4.655677 -4.269352 3.168123 0
M  V30 57 F -4.192574 -3.320390 2.317245 0
M  V30 58 C 4.495549 1.625193 0.529984 0
M  V30 59 C 4.628077 0.257799 0.540539 0
M  V30 60 C 5.417638 -0.629156 1.386674 0
M  V30 61 O 6.176002 -0.303771 2.333291 0
M  V30 62 C 7.213568 -3.146967 1.216033 0
M  V30 63 O 7.840391 -2.478671 0.352911 0
M  V30 64 H 9.340353 -5.623137 2.011655 0
M  V30 65 H 9.197990 -4.854765 0.435209 0
M  V30 66 H 10.159854 -4.070152 1.788925 0
M  V30 67 H 6.172219 -3.719917 4.834985 0
M  V30 68 H 6.955170 -2.301943 4.031227 0
M  V30 69 H 4.841724 -4.304921 3.076749 0
M  V30 70 H 4.675312 -2.547417 3.187450 0
M  V30 71 H 5.360006 -4.022302 0.888094 0
M  V30 72 H 2.548157 -0.511497 -2.051716 0
M  V30 73 H 2.348688 1.958338 -2.031900 0
M  V30 74 H 4.209872 4.134912 0.440589 0
M  V30 75 H 2.422049 5.426101 -0.189761 0
M  V30 76 H 3.912726 5.645155 -1.113074 0
M  V30 77 H 1.459111 4.103136 -1.844319 0
M  V30 78 H 3.025516 4.145247 -2.852761 0
M  V30 79 H 1.170318 6.831261 -4.231231 0
M  V30 80 H 1.980381 5.303076 -4.596265 0
M  V30 81 H -0.420062 5.231314 -4.957679 0
M  V30 82 H -0.777353 5.706673 -3.303289 0
M  V30 83 H -1.291238 2.211216 -3.147097 0
M  V30 84 H -2.075491 3.772732 -2.918460 0
M  V30 85 H -1.062463 2.666045 -5.607908 0
M  V30 86 H -1.916070 4.203558 -5.390419 0
M  V30 87 H -4.637400 1.389896 -5.468362 0
M  V30 88 H -3.893368 1.313831 -3.869760 0
M  V30 89 H -1.873227 0.116885 -5.135123 0
M  V30 90 H -2.929837 0.233093 -6.570732 0
M  V30 91 H -3.780408 -2.939346 -5.412886 0
M  V30 92 H -2.541146 -2.092181 -6.346094 0
M  V30 93 H -1.195431 -1.635251 -4.353914 0
M  V30 94 H -1.472027 -3.364702 -4.573319 0
M  V30 95 H -4.090016 -1.305224 -2.895535 0
M  V30 96 H -3.552293 -2.136182 -1.409803 0
M  V30 97 H -2.921136 0.271772 -1.305494 0
M  V30 98 H -1.850713 0.010781 -2.809487 0
M  V30 99 H -0.689645 -1.531670 -1.755849 0
M  V30 100 H 0.499305 -0.412021 -0.155831 0
M  V30 101 H -0.011658 0.660452 -1.527965 0
M  V30 102 H -1.853286 1.539882 -0.144186 0
M  V30 103 H -0.199694 1.815068 0.614732 0
M  V30 104 H -0.554654 -0.264484 1.976946 0
M  V30 105 H -2.152944 -0.515884 1.175697 0
M  V30 106 H -3.499213 1.240644 2.439060 0
M  V30 107 H -5.505618 1.475233 2.646196 0
M  V30 108 H -8.000814 1.497615 2.756231 0
M  V30 109 H -4.928008 -2.260638 5.765573 0
M  V30 110 H -6.107995 -4.647715 6.112533 0
M  V30 111 H -5.985539 -6.980159 5.521838 0
M  V30 112 H -4.094182 -5.806636 1.788957 0
M  V30 113 H 5.070443 2.163838 1.281540 0
M  V30 END ATOM
M  V30 BEGIN BOND
M  V30 1 1 1 2
M  V30 2 1 2 3
M  V30 3 2 3 4
M  V30 4 1 3 5
M  V30 5 1 5 6
M  V30 6 1 6 7
M  V30 7 1 7 8
M  V30 8 1 8 9
M  V30 9 2 9 10
M  V30 10 1 9 11
M  V30 11 2 11 12
M  V30 12 1 12 13
M  V30 13 2 13 14
M  V30 14 1 14 15
M  V30 15 1 15 16
M  V30 16 1 16 17
M  V30 17 1 17 18
M  V30 18 1 18 19
M  V30 19 1 19 20
M  V30 20 1 20 21
M  V30 21 1 21 22
M  V30 22 1 22 23
M  V30 23 1 23 24
M  V30 24 1 24 25
M  V30 25 1 25 26
M  V30 26 1 26 27
M  V30 27 1 27 28
M  V30 28 1 28 29
M  V30 29 1 29 30
M  V30 30 1 30 31
M  V30 31 1 31 32
M  V30 32 1 32 33
M  V30 33 1 33 34
M  V30 34 1 34 35
M  V30 35 1 35 36
M  V30 36 1 36 37
M  V30 37 1 37 38
M  V30 38 1 38 39
M  V30 39 2 39 40
M  V30 40 1 39 41
M  V30 41 2 41 42
M  V30 42 1 42 43
M  V30 43 2 43 44
M  V30 44 1 44 45
M  V30 45 1 44 46
M  V30 46 1 46 47
M  V30 47 2 46 48
M  V30 48 1 48 49
M  V30 49 1 49 50
M  V30 50 2 50 51
M  V30 51 1 51 52
M  V30 52 2 52 53
M  V30 53 1 53 54
M  V30 54 1 53 55
M  V30 55 2 55 56
M  V30 56 1 56 57
M  V30 57 1 14 58
M  V30 58 2 58 59
M  V30 59 1 59 60
M  V30 60 2 60 61
M  V30 61 1 7 62
M  V30 62 2 62 63
M  V30 63 1 62 2
M  V30 64 1 60 8
M  V30 65 1 59 11
M  V30 66 1 48 41
M  V30 67 1 56 50
M  V30 68 1 1 64
M  V30 69 1 1 65
M  V30 70 1 1 66
M  V30 71 1 5 67
M  V30 72 1 5 68
M  V30 73 1 6 69
M  V30 74 1 6 70
M  V30 75 1 7 71
M  V30 76 1 12 72
M  V30 77 1 13 73
M  V30 78 1 15 74
M  V30 79 1 16 75
M  V30 80 1 16 76
M  V30 81 1 17 77
M  V30 82 1 17 78
M  V30 83 1 19 79
M  V30 84 1 19 80
M  V30 85 1 20 81
M  V30 86 1 20 82
M  V30 87 1 22 83
M  V30 88 1 22 84
M  V30 89 1 23 85
M  V30 90 1 23 86
M  V30 91 1 25 87
M  V30 92 1 25 88
M  V30 93 1 26 89
M  V30 94 1 26 90
M  V30 95 1 28 91
M  V30 96 1 28 92
M  V30 97 1 29 93
M  V30 98 1 29 94
M  V30 99 1 31 95
M  V30 100 1 31 96
M  V30 101 1 32 97
M  V30 102 1 32 98
M  V30 103 1 33 99
M  V30 104 1 34 100
M  V30 105 1 34 101
M  V30 106 1 35 102
M  V30 107 1 35 103
M  V30 108 1 36 104
M  V30 109 1 36 105
M  V30 110 1 38 106
M  V30 111 1 42 107
M  V30 112 1 43 108
M  V30 113 1 49 109
M  V30 114 1 51 110
M  V30 115 1 52 111
M  V30 116 1 55 112
M  V30 117 1 58 113
M  V30 END BOND
M  V30 END CTAB
M  END
>  <Dataset>  (180) 
ChEMBL_Kinases

>  <Ligand_Instance>  (180) 
nan

>  <PDB_ID>  (180) 
nan

>  <Standardized_SMILES>  (180) 
CN1C(=O)CCC(N2C(=O)c3ccc(NCCOCCOCCOCCOCCOCCNCCCONC(=O)c4ccc(F)c(F)c4Nc4ccc(I)cc4F)cc3C2=O)C1=O

>  <Name>  (180) 
nan

>  <Pocket>  (180) 
nan

>  <ATP_Site>  (180) 
nan

>  <Peripheral>  (180) 
nan

>  <Num_H_Atoms_ProtBoundConf>  (180) 
nan

>  <Num_Resolved_Atoms>  (180) 
nan

>  <Num_Not_Resolved_Atoms>  (180) 
nan

$$$$
CHEMBL4779066
     RDKit          3D

  0  0  0  0  0  0  0  0  0  0999 V3000
M  V30 BEGIN CTAB
M  V30 COUNTS 60 63 0 0 0
M  V30 BEGIN ATOM
M  V30 1 C 0.379602 -1.487782 8.045550 0
M  V30 2 C 0.544049 -0.858017 6.918159 0
M  V30 3 C 1.561713 -1.427912 6.054242 0
M  V30 4 O 2.163823 -2.443569 6.465754 0
M  V30 5 N 1.890596 -0.874736 4.769546 0
M  V30 6 C 2.920134 -1.494618 3.944090 0
M  V30 7 C 4.036363 -0.576704 3.622264 0
M  V30 8 C 3.611957 0.443637 2.593193 0
M  V30 9 C 3.253414 -0.218024 1.288528 0
M  V30 10 C 2.091201 0.422630 0.642884 0
M  V30 11 C 0.924070 0.818312 1.266181 0
M  V30 12 C -0.131305 1.405853 0.598751 0
M  V30 13 C -0.030570 1.615827 -0.761228 0
M  V30 14 C -1.120752 2.242382 -1.584140 0
M  V30 15 C -0.675596 3.463098 -2.322244 0
M  V30 16 C -1.691724 1.216489 -2.529525 0
M  V30 17 O -1.634312 1.423111 -3.769911 0
M  V30 18 N -2.284783 0.036631 -2.057353 0
M  V30 19 C -2.848142 -0.988942 -2.865239 0
M  V30 20 C -3.439975 -2.148657 -2.401055 0
M  V30 21 C -3.867403 -2.905226 -3.469806 0
M  V30 22 C -4.556268 -4.219650 -3.389908 0
M  V30 23 C -4.191544 -5.313705 -4.378406 0
M  V30 24 C -5.477131 -4.619394 -4.542342 0
M  V30 25 N -3.534365 -2.204974 -4.565009 0
M  V30 26 N -2.930381 -1.069012 -4.205155 0
M  V30 27 C 1.098745 1.252572 -1.466110 0
M  V30 28 C 2.114687 0.669648 -0.733457 0
M  V30 29 C 3.005853 -1.691530 1.470314 0
M  V30 30 C 2.313310 -2.061083 2.715676 0
M  V30 31 H -0.322344 -1.233726 8.831222 0
M  V30 32 H 0.370930 -2.117602 8.924436 0
M  V30 33 H -0.093916 0.000549 6.774818 0
M  V30 34 H 1.307328 -0.033769 4.568654 0
M  V30 35 H 3.280785 -2.357805 4.562641 0
M  V30 36 H 4.317503 0.002847 4.531359 0
M  V30 37 H 4.902608 -1.179327 3.269464 0
M  V30 38 H 4.459104 1.133575 2.431664 0
M  V30 39 H 2.774598 1.017062 3.009458 0
M  V30 40 H 4.117671 -0.136118 0.604008 0
M  V30 41 H 0.844706 0.660440 2.321770 0
M  V30 42 H -1.021630 1.702844 1.107740 0
M  V30 43 H -1.976610 2.522078 -0.937171 0
M  V30 44 H 0.086465 3.985744 -1.699920 0
M  V30 45 H -0.234505 3.239959 -3.315940 0
M  V30 46 H -1.538359 4.154903 -2.411245 0
M  V30 47 H -2.295655 -0.064015 -1.024116 0
M  V30 48 H -3.537555 -2.395997 -1.359777 0
M  V30 49 H -4.788759 -4.631349 -2.385808 0
M  V30 50 H -4.227886 -6.369573 -4.069401 0
M  V30 51 H -3.347833 -5.109139 -5.094787 0
M  V30 52 H -6.422255 -5.095217 -4.253138 0
M  V30 53 H -5.619217 -3.799108 -5.279597 0
M  V30 54 H -2.593085 -0.382362 -4.885978 0
M  V30 55 H 1.193189 1.409490 -2.530454 0
M  V30 56 H 3.030306 0.366945 -1.263082 0
M  V30 57 H 2.408761 -2.018833 0.614351 0
M  V30 58 H 3.991078 -2.211350 1.418899 0
M  V30 59 H 2.137324 -3.160568 2.820904 0
M  V30 60 H 1.258663 -1.652194 2.629653 0
M  V30 END ATOM
M  V30 BEGIN BOND
M  V30 1 2 1 2
M  V30 2 1 2 3
M  V30 3 2 3 4
M  V30 4 1 3 5
M  V30 5 1 5 6
M  V30 6 1 6 7
M  V30 7 1 7 8
M  V30 8 1 8 9
M  V30 9 1 9 10
M  V30 10 2 10 11
M  V30 11 1 11 12
M  V30 12 2 12 13
M  V30 13 1 13 14
M  V30 14 1 14 15
M  V30 15 1 14 16
M  V30 16 2 16 17
M  V30 17 1 16 18
M  V30 18 1 18 19
M  V30 19 2 19 20
M  V30 20 1 20 21
M  V30 21 1 21 22
M  V30 22 1 22 23
M  V30 23 1 23 24
M  V30 24 2 21 25
M  V30 25 1 25 26
M  V30 26 1 13 27
M  V30 27 2 27 28
M  V30 28 1 9 29
M  V30 29 1 29 30
M  V30 30 1 30 6
M  V30 31 1 28 10
M  V30 32 1 26 19
M  V30 33 1 24 22
M  V30 34 1 1 31
M  V30 35 1 1 32
M  V30 36 1 2 33
M  V30 37 1 5 34
M  V30 38 1 6 35
M  V30 39 1 7 36
M  V30 40 1 7 37
M  V30 41 1 8 38
M  V30 42 1 8 39
M  V30 43 1 9 40
M  V30 44 1 11 41
M  V30 45 1 12 42
M  V30 46 1 14 43
M  V30 47 1 15 44
M  V30 48 1 15 45
M  V30 49 1 15 46
M  V30 50 1 18 47
M  V30 51 1 20 48
M  V30 52 1 22 49
M  V30 53 1 23 50
M  V30 54 1 23 51
M  V30 55 1 24 52
M  V30 56 1 24 53
M  V30 57 1 26 54
M  V30 58 1 27 55
M  V30 59 1 28 56
M  V30 60 1 29 57
M  V30 61 1 29 58
M  V30 62 1 30 59
M  V30 63 1 30 60
M  V30 END BOND
M  V30 END CTAB
M  END
>  <Dataset>  (181) 
ChEMBL_Kinases

>  <Ligand_Instance>  (181) 
nan

>  <PDB_ID>  (181) 
nan

>  <Standardized_SMILES>  (181) 
C=CC(=O)NC1CCC(c2ccc(C(C)C(=O)Nc3cc(C4CC4)n[nH]3)cc2)CC1

>  <Name>  (181) 
nan

>  <Pocket>  (181) 
nan

>  <ATP_Site>  (181) 
nan

>  <Peripheral>  (181) 
nan

>  <Num_H_Atoms_ProtBoundConf>  (181) 
nan

>  <Num_Resolved_Atoms>  (181) 
nan

>  <Num_Not_Resolved_Atoms>  (181) 
nan

$$$$
CHEMBL4779166
     RDKit          3D

  0  0  0  0  0  0  0  0  0  0999 V3000
M  V30 BEGIN CTAB
M  V30 COUNTS 56 58 0 0 0
M  V30 BEGIN ATOM
M  V30 1 C 4.177827 -1.258779 4.221939 0
M  V30 2 C 3.744114 -0.662150 2.904154 0
M  V30 3 N 4.634986 0.247549 2.302712 0
M  V30 4 C 4.828631 1.506756 2.926443 0
M  V30 5 C 5.569617 1.388882 4.231996 0
M  V30 6 C 4.694705 0.254554 0.890129 0
M  V30 7 C 3.539818 0.789997 0.129330 0
M  V30 8 N 2.307998 0.078569 0.341883 0
M  V30 9 C 1.309938 0.702317 -0.455347 0
M  V30 10 O 1.774923 1.689175 -1.108038 0
M  V30 11 C -0.110861 0.418525 -0.647896 0
M  V30 12 C -0.915238 1.281061 -1.374469 0
M  V30 13 C -0.620864 2.585172 -2.057952 0
M  V30 14 N -2.142125 0.701876 -1.358930 0
M  V30 15 C -2.197274 -0.456339 -0.687785 0
M  V30 16 C -3.267488 -1.408640 -0.438315 0
M  V30 17 C -4.128227 -1.981741 -1.246019 0
M  V30 18 C -4.138493 -1.726041 -2.670343 0
M  V30 19 O -3.371854 -0.989750 -3.316466 0
M  V30 20 N -5.199041 -2.483250 -3.204145 0
M  V30 21 C -5.829172 -3.189775 -2.144163 0
M  V30 22 C -6.915076 -4.067302 -2.128017 0
M  V30 23 C -7.350442 -4.636123 -0.949141 0
M  V30 24 F -8.411423 -5.496384 -0.922009 0
M  V30 25 C -6.697705 -4.330720 0.243229 0
M  V30 26 C -5.606283 -3.457925 0.279451 0
M  V30 27 C -5.195107 -2.904111 -0.926020 0
M  V30 28 C -0.890784 -0.664075 -0.214582 0
M  V30 29 C -0.400438 -1.812616 0.589147 0
M  V30 30 H 5.235063 -1.161655 4.451843 0
M  V30 31 H 3.916559 -2.362145 4.266868 0
M  V30 32 H 3.581035 -0.811094 5.037315 0
M  V30 33 H 3.648436 -1.545354 2.206799 0
M  V30 34 H 2.747737 -0.168526 2.995622 0
M  V30 35 H 3.860923 2.020630 3.183175 0
M  V30 36 H 5.448699 2.138784 2.258421 0
M  V30 37 H 6.521512 0.799597 4.139666 0
M  V30 38 H 4.960019 1.115482 5.092156 0
M  V30 39 H 5.954104 2.429363 4.486575 0
M  V30 40 H 4.845408 -0.830317 0.579782 0
M  V30 41 H 5.667003 0.723554 0.596711 0
M  V30 42 H 3.416511 1.893264 0.260054 0
M  V30 43 H 3.793122 0.669116 -0.962851 0
M  V30 44 H 1.909234 -0.722953 0.867749 0
M  V30 45 H -0.303377 2.375176 -3.093998 0
M  V30 46 H -1.598416 3.140992 -2.137935 0
M  V30 47 H 0.086739 3.206643 -1.474449 0
M  V30 48 H -2.972322 1.145958 -1.825427 0
M  V30 49 H -3.364048 -1.693771 0.622063 0
M  V30 50 H -5.447504 -2.492175 -4.223297 0
M  V30 51 H -7.434234 -4.309945 -3.068986 0
M  V30 52 H -6.999546 -4.750317 1.194014 0
M  V30 53 H -5.083452 -3.208487 1.199378 0
M  V30 54 H -0.155894 -1.575201 1.627759 0
M  V30 55 H 0.431374 -2.370208 0.064403 0
M  V30 56 H -1.235845 -2.580987 0.568661 0
M  V30 END ATOM
M  V30 BEGIN BOND
M  V30 1 1 1 2
M  V30 2 1 2 3
M  V30 3 1 3 4
M  V30 4 1 4 5
M  V30 5 1 3 6
M  V30 6 1 6 7
M  V30 7 1 7 8
M  V30 8 1 8 9
M  V30 9 2 9 10
M  V30 10 1 9 11
M  V30 11 2 11 12
M  V30 12 1 12 13
M  V30 13 1 12 14
M  V30 14 1 14 15
M  V30 15 1 15 16
M  V30 16 2 16 17
M  V30 17 1 17 18
M  V30 18 2 18 19
M  V30 19 1 18 20
M  V30 20 1 20 21
M  V30 21 2 21 22
M  V30 22 1 22 23
M  V30 23 1 23 24
M  V30 24 2 23 25
M  V30 25 1 25 26
M  V30 26 2 26 27
M  V30 27 2 15 28
M  V30 28 1 28 29
M  V30 29 1 28 11
M  V30 30 1 27 17
M  V30 31 1 27 21
M  V30 32 1 1 30
M  V30 33 1 1 31
M  V30 34 1 1 32
M  V30 35 1 2 33
M  V30 36 1 2 34
M  V30 37 1 4 35
M  V30 38 1 4 36
M  V30 39 1 5 37
M  V30 40 1 5 38
M  V30 41 1 5 39
M  V30 42 1 6 40
M  V30 43 1 6 41
M  V30 44 1 7 42
M  V30 45 1 7 43
M  V30 46 1 8 44
M  V30 47 1 13 45
M  V30 48 1 13 46
M  V30 49 1 13 47
M  V30 50 1 14 48
M  V30 51 1 16 49
M  V30 52 1 20 50
M  V30 53 1 22 51
M  V30 54 1 25 52
M  V30 55 1 26 53
M  V30 56 1 29 54
M  V30 57 1 29 55
M  V30 58 1 29 56
M  V30 END BOND
M  V30 END CTAB
M  END
>  <Dataset>  (182) 
ChEMBL_Kinases

>  <Ligand_Instance>  (182) 
nan

>  <PDB_ID>  (182) 
nan

>  <Standardized_SMILES>  (182) 
CCN(CC)CCNC(=O)c1c(C)[nH]c(/C=C2\C(=O)Nc3cc(F)ccc32)c1C

>  <Name>  (182) 
nan

>  <Pocket>  (182) 
nan

>  <ATP_Site>  (182) 
nan

>  <Peripheral>  (182) 
nan

>  <Num_H_Atoms_ProtBoundConf>  (182) 
nan

>  <Num_Resolved_Atoms>  (182) 
nan

>  <Num_Not_Resolved_Atoms>  (182) 
nan

$$$$
CHEMBL4779423
     RDKit          3D

  0  0  0  0  0  0  0  0  0  0999 V3000
M  V30 BEGIN CTAB
M  V30 COUNTS 42 44 0 0 0
M  V30 BEGIN ATOM
M  V30 1 C 1.345042 -6.001487 3.852816 0
M  V30 2 O 0.596385 -5.103779 3.068438 0
M  V30 3 C 0.980154 -3.802032 2.834100 0
M  V30 4 C 2.157057 -3.361026 3.398296 0
M  V30 5 C 2.557308 -2.065388 3.177193 0
M  V30 6 C 1.840081 -1.176862 2.416016 0
M  V30 7 N 2.310287 0.150063 2.251068 0
M  V30 8 C 1.820969 1.191512 1.421843 0
M  V30 9 N 2.376227 2.432540 1.511794 0
M  V30 10 C 1.952958 3.442620 0.740291 0
M  V30 11 C 0.943731 3.292443 -0.180266 0
M  V30 12 C 0.467208 4.396031 -1.037813 0
M  V30 13 F 0.618272 4.122863 -2.395327 0
M  V30 14 F 1.161417 5.563826 -0.789599 0
M  V30 15 F -0.867754 4.699615 -0.770959 0
M  V30 16 C 0.381191 2.042206 -0.274519 0
M  V30 17 N -0.660384 1.855255 -1.220959 0
M  V30 18 C -1.490072 0.770861 -1.655330 0
M  V30 19 C -0.665016 -0.401553 -2.233334 0
M  V30 20 C -1.614339 0.350875 -3.070389 0
M  V30 21 N 0.835790 1.061907 0.516951 0
M  V30 22 C 0.674353 -1.659323 1.873050 0
M  V30 23 C 0.218041 -2.940339 2.054908 0
M  V30 24 O -0.927246 -3.518953 1.561007 0
M  V30 25 C -1.832345 -2.819183 0.755939 0
M  V30 26 H 1.671809 -5.498520 4.774308 0
M  V30 27 H 2.247478 -6.331489 3.265347 0
M  V30 28 H 0.705812 -6.877811 4.112205 0
M  V30 29 H 2.798867 -3.996166 4.019976 0
M  V30 30 H 3.503614 -1.749652 3.645253 0
M  V30 31 H 3.162083 0.409714 2.838692 0
M  V30 32 H 2.433500 4.403367 0.859730 0
M  V30 33 H -1.002549 2.613684 -1.810189 0
M  V30 34 H -2.278250 0.492076 -0.941512 0
M  V30 35 H -0.897146 -1.390782 -1.816007 0
M  V30 36 H 0.412247 -0.227683 -2.431204 0
M  V30 37 H -2.561833 -0.161490 -3.342766 0
M  V30 38 H -1.188880 0.987810 -3.889535 0
M  V30 39 H 0.063812 -1.030455 1.270009 0
M  V30 40 H -2.885733 -3.144063 1.004793 0
M  V30 41 H -1.803675 -1.751365 0.991644 0
M  V30 42 H -1.695578 -3.062412 -0.324244 0
M  V30 END ATOM
M  V30 BEGIN BOND
M  V30 1 1 1 2
M  V30 2 1 2 3
M  V30 3 2 3 4
M  V30 4 1 4 5
M  V30 5 2 5 6
M  V30 6 1 6 7
M  V30 7 1 7 8
M  V30 8 2 8 9
M  V30 9 1 9 10
M  V30 10 2 10 11
M  V30 11 1 11 12
M  V30 12 1 12 13
M  V30 13 1 12 14
M  V30 14 1 12 15
M  V30 15 1 11 16
M  V30 16 1 16 17
M  V30 17 1 17 18
M  V30 18 1 18 19
M  V30 19 1 19 20
M  V30 20 2 16 21
M  V30 21 1 6 22
M  V30 22 2 22 23
M  V30 23 1 23 24
M  V30 24 1 24 25
M  V30 25 1 23 3
M  V30 26 1 21 8
M  V30 27 1 20 18
M  V30 28 1 1 26
M  V30 29 1 1 27
M  V30 30 1 1 28
M  V30 31 1 4 29
M  V30 32 1 5 30
M  V30 33 1 7 31
M  V30 34 1 10 32
M  V30 35 1 17 33
M  V30 36 1 18 34
M  V30 37 1 19 35
M  V30 38 1 19 36
M  V30 39 1 20 37
M  V30 40 1 20 38
M  V30 41 1 22 39
M  V30 42 1 25 40
M  V30 43 1 25 41
M  V30 44 1 25 42
M  V30 END BOND
M  V30 END CTAB
M  END
>  <Dataset>  (183) 
ChEMBL_Kinases

>  <Ligand_Instance>  (183) 
nan

>  <PDB_ID>  (183) 
nan

>  <Standardized_SMILES>  (183) 
COc1ccc(Nc2ncc(C(F)(F)F)c(NC3CC3)n2)cc1OC

>  <Name>  (183) 
nan

>  <Pocket>  (183) 
nan

>  <ATP_Site>  (183) 
nan

>  <Peripheral>  (183) 
nan

>  <Num_H_Atoms_ProtBoundConf>  (183) 
nan

>  <Num_Resolved_Atoms>  (183) 
nan

>  <Num_Not_Resolved_Atoms>  (183) 
nan

$$$$
CHEMBL4779496
     RDKit          3D

  0  0  0  0  0  0  0  0  0  0999 V3000
M  V30 BEGIN CTAB
M  V30 COUNTS 59 63 0 0 0
M  V30 BEGIN ATOM
M  V30 1 C 1.242620 -7.388739 3.100942 0
M  V30 2 C 1.761095 -5.990600 2.981427 0
M  V30 3 N 2.770842 -5.408029 3.647213 0
M  V30 4 N 2.839672 -4.170758 3.190192 0
M  V30 5 C 1.900692 -3.942425 2.247806 0
M  V30 6 C 1.779653 -2.644964 1.593892 0
M  V30 7 C 2.632010 -1.611185 1.927887 0
M  V30 8 N 2.531785 -0.409169 1.332510 0
M  V30 9 C 1.600998 -0.165376 0.390874 0
M  V30 10 N 1.633516 1.153816 -0.132305 0
M  V30 11 C 0.939868 2.344523 0.214439 0
M  V30 12 C 1.282560 3.489552 -0.470482 0
M  V30 13 C 0.595127 4.634787 -0.124509 0
M  V30 14 C -0.377826 4.598540 0.859982 0
M  V30 15 C -0.718290 3.429687 1.549471 0
M  V30 16 C -0.025161 2.291058 1.196056 0
M  V30 17 C -1.795783 3.729395 2.528354 0
M  V30 18 C -3.095507 3.029933 2.137267 0
M  V30 19 C -1.461955 3.357294 3.934712 0
M  V30 20 O -2.018193 5.109054 2.359995 0
M  V30 21 C -1.220107 5.655115 1.394091 0
M  V30 22 O -1.261961 6.864892 1.076523 0
M  V30 23 N 0.768858 -1.164028 0.060338 0
M  V30 24 C 0.829559 -2.383682 0.627631 0
M  V30 25 N -0.100946 -3.366012 0.201123 0
M  V30 26 C -1.073419 -3.043273 -0.805514 0 CFG=2
M  V30 27 C -1.935025 -4.246130 -1.100323 0
M  V30 28 O -1.215945 -5.336638 -1.564432 0
M  V30 29 C -0.502208 -2.506775 -2.057123 0
M  V30 30 C 0.599747 -3.042697 -2.683908 0
M  V30 31 C 1.134392 -2.529543 -3.869380 0
M  V30 32 C 0.516056 -1.415119 -4.445031 0
M  V30 33 C -0.590863 -0.838163 -3.859621 0
M  V30 34 C -1.050721 -1.398005 -2.705046 0
M  V30 35 O 1.288348 -5.091518 2.177921 0
M  V30 36 H 1.070138 -7.825373 2.115209 0
M  V30 37 H 1.869025 -7.975959 3.788565 0
M  V30 38 H 0.233298 -7.302306 3.597140 0
M  V30 39 H 3.405242 -1.753105 2.685151 0
M  V30 40 H 2.332244 1.101141 -0.904934 0
M  V30 41 H 2.038914 3.474011 -1.222990 0
M  V30 42 H 0.843383 5.538803 -0.642048 0
M  V30 43 H -0.267741 1.375865 1.712269 0
M  V30 44 H -3.432676 3.357705 1.131668 0
M  V30 45 H -3.002826 1.926139 2.183850 0
M  V30 46 H -3.855216 3.342897 2.882216 0
M  V30 47 H -1.259322 4.253617 4.522452 0
M  V30 48 H -2.336769 2.837374 4.425904 0
M  V30 49 H -0.657054 2.589251 3.956266 0
M  V30 50 H -0.120910 -4.330300 0.584839 0
M  V30 51 H -1.801320 -2.258354 -0.436692 0
M  V30 52 H -2.335945 -4.574039 -0.095172 0
M  V30 53 H -2.820340 -4.022170 -1.698454 0
M  V30 54 H -0.442525 -5.559361 -1.005806 0
M  V30 55 H 1.070592 -3.908908 -2.224703 0
M  V30 56 H 2.004090 -2.976125 -4.336905 0
M  V30 57 H 0.928965 -1.014196 -5.363741 0
M  V30 58 H -1.071750 0.020374 -4.298184 0
M  V30 59 H -1.926117 -0.926736 -2.259325 0
M  V30 END ATOM
M  V30 BEGIN BOND
M  V30 1 1 1 2
M  V30 2 2 2 3
M  V30 3 1 3 4
M  V30 4 2 4 5
M  V30 5 1 5 6
M  V30 6 2 6 7
M  V30 7 1 7 8
M  V30 8 2 8 9
M  V30 9 1 9 10
M  V30 10 1 10 11
M  V30 11 2 11 12
M  V30 12 1 12 13
M  V30 13 2 13 14
M  V30 14 1 14 15
M  V30 15 2 15 16
M  V30 16 1 15 17
M  V30 17 1 17 18
M  V30 18 1 17 19
M  V30 19 1 17 20
M  V30 20 1 20 21
M  V30 21 2 21 22
M  V30 22 1 9 23
M  V30 23 2 23 24
M  V30 24 1 24 25
M  V30 25 1 25 26
M  V30 26 1 26 27
M  V30 27 1 27 28
M  V30 28 1 26 29
M  V30 29 2 29 30
M  V30 30 1 30 31
M  V30 31 2 31 32
M  V30 32 1 32 33
M  V30 33 2 33 34
M  V30 34 1 5 35
M  V30 35 1 35 2
M  V30 36 1 24 6
M  V30 37 1 34 29
M  V30 38 1 16 11
M  V30 39 1 21 14
M  V30 40 1 1 36
M  V30 41 1 1 37
M  V30 42 1 1 38
M  V30 43 1 7 39
M  V30 44 1 10 40
M  V30 45 1 12 41
M  V30 46 1 13 42
M  V30 47 1 16 43
M  V30 48 1 18 44
M  V30 49 1 18 45
M  V30 50 1 18 46
M  V30 51 1 19 47
M  V30 52 1 19 48
M  V30 53 1 19 49
M  V30 54 1 25 50
M  V30 55 1 26 51 CFG=1
M  V30 56 1 27 52
M  V30 57 1 27 53
M  V30 58 1 28 54
M  V30 59 1 30 55
M  V30 60 1 31 56
M  V30 61 1 32 57
M  V30 62 1 33 58
M  V30 63 1 34 59
M  V30 END BOND
M  V30 END CTAB
M  END
>  <Dataset>  (184) 
ChEMBL_Kinases

>  <Ligand_Instance>  (184) 
nan

>  <PDB_ID>  (184) 
nan

>  <Standardized_SMILES>  (184) 
Cc1nnc(-c2cnc(Nc3ccc4c(c3)C(C)(C)OC4=O)nc2N[C@H](CO)c2ccccc2)o1

>  <Name>  (184) 
nan

>  <Pocket>  (184) 
nan

>  <ATP_Site>  (184) 
nan

>  <Peripheral>  (184) 
nan

>  <Num_H_Atoms_ProtBoundConf>  (184) 
nan

>  <Num_Resolved_Atoms>  (184) 
nan

>  <Num_Not_Resolved_Atoms>  (184) 
nan

$$$$
CHEMBL4780209
     RDKit          3D

  0  0  0  0  0  0  0  0  0  0999 V3000
M  V30 BEGIN CTAB
M  V30 COUNTS 43 46 0 0 0
M  V30 BEGIN ATOM
M  V30 1 C -3.239669 -2.530856 0.111903 0
M  V30 2 C -2.097611 -1.634594 0.430724 0
M  V30 3 C -2.225965 -0.280992 0.208019 0
M  V30 4 C -1.166614 0.562606 0.503816 0
M  V30 5 N -1.428139 1.951169 0.234257 0
M  V30 6 C -0.674064 2.689759 -0.717081 0
M  V30 7 C -1.387259 2.656025 -1.911870 0
M  V30 8 C -0.924500 3.287611 -3.075058 0
M  V30 9 N 0.253321 3.962998 -3.072783 0
M  V30 10 C 0.922718 3.972034 -1.881374 0
M  V30 11 N 0.502556 3.368896 -0.730771 0
M  V30 12 C 0.005219 0.047300 1.018163 0
M  V30 13 O 0.881650 0.886743 1.244717 0
M  V30 14 N 0.141650 -1.276468 1.241553 0
M  V30 15 C -0.902007 -2.097831 0.947519 0
M  V30 16 C -0.537110 -3.490535 1.253196 0
M  V30 17 O -1.160932 -4.569686 1.148393 0
M  V30 18 N 0.795667 -3.369167 1.740973 0
M  V30 19 C 1.262743 -1.973849 1.774684 0
M  V30 20 C 2.557726 -1.835541 1.063511 0
M  V30 21 C 3.645359 -1.112803 1.769730 0
M  V30 22 C 3.756754 -1.327876 3.235398 0
M  V30 23 C 2.699147 -2.313702 3.684701 0
M  V30 24 C 1.373188 -1.665724 3.259655 0
M  V30 25 H -4.153774 -2.008511 0.474611 0
M  V30 26 H -3.243058 -2.707040 -0.987546 0
M  V30 27 H -3.160834 -3.459842 0.695860 0
M  V30 28 H -3.151736 0.074286 -0.190734 0
M  V30 29 H -2.220692 2.284523 0.826542 0
M  V30 30 H -2.345255 2.179396 -2.143727 0
M  V30 31 H -1.422131 3.302891 -4.032391 0
M  V30 32 H 1.868927 4.461053 -1.718720 0
M  V30 33 H 1.371462 -4.186399 2.039197 0
M  V30 34 H 2.383583 -1.352139 0.078236 0
M  V30 35 H 2.928632 -2.862190 0.828334 0
M  V30 36 H 4.620780 -1.479414 1.326402 0
M  V30 37 H 3.665752 -0.020031 1.559188 0
M  V30 38 H 3.497488 -0.369908 3.773172 0
M  V30 39 H 4.772338 -1.637258 3.567226 0
M  V30 40 H 2.701204 -2.484627 4.786017 0
M  V30 41 H 2.802730 -3.292826 3.168683 0
M  V30 42 H 1.420869 -0.597527 3.490178 0
M  V30 43 H 0.584850 -2.129337 3.866287 0
M  V30 END ATOM
M  V30 BEGIN BOND
M  V30 1 1 1 2
M  V30 2 1 2 3
M  V30 3 2 3 4
M  V30 4 1 4 5
M  V30 5 1 5 6
M  V30 6 2 6 7
M  V30 7 1 7 8
M  V30 8 2 8 9
M  V30 9 1 9 10
M  V30 10 2 10 11
M  V30 11 1 4 12
M  V30 12 2 12 13
M  V30 13 1 12 14
M  V30 14 1 14 15
M  V30 15 1 15 16
M  V30 16 2 16 17
M  V30 17 1 16 18
M  V30 18 1 18 19
M  V30 19 1 19 20
M  V30 20 1 20 21
M  V30 21 1 21 22
M  V30 22 1 22 23
M  V30 23 1 23 24
M  V30 24 2 15 2
M  V30 25 1 24 19
M  V30 26 1 11 6
M  V30 27 1 19 14
M  V30 28 1 1 25
M  V30 29 1 1 26
M  V30 30 1 1 27
M  V30 31 1 3 28
M  V30 32 1 5 29
M  V30 33 1 7 30
M  V30 34 1 8 31
M  V30 35 1 10 32
M  V30 36 1 18 33
M  V30 37 1 20 34
M  V30 38 1 20 35
M  V30 39 1 21 36
M  V30 40 1 21 37
M  V30 41 1 22 38
M  V30 42 1 22 39
M  V30 43 1 23 40
M  V30 44 1 23 41
M  V30 45 1 24 42
M  V30 46 1 24 43
M  V30 END BOND
M  V30 END CTAB
M  END
>  <Dataset>  (185) 
ChEMBL_Kinases

>  <Ligand_Instance>  (185) 
nan

>  <PDB_ID>  (185) 
nan

>  <Standardized_SMILES>  (185) 
Cc1cc(Nc2ccncn2)c(=O)n2c1C(=O)NC21CCCCC1

>  <Name>  (185) 
nan

>  <Pocket>  (185) 
nan

>  <ATP_Site>  (185) 
nan

>  <Peripheral>  (185) 
nan

>  <Num_H_Atoms_ProtBoundConf>  (185) 
nan

>  <Num_Resolved_Atoms>  (185) 
nan

>  <Num_Not_Resolved_Atoms>  (185) 
nan

$$$$
CHEMBL4779584
     RDKit          3D

  0  0  0  0  0  0  0  0  0  0999 V3000
M  V30 BEGIN CTAB
M  V30 COUNTS 49 53 0 0 0
M  V30 BEGIN ATOM
M  V30 1 C -0.620091 0.295777 5.454799 0
M  V30 2 C -0.098310 -0.761168 4.565892 0
M  V30 3 C 0.170546 -2.027146 5.055955 0
M  V30 4 C 0.658068 -3.005439 4.213653 0
M  V30 5 C 0.888463 -2.751117 2.874110 0
M  V30 6 C 0.609317 -1.470256 2.409292 0
M  V30 7 C 0.818310 -1.103588 1.014021 0
M  V30 8 N 1.649210 -0.177728 0.539360 0
M  V30 9 C 1.620951 -0.065253 -0.796058 0
M  V30 10 C 2.294076 0.770863 -1.813758 0
M  V30 11 N 1.541985 1.938701 -2.181364 0
M  V30 12 C 1.153922 3.102353 -1.500157 0
M  V30 13 C 1.521450 3.316537 -0.188092 0
M  V30 14 C 1.205020 4.428516 0.573571 0
M  V30 15 C 0.456075 5.422190 -0.014017 0
M  V30 16 C 0.066193 5.255603 -1.318699 0
M  V30 17 C 0.397823 4.140411 -2.043872 0
M  V30 18 F -0.006856 3.998720 -3.350760 0
M  V30 19 N 0.696404 -1.000195 -1.169329 0
M  V30 20 C 0.200812 -1.636526 -0.096137 0
M  V30 21 C -0.804810 -2.693758 -0.131017 0
M  V30 22 C -2.054322 -2.597980 0.443219 0
M  V30 23 C -2.925562 -3.663857 0.346768 0
M  V30 24 C -2.586808 -4.836791 -0.311978 0
M  V30 25 N -3.230043 -6.003150 -0.549564 0
M  V30 26 N -2.402919 -6.783450 -1.244069 0
M  V30 27 C -1.240239 -6.141267 -1.457637 0
M  V30 28 C -1.327608 -4.893097 -0.873007 0
M  V30 29 C -0.402698 -3.848391 -0.808713 0
M  V30 30 N 0.129416 -0.534190 3.273710 0
M  V30 31 H -1.485154 -0.059469 6.068971 0
M  V30 32 H -0.998671 1.134140 4.813084 0
M  V30 33 H 0.174043 0.738016 6.076358 0
M  V30 34 H 0.000399 -2.253745 6.097080 0
M  V30 35 H 0.889132 -4.005834 4.519252 0
M  V30 36 H 1.271299 -3.476865 2.155702 0
M  V30 37 H 2.269633 0.403764 1.127458 0
M  V30 38 H 3.335401 1.040585 -1.489572 0
M  V30 39 H 2.441477 0.150483 -2.719910 0
M  V30 40 H 1.179695 1.967525 -3.183112 0
M  V30 41 H 2.114504 2.613523 0.379093 0
M  V30 42 H 1.499786 4.580138 1.595974 0
M  V30 43 H 0.170420 6.312790 0.507912 0
M  V30 44 H -0.524910 5.990201 -1.856001 0
M  V30 45 H -2.268711 -1.672898 0.940110 0
M  V30 46 H -3.895598 -3.582854 0.796018 0
M  V30 47 H -4.193840 -6.224364 -0.236000 0
M  V30 48 H -0.346390 -6.478787 -1.986216 0
M  V30 49 H 0.582608 -3.959121 -1.276722 0
M  V30 END ATOM
M  V30 BEGIN BOND
M  V30 1 1 1 2
M  V30 2 2 2 3
M  V30 3 1 3 4
M  V30 4 2 4 5
M  V30 5 1 5 6
M  V30 6 1 6 7
M  V30 7 1 7 8
M  V30 8 1 8 9
M  V30 9 1 9 10
M  V30 10 1 10 11
M  V30 11 1 11 12
M  V30 12 2 12 13
M  V30 13 1 13 14
M  V30 14 2 14 15
M  V30 15 1 15 16
M  V30 16 2 16 17
M  V30 17 1 17 18
M  V30 18 2 9 19
M  V30 19 1 19 20
M  V30 20 1 20 21
M  V30 21 2 21 22
M  V30 22 1 22 23
M  V30 23 2 23 24
M  V30 24 1 24 25
M  V30 25 1 25 26
M  V30 26 2 26 27
M  V30 27 1 27 28
M  V30 28 2 28 29
M  V30 29 2 6 30
M  V30 30 1 30 2
M  V30 31 2 20 7
M  V30 32 1 29 21
M  V30 33 1 17 12
M  V30 34 1 28 24
M  V30 35 1 1 31
M  V30 36 1 1 32
M  V30 37 1 1 33
M  V30 38 1 3 34
M  V30 39 1 4 35
M  V30 40 1 5 36
M  V30 41 1 8 37
M  V30 42 1 10 38
M  V30 43 1 10 39
M  V30 44 1 11 40
M  V30 45 1 13 41
M  V30 46 1 14 42
M  V30 47 1 15 43
M  V30 48 1 16 44
M  V30 49 1 22 45
M  V30 50 1 23 46
M  V30 51 1 25 47
M  V30 52 1 27 48
M  V30 53 1 29 49
M  V30 END BOND
M  V30 END CTAB
M  END
>  <Dataset>  (186) 
ChEMBL_Kinases

>  <Ligand_Instance>  (186) 
nan

>  <PDB_ID>  (186) 
nan

>  <Standardized_SMILES>  (186) 
Cc1cccc(-c2[nH]c(CNc3ccccc3F)nc2-c2ccc3[nH]ncc3c2)n1

>  <Name>  (186) 
nan

>  <Pocket>  (186) 
nan

>  <ATP_Site>  (186) 
nan

>  <Peripheral>  (186) 
nan

>  <Num_H_Atoms_ProtBoundConf>  (186) 
nan

>  <Num_Resolved_Atoms>  (186) 
nan

>  <Num_Not_Resolved_Atoms>  (186) 
nan

$$$$
CHEMBL5071425
     RDKit          3D

  0  0  0  0  0  0  0  0  0  0999 V3000
M  V30 BEGIN CTAB
M  V30 COUNTS 50 53 0 0 0
M  V30 BEGIN ATOM
M  V30 1 C 0.112667 -4.268159 2.950848 0
M  V30 2 C 0.699532 -3.027567 2.376361 0
M  V30 3 N 1.942466 -3.026571 1.873647 0
M  V30 4 C 2.249182 -1.788903 1.412777 0
M  V30 5 C 3.313513 -1.150604 0.808745 0
M  V30 6 C 3.201570 0.187691 0.489741 0
M  V30 7 C 2.080015 0.951709 0.735225 0
M  V30 8 C 1.992907 2.365782 0.386001 0
M  V30 9 C 3.002415 3.082880 -0.217564 0
M  V30 10 C 2.731277 4.407584 -0.467439 0
M  V30 11 N 3.750034 5.176531 -1.087897 0
M  V30 12 N 1.583677 5.045398 -0.175886 0
M  V30 13 C 0.577260 4.361861 0.417295 0
M  V30 14 N -0.654657 4.995765 0.744095 0
M  V30 15 C 0.819794 3.029733 0.680806 0
M  V30 16 N 1.077336 0.297215 1.318747 0
M  V30 17 C 1.117349 -1.003810 1.656677 0
M  V30 18 N 0.174558 -1.794534 2.253011 0
M  V30 19 C -1.162871 -1.429437 2.693815 0
M  V30 20 C -2.200598 -1.625733 1.620904 0 CFG=2
M  V30 21 C -3.573118 -1.230807 2.132373 0
M  V30 22 O -2.168281 -2.918767 1.110445 0
M  V30 23 C -1.890289 -3.321552 -0.163110 0
M  V30 24 C -1.572861 -2.566362 -1.267296 0
M  V30 25 C -1.320486 -3.136074 -2.481893 0
M  V30 26 C -1.368860 -4.501076 -2.673434 0
M  V30 27 C -1.688323 -5.272390 -1.565419 0
M  V30 28 C -1.949791 -4.711287 -0.315467 0
M  V30 29 H -0.689354 -3.992684 3.694823 0
M  V30 30 H 0.882290 -4.908346 3.424896 0
M  V30 31 H -0.386340 -4.815833 2.141029 0
M  V30 32 H 4.195083 -1.746551 0.614538 0
M  V30 33 H 4.070008 0.623815 0.019960 0
M  V30 34 H 3.916207 2.594675 -0.455161 0
M  V30 35 H 4.616568 5.707362 -1.200301 0
M  V30 36 H 3.407620 5.276312 -2.086949 0
M  V30 37 H -0.496497 5.462751 1.679226 0
M  V30 38 H -1.477550 4.933095 0.096159 0
M  V30 39 H -0.003286 2.504446 1.156800 0
M  V30 40 H -1.142727 -0.369397 3.020868 0
M  V30 41 H -1.394518 -2.031835 3.607975 0
M  V30 42 H -1.955246 -0.911339 0.806029 0
M  V30 43 H -3.517973 -0.470321 2.933224 0
M  V30 44 H -4.147325 -2.102795 2.498098 0
M  V30 45 H -4.156245 -0.785381 1.290504 0
M  V30 46 H -1.541568 -1.518732 -1.096315 0
M  V30 47 H -1.070909 -2.497110 -3.337064 0
M  V30 48 H -1.168359 -4.944975 -3.635910 0
M  V30 49 H -1.728518 -6.351266 -1.708415 0
M  V30 50 H -2.185257 -5.425846 0.459141 0
M  V30 END ATOM
M  V30 BEGIN BOND
M  V30 1 1 1 2
M  V30 2 2 2 3
M  V30 3 1 3 4
M  V30 4 2 4 5
M  V30 5 1 5 6
M  V30 6 2 6 7
M  V30 7 1 7 8
M  V30 8 2 8 9
M  V30 9 1 9 10
M  V30 10 1 10 11
M  V30 11 2 10 12
M  V30 12 1 12 13
M  V30 13 1 13 14
M  V30 14 2 13 15
M  V30 15 1 7 16
M  V30 16 2 16 17
M  V30 17 1 17 18
M  V30 18 1 18 19
M  V30 19 1 19 20
M  V30 20 1 20 21
M  V30 21 1 20 22
M  V30 22 1 22 23
M  V30 23 2 23 24
M  V30 24 1 24 25
M  V30 25 2 25 26
M  V30 26 1 26 27
M  V30 27 2 27 28
M  V30 28 1 18 2
M  V30 29 1 28 23
M  V30 30 1 17 4
M  V30 31 1 15 8
M  V30 32 1 1 29
M  V30 33 1 1 30
M  V30 34 1 1 31
M  V30 35 1 5 32
M  V30 36 1 6 33
M  V30 37 1 9 34
M  V30 38 1 11 35
M  V30 39 1 11 36
M  V30 40 1 14 37
M  V30 41 1 14 38
M  V30 42 1 15 39
M  V30 43 1 19 40
M  V30 44 1 19 41
M  V30 45 1 20 42 CFG=3
M  V30 46 1 21 43
M  V30 47 1 21 44
M  V30 48 1 21 45
M  V30 49 1 24 46
M  V30 50 1 25 47
M  V30 51 1 26 48
M  V30 52 1 27 49
M  V30 53 1 28 50
M  V30 END BOND
M  V30 END CTAB
M  END
>  <Dataset>  (187) 
ChEMBL_Kinases

>  <Ligand_Instance>  (187) 
nan

>  <PDB_ID>  (187) 
nan

>  <Standardized_SMILES>  (187) 
Cc1nc2ccc(-c3cc(N)nc(N)c3)nc2n1C[C@H](C)Oc1ccccc1

>  <Name>  (187) 
nan

>  <Pocket>  (187) 
nan

>  <ATP_Site>  (187) 
nan

>  <Peripheral>  (187) 
nan

>  <Num_H_Atoms_ProtBoundConf>  (187) 
nan

>  <Num_Resolved_Atoms>  (187) 
nan

>  <Num_Not_Resolved_Atoms>  (187) 
nan

$$$$
CHEMBL1405744
     RDKit          3D

  0  0  0  0  0  0  0  0  0  0999 V3000
M  V30 BEGIN CTAB
M  V30 COUNTS 40 43 0 0 0
M  V30 BEGIN ATOM
M  V30 1 O 1.000295 -4.902725 0.681167 0
M  V30 2 C 1.666561 -3.860480 0.956811 0
M  V30 3 C 2.831478 -4.137677 1.649045 0
M  V30 4 N 3.593183 -3.051936 1.974505 0
M  V30 5 C 3.184499 -1.821621 1.617700 0
M  V30 6 C 3.975441 -0.748480 1.958873 0
M  V30 7 N 3.574232 0.477916 1.604465 0
M  V30 8 C 2.446615 0.768159 0.931557 0
M  V30 9 N 2.142991 2.110495 0.626794 0
M  V30 10 C 1.055348 2.611802 -0.093186 0
M  V30 11 C 0.096755 1.866591 -0.741971 0
M  V30 12 C -0.976117 2.354150 -1.442927 0
M  V30 13 C -1.132446 3.730227 -1.520478 0
M  V30 14 C -0.205846 4.533161 -0.891981 0
M  V30 15 C 0.846368 3.970528 -0.206033 0
M  V30 16 N 1.723586 -0.309465 0.629809 0
M  V30 17 C 2.020314 -1.573579 0.928723 0
M  V30 18 N 1.264838 -2.635369 0.604795 0
M  V30 19 C 0.018096 -2.443624 -0.115302 0
M  V30 20 C -1.146361 -2.268851 0.795194 0
M  V30 21 C -1.585029 -1.080587 1.333378 0
M  V30 22 C -2.672801 -0.970641 2.170034 0
M  V30 23 C -3.389810 -2.097195 2.511183 0
M  V30 24 F -4.442027 -1.874985 3.340495 0
M  V30 25 C -3.004020 -3.323106 2.006157 0
M  V30 26 C -1.914180 -3.373471 1.178319 0
M  V30 27 H 3.162847 -5.121330 1.936632 0
M  V30 28 H 4.912649 -0.837377 2.502452 0
M  V30 29 H 2.829122 2.840096 0.990099 0
M  V30 30 H 0.162223 0.803109 -0.724181 0
M  V30 31 H -1.698707 1.713451 -1.933464 0
M  V30 32 H -1.960157 4.152926 -2.060334 0
M  V30 33 H -0.339352 5.612010 -0.959965 0
M  V30 34 H 1.529210 4.684968 0.259237 0
M  V30 35 H 0.065120 -1.577960 -0.796310 0
M  V30 36 H -0.192574 -3.346724 -0.735876 0
M  V30 37 H -1.036957 -0.191933 1.078892 0
M  V30 38 H -2.932397 0.017292 2.538513 0
M  V30 39 H -3.581014 -4.167811 2.291714 0
M  V30 40 H -1.688495 -4.378397 0.831294 0
M  V30 END ATOM
M  V30 BEGIN BOND
M  V30 1 2 1 2
M  V30 2 1 2 3
M  V30 3 2 3 4
M  V30 4 1 4 5
M  V30 5 2 5 6
M  V30 6 1 6 7
M  V30 7 2 7 8
M  V30 8 1 8 9
M  V30 9 1 9 10
M  V30 10 2 10 11
M  V30 11 1 11 12
M  V30 12 2 12 13
M  V30 13 1 13 14
M  V30 14 2 14 15
M  V30 15 1 8 16
M  V30 16 2 16 17
M  V30 17 1 17 18
M  V30 18 1 18 19
M  V30 19 1 19 20
M  V30 20 2 20 21
M  V30 21 1 21 22
M  V30 22 2 22 23
M  V30 23 1 23 24
M  V30 24 1 23 25
M  V30 25 2 25 26
M  V30 26 1 18 2
M  V30 27 1 26 20
M  V30 28 1 17 5
M  V30 29 1 15 10
M  V30 30 1 3 27
M  V30 31 1 6 28
M  V30 32 1 9 29
M  V30 33 1 11 30
M  V30 34 1 12 31
M  V30 35 1 13 32
M  V30 36 1 14 33
M  V30 37 1 15 34
M  V30 38 1 19 35
M  V30 39 1 19 36
M  V30 40 1 21 37
M  V30 41 1 22 38
M  V30 42 1 25 39
M  V30 43 1 26 40
M  V30 END BOND
M  V30 END CTAB
M  END
>  <Dataset>  (188) 
ChEMBL_Kinases

>  <Ligand_Instance>  (188) 
nan

>  <PDB_ID>  (188) 
nan

>  <Standardized_SMILES>  (188) 
O=c1cnc2cnc(Nc3ccccc3)nc2n1Cc1ccc(F)cc1

>  <Name>  (188) 
nan

>  <Pocket>  (188) 
nan

>  <ATP_Site>  (188) 
nan

>  <Peripheral>  (188) 
nan

>  <Num_H_Atoms_ProtBoundConf>  (188) 
nan

>  <Num_Resolved_Atoms>  (188) 
nan

>  <Num_Not_Resolved_Atoms>  (188) 
nan

$$$$
CHEMBL4779633
     RDKit          3D

  0  0  0  0  0  0  0  0  0  0999 V3000
M  V30 BEGIN CTAB
M  V30 COUNTS 58 61 0 0 0
M  V30 BEGIN ATOM
M  V30 1 C 0.381980 -1.983422 3.557858 0
M  V30 2 C 1.198973 -1.011108 3.908060 0
M  V30 3 C 2.522191 -0.470118 3.727030 0
M  V30 4 O 2.217165 0.462857 4.547741 0
M  V30 5 N 3.837832 -0.395344 3.206487 0
M  V30 6 C 4.566228 0.723693 3.738118 0
M  V30 7 C 5.027867 1.562775 2.532775 0
M  V30 8 C 3.915378 1.416711 1.522527 0
M  V30 9 C 3.534037 0.417413 0.747204 0
M  V30 10 C 2.397019 0.588766 -0.138545 0
M  V30 11 C 1.652030 1.736826 -0.210810 0
M  V30 12 C 0.570726 1.891148 -1.051079 0
M  V30 13 C 0.177321 0.847752 -1.892629 0
M  V30 14 C -1.011028 1.069056 -2.778934 0
M  V30 15 C -0.575598 1.143365 -4.232255 0
M  V30 16 C -2.033919 0.017623 -2.643032 0
M  V30 17 O -2.526719 -0.641705 -3.588731 0
M  V30 18 N -2.587630 -0.374067 -1.393346 0
M  V30 19 C -3.579963 -1.383902 -1.258034 0
M  V30 20 C -4.177083 -1.930116 -0.140708 0
M  V30 21 C -5.109162 -2.887613 -0.509705 0
M  V30 22 C -5.995699 -3.748913 0.303132 0
M  V30 23 C -5.365254 -4.472733 1.497684 0
M  V30 24 C -6.362922 -3.376060 1.712939 0
M  V30 25 N -5.057459 -2.903537 -1.878900 0
M  V30 26 N -4.166176 -2.024319 -2.272873 0
M  V30 27 C 0.902871 -0.315266 -1.846123 0
M  V30 28 C 1.974443 -0.407238 -0.982437 0
M  V30 29 C 4.283534 -0.843617 0.839745 0
M  V30 30 C 4.205041 -1.443322 2.234503 0
M  V30 31 H -0.239836 -2.794361 3.240302 0
M  V30 32 H -0.408741 -1.528721 4.191350 0
M  V30 33 H 1.695983 -1.703395 3.199908 0
M  V30 34 H 3.876778 1.380909 4.297299 0
M  V30 35 H 5.424703 0.412032 4.372131 0
M  V30 36 H 5.104269 2.591517 2.856400 0
M  V30 37 H 5.976155 1.146836 2.160913 0
M  V30 38 H 3.353686 2.332920 1.461687 0
M  V30 39 H 1.832759 2.604416 0.365889 0
M  V30 40 H -0.017079 2.810644 -1.102620 0
M  V30 41 H -1.486652 2.044576 -2.568329 0
M  V30 42 H 0.519949 0.963616 -4.365297 0
M  V30 43 H -0.786089 2.142306 -4.695384 0
M  V30 44 H -1.163073 0.417209 -4.825413 0
M  V30 45 H -2.262534 0.092288 -0.492037 0
M  V30 46 H -3.949048 -1.653602 0.873021 0
M  V30 47 H -6.756977 -4.336919 -0.270523 0
M  V30 48 H -4.288278 -4.288843 1.663089 0
M  V30 49 H -5.674076 -5.541723 1.646337 0
M  V30 50 H -5.973672 -2.409988 2.142845 0
M  V30 51 H -7.346035 -3.734383 2.088212 0
M  V30 52 H -5.629526 -3.509186 -2.514042 0
M  V30 53 H 0.577899 -1.091512 -2.499329 0
M  V30 54 H 2.452396 -1.369630 -1.044576 0
M  V30 55 H 4.043791 -1.606652 0.080266 0
M  V30 56 H 5.373482 -0.599840 0.647253 0
M  V30 57 H 5.206793 -1.832107 2.488609 0
M  V30 58 H 3.471558 -2.241841 2.231644 0
M  V30 END ATOM
M  V30 BEGIN BOND
M  V30 1 2 1 2
M  V30 2 1 2 3
M  V30 3 2 3 4
M  V30 4 1 3 5
M  V30 5 1 5 6
M  V30 6 1 6 7
M  V30 7 1 7 8
M  V30 8 2 8 9
M  V30 9 1 9 10
M  V30 10 2 10 11
M  V30 11 1 11 12
M  V30 12 2 12 13
M  V30 13 1 13 14
M  V30 14 1 14 15
M  V30 15 1 14 16
M  V30 16 2 16 17
M  V30 17 1 16 18
M  V30 18 1 18 19
M  V30 19 1 19 20
M  V30 20 2 20 21
M  V30 21 1 21 22
M  V30 22 1 22 23
M  V30 23 1 23 24
M  V30 24 1 21 25
M  V30 25 1 25 26
M  V30 26 1 13 27
M  V30 27 2 27 28
M  V30 28 1 9 29
M  V30 29 1 29 30
M  V30 30 1 30 5
M  V30 31 1 28 10
M  V30 32 2 26 19
M  V30 33 1 24 22
M  V30 34 1 1 31
M  V30 35 1 1 32
M  V30 36 1 2 33
M  V30 37 1 6 34
M  V30 38 1 6 35
M  V30 39 1 7 36
M  V30 40 1 7 37
M  V30 41 1 8 38
M  V30 42 1 11 39
M  V30 43 1 12 40
M  V30 44 1 14 41
M  V30 45 1 15 42
M  V30 46 1 15 43
M  V30 47 1 15 44
M  V30 48 1 18 45
M  V30 49 1 20 46
M  V30 50 1 22 47
M  V30 51 1 23 48
M  V30 52 1 23 49
M  V30 53 1 24 50
M  V30 54 1 24 51
M  V30 55 1 25 52
M  V30 56 1 27 53
M  V30 57 1 28 54
M  V30 58 1 29 55
M  V30 59 1 29 56
M  V30 60 1 30 57
M  V30 61 1 30 58
M  V30 END BOND
M  V30 END CTAB
M  END
>  <Dataset>  (189) 
ChEMBL_Kinases

>  <Ligand_Instance>  (189) 
nan

>  <PDB_ID>  (189) 
nan

>  <Standardized_SMILES>  (189) 
C=CC(=O)N1CCC=C(c2ccc(C(C)C(=O)Nc3cc(C4CC4)[nH]n3)cc2)CC1

>  <Name>  (189) 
nan

>  <Pocket>  (189) 
nan

>  <ATP_Site>  (189) 
nan

>  <Peripheral>  (189) 
nan

>  <Num_H_Atoms_ProtBoundConf>  (189) 
nan

>  <Num_Resolved_Atoms>  (189) 
nan

>  <Num_Not_Resolved_Atoms>  (189) 
nan

$$$$
CHEMBL4779730
     RDKit          3D

  0  0  0  0  0  0  0  0  0  0999 V3000
M  V30 BEGIN CTAB
M  V30 COUNTS 70 72 0 0 0
M  V30 BEGIN ATOM
M  V30 1 C -0.687758 2.933809 5.280714 0
M  V30 2 C -0.657384 4.232013 4.487712 0
M  V30 3 N 0.345535 4.231043 3.484978 0
M  V30 4 C 1.692709 4.258450 3.963593 0
M  V30 5 C 2.104001 5.536711 4.634185 0
M  V30 6 C 0.140878 5.170801 2.441770 0
M  V30 7 C -1.051000 4.837479 1.565424 0
M  V30 8 N -0.935184 3.551490 0.937602 0
M  V30 9 C 0.064492 3.117520 0.036360 0
M  V30 10 O 0.908899 4.049806 -0.186625 0
M  V30 11 C 0.245487 1.842685 -0.622360 0
M  V30 12 C 1.272536 1.644967 -1.518785 0
M  V30 13 C 2.322350 2.593442 -1.983799 0
M  V30 14 N 1.173527 0.357405 -1.945629 0
M  V30 15 C 0.123851 -0.297075 -1.366436 0
M  V30 16 C -0.114817 -1.695342 -1.661435 0
M  V30 17 C -1.176015 -2.296985 -2.157308 0
M  V30 18 C -2.412356 -1.639225 -2.547334 0
M  V30 19 O -2.592415 -0.404511 -2.477824 0
M  V30 20 N -3.249964 -2.696715 -2.982015 0
M  V30 21 C -2.563424 -3.928549 -2.865428 0
M  V30 22 C -2.956021 -5.218817 -3.158505 0
M  V30 23 C -2.075342 -6.259627 -2.946439 0
M  V30 24 C -0.780360 -6.110097 -2.443396 0
M  V30 25 C 0.090660 -7.257944 -2.253486 0
M  V30 26 C 0.014368 -7.971011 -0.956434 0
M  V30 27 N 0.298778 -7.243235 0.223935 0
M  V30 28 C -0.639086 -6.239630 0.607212 0
M  V30 29 C 1.645325 -6.710102 0.210322 0
M  V30 30 C -0.447763 -4.781660 -2.167987 0
M  V30 31 C -1.313975 -3.730212 -2.373828 0
M  V30 32 C -0.433697 0.665437 -0.542110 0
M  V30 33 C -1.593491 0.402139 0.339321 0
M  V30 34 H -1.269542 2.131849 4.743982 0
M  V30 35 H -1.256780 3.144333 6.208595 0
M  V30 36 H 0.317882 2.592648 5.556079 0
M  V30 37 H -1.679499 4.403327 4.111170 0
M  V30 38 H -0.431134 5.021787 5.256919 0
M  V30 39 H 2.350370 4.145381 3.052346 0
M  V30 40 H 1.948890 3.382252 4.596595 0
M  V30 41 H 2.961528 5.387590 5.336416 0
M  V30 42 H 2.462240 6.288821 3.882049 0
M  V30 43 H 1.327344 6.037423 5.211161 0
M  V30 44 H 1.029207 5.230829 1.788373 0
M  V30 45 H -0.032695 6.197770 2.835729 0
M  V30 46 H -1.957160 4.894323 2.163611 0
M  V30 47 H -1.065933 5.663425 0.792512 0
M  V30 48 H -1.662993 2.839574 1.156372 0
M  V30 49 H 3.126834 2.027254 -2.490878 0
M  V30 50 H 1.892228 3.282786 -2.736366 0
M  V30 51 H 2.816140 3.103774 -1.132222 0
M  V30 52 H 1.851289 -0.059955 -2.648928 0
M  V30 53 H 0.751477 -2.336249 -1.419931 0
M  V30 54 H -4.215985 -2.485513 -3.319802 0
M  V30 55 H -3.947157 -5.407515 -3.551303 0
M  V30 56 H -2.396982 -7.260663 -3.180274 0
M  V30 57 H -0.201073 -8.009898 -3.046550 0
M  V30 58 H 1.117308 -6.957165 -2.542316 0
M  V30 59 H 0.726213 -8.846350 -1.033023 0
M  V30 60 H -0.980169 -8.476376 -0.807660 0
M  V30 61 H -1.579555 -6.312727 -0.006232 0
M  V30 62 H -0.960166 -6.487611 1.667222 0
M  V30 63 H -0.230761 -5.225808 0.679557 0
M  V30 64 H 2.130335 -7.053091 -0.727416 0
M  V30 65 H 1.601521 -5.587848 0.135797 0
M  V30 66 H 2.234313 -7.026023 1.095756 0
M  V30 67 H 0.539246 -4.599060 -1.775753 0
M  V30 68 H -1.911093 -0.685825 0.265457 0
M  V30 69 H -1.367841 0.518630 1.423103 0
M  V30 70 H -2.519423 0.945119 0.022395 0
M  V30 END ATOM
M  V30 BEGIN BOND
M  V30 1 1 1 2
M  V30 2 1 2 3
M  V30 3 1 3 4
M  V30 4 1 4 5
M  V30 5 1 3 6
M  V30 6 1 6 7
M  V30 7 1 7 8
M  V30 8 1 8 9
M  V30 9 2 9 10
M  V30 10 1 9 11
M  V30 11 2 11 12
M  V30 12 1 12 13
M  V30 13 1 12 14
M  V30 14 1 14 15
M  V30 15 1 15 16
M  V30 16 2 16 17
M  V30 17 1 17 18
M  V30 18 2 18 19
M  V30 19 1 18 20
M  V30 20 1 20 21
M  V30 21 2 21 22
M  V30 22 1 22 23
M  V30 23 2 23 24
M  V30 24 1 24 25
M  V30 25 1 25 26
M  V30 26 1 26 27
M  V30 27 1 27 28
M  V30 28 1 27 29
M  V30 29 1 24 30
M  V30 30 2 30 31
M  V30 31 2 15 32
M  V30 32 1 32 33
M  V30 33 1 32 11
M  V30 34 1 31 17
M  V30 35 1 31 21
M  V30 36 1 1 34
M  V30 37 1 1 35
M  V30 38 1 1 36
M  V30 39 1 2 37
M  V30 40 1 2 38
M  V30 41 1 4 39
M  V30 42 1 4 40
M  V30 43 1 5 41
M  V30 44 1 5 42
M  V30 45 1 5 43
M  V30 46 1 6 44
M  V30 47 1 6 45
M  V30 48 1 7 46
M  V30 49 1 7 47
M  V30 50 1 8 48
M  V30 51 1 13 49
M  V30 52 1 13 50
M  V30 53 1 13 51
M  V30 54 1 14 52
M  V30 55 1 16 53
M  V30 56 1 20 54
M  V30 57 1 22 55
M  V30 58 1 23 56
M  V30 59 1 25 57
M  V30 60 1 25 58
M  V30 61 1 26 59
M  V30 62 1 26 60
M  V30 63 1 28 61
M  V30 64 1 28 62
M  V30 65 1 28 63
M  V30 66 1 29 64
M  V30 67 1 29 65
M  V30 68 1 29 66
M  V30 69 1 30 67
M  V30 70 1 33 68
M  V30 71 1 33 69
M  V30 72 1 33 70
M  V30 END BOND
M  V30 END CTAB
M  END
>  <Dataset>  (190) 
ChEMBL_Kinases

>  <Ligand_Instance>  (190) 
nan

>  <PDB_ID>  (190) 
nan

>  <Standardized_SMILES>  (190) 
CCN(CC)CCNC(=O)c1c(C)[nH]c(/C=C2\C(=O)Nc3ccc(CCN(C)C)cc32)c1C

>  <Name>  (190) 
nan

>  <Pocket>  (190) 
nan

>  <ATP_Site>  (190) 
nan

>  <Peripheral>  (190) 
nan

>  <Num_H_Atoms_ProtBoundConf>  (190) 
nan

>  <Num_Resolved_Atoms>  (190) 
nan

>  <Num_Not_Resolved_Atoms>  (190) 
nan

$$$$
CHEMBL5070593
     RDKit          3D

  0  0  0  0  0  0  0  0  0  0999 V3000
M  V30 BEGIN CTAB
M  V30 COUNTS 68 72 0 0 0
M  V30 BEGIN ATOM
M  V30 1 C 2.293582 -1.452943 5.466333 0
M  V30 2 C 2.784416 -0.428796 4.490559 0
M  V30 3 C 3.443797 -0.609702 3.262958 0
M  V30 4 C 3.602350 0.758387 2.900472 0
M  V30 5 N 4.303632 0.721402 1.611427 0
M  V30 6 C 3.531815 0.262641 0.468801 0
M  V30 7 C 2.963303 0.982374 -0.549484 0
M  V30 8 C 2.269372 0.262420 -1.488070 0
M  V30 9 N 1.644893 0.937017 -2.564340 0
M  V30 10 C 0.563224 0.204033 -3.242469 0
M  V30 11 C 0.136969 0.915664 -4.475922 0
M  V30 12 N -0.205766 2.283106 -4.226131 0
M  V30 13 C -0.600582 2.996135 -5.402883 0
M  V30 14 C 0.688585 2.992263 -3.351115 0
M  V30 15 C 1.966306 2.233215 -3.050103 0
M  V30 16 N 2.181303 -1.040981 -1.378483 0
M  V30 17 C 2.708252 -1.799379 -0.416340 0
M  V30 18 N 2.748440 -3.178592 -0.070690 0
M  V30 19 C 1.470479 -3.601955 0.387988 0
M  V30 20 C 0.310107 -3.073762 -0.128815 0
M  V30 21 C -0.945241 -3.465675 0.354066 0
M  V30 22 C -0.995599 -4.409798 1.378248 0
M  V30 23 C -2.455092 -4.652183 1.675910 0
M  V30 24 C -3.038761 -3.472173 2.319225 0
M  V30 25 O -2.641113 -2.973040 3.429357 0
M  V30 26 N -4.111151 -2.742705 1.791919 0
M  V30 27 C -4.821485 -1.614797 2.195986 0
M  V30 28 C -4.674364 -0.854837 3.341458 0
M  V30 29 C -5.382913 0.264427 3.686242 0
M  V30 30 C -6.351151 0.717102 2.836663 0
M  V30 31 C -6.561944 0.019769 1.676661 0
M  V30 32 F -7.524246 0.473171 0.824515 0
M  V30 33 C -5.830189 -1.091954 1.375782 0
M  V30 34 C 0.161778 -4.935922 1.894492 0
M  V30 35 C 1.380105 -4.534175 1.401381 0
M  V30 36 N 3.394875 -1.101566 0.516461 0
M  V30 37 N 3.091562 1.633004 3.811537 0
M  V30 38 N 2.617967 0.831587 4.738155 0
M  V30 39 H 1.190052 -1.476545 5.448071 0
M  V30 40 H 2.641931 -1.191850 6.476419 0
M  V30 41 H 2.679226 -2.450049 5.125475 0
M  V30 42 H 3.621857 -1.609591 2.970850 0
M  V30 43 H 5.279040 0.982980 1.389550 0
M  V30 44 H 3.126481 2.038340 -0.495711 0
M  V30 45 H -0.271569 0.155440 -2.492177 0
M  V30 46 H 0.905095 -0.809531 -3.507327 0
M  V30 47 H 0.890016 0.810588 -5.283871 0
M  V30 48 H -0.780474 0.388295 -4.852473 0
M  V30 49 H 0.266613 3.165144 -6.070479 0
M  V30 50 H -1.138840 3.923630 -5.182683 0
M  V30 51 H -1.309768 2.318641 -5.951169 0
M  V30 52 H 0.175800 3.229848 -2.390785 0
M  V30 53 H 0.956207 3.945543 -3.809077 0
M  V30 54 H 2.667767 2.249074 -3.889144 0
M  V30 55 H 2.452535 2.810747 -2.221245 0
M  V30 56 H 3.644239 -3.702392 -0.172827 0
M  V30 57 H 0.352139 -2.338370 -0.933998 0
M  V30 58 H -1.771292 -2.964298 -0.149564 0
M  V30 59 H -2.459312 -5.498116 2.391314 0
M  V30 60 H -2.988149 -4.923114 0.747840 0
M  V30 61 H -4.427710 -3.178042 0.871737 0
M  V30 62 H -3.920388 -1.180923 4.034300 0
M  V30 63 H -5.175665 0.776877 4.612664 0
M  V30 64 H -6.938862 1.590736 3.038652 0
M  V30 65 H -6.073978 -1.577771 0.430356 0
M  V30 66 H -0.072882 -5.646772 2.675642 0
M  V30 67 H 2.235586 -5.006088 1.877517 0
M  V30 68 H 3.309569 2.533925 3.355161 0
M  V30 END ATOM
M  V30 BEGIN BOND
M  V30 1 1 1 2
M  V30 2 1 2 3
M  V30 3 2 3 4
M  V30 4 1 4 5
M  V30 5 1 5 6
M  V30 6 2 6 7
M  V30 7 1 7 8
M  V30 8 1 8 9
M  V30 9 1 9 10
M  V30 10 1 10 11
M  V30 11 1 11 12
M  V30 12 1 12 13
M  V30 13 1 12 14
M  V30 14 1 14 15
M  V30 15 2 8 16
M  V30 16 1 16 17
M  V30 17 1 17 18
M  V30 18 1 18 19
M  V30 19 2 19 20
M  V30 20 1 20 21
M  V30 21 2 21 22
M  V30 22 1 22 23
M  V30 23 1 23 24
M  V30 24 2 24 25
M  V30 25 1 24 26
M  V30 26 1 26 27
M  V30 27 2 27 28
M  V30 28 1 28 29
M  V30 29 2 29 30
M  V30 30 1 30 31
M  V30 31 1 31 32
M  V30 32 2 31 33
M  V30 33 1 22 34
M  V30 34 2 34 35
M  V30 35 2 17 36
M  V30 36 1 4 37
M  V30 37 1 37 38
M  V30 38 2 38 2
M  V30 39 1 36 6
M  V30 40 1 15 9
M  V30 41 1 35 19
M  V30 42 1 33 27
M  V30 43 1 1 39
M  V30 44 1 1 40
M  V30 45 1 1 41
M  V30 46 1 3 42
M  V30 47 1 5 43
M  V30 48 1 7 44
M  V30 49 1 10 45
M  V30 50 1 10 46
M  V30 51 1 11 47
M  V30 52 1 11 48
M  V30 53 1 13 49
M  V30 54 1 13 50
M  V30 55 1 13 51
M  V30 56 1 14 52
M  V30 57 1 14 53
M  V30 58 1 15 54
M  V30 59 1 15 55
M  V30 60 1 18 56
M  V30 61 1 20 57
M  V30 62 1 21 58
M  V30 63 1 23 59
M  V30 64 1 23 60
M  V30 65 1 26 61
M  V30 66 1 28 62
M  V30 67 1 29 63
M  V30 68 1 30 64
M  V30 69 1 33 65
M  V30 70 1 34 66
M  V30 71 1 35 67
M  V30 72 1 37 68
M  V30 END BOND
M  V30 END CTAB
M  END
>  <Dataset>  (191) 
ChEMBL_Kinases

>  <Ligand_Instance>  (191) 
nan

>  <PDB_ID>  (191) 
nan

>  <Standardized_SMILES>  (191) 
Cc1cc(Nc2cc(N3CCN(C)CC3)nc(Nc3ccc(CC(=O)Nc4cccc(F)c4)cc3)n2)[nH]n1

>  <Name>  (191) 
nan

>  <Pocket>  (191) 
nan

>  <ATP_Site>  (191) 
nan

>  <Peripheral>  (191) 
nan

>  <Num_H_Atoms_ProtBoundConf>  (191) 
nan

>  <Num_Resolved_Atoms>  (191) 
nan

>  <Num_Not_Resolved_Atoms>  (191) 
nan

$$$$
CHEMBL4780013
     RDKit          3D

  0  0  0  0  0  0  0  0  0  0999 V3000
M  V30 BEGIN CTAB
M  V30 COUNTS 55 59 0 0 0
M  V30 BEGIN ATOM
M  V30 1 C -0.733804 -2.602123 5.145807 0
M  V30 2 C 0.385219 -2.564899 4.170804 0
M  V30 3 C 1.467191 -3.423891 4.413912 0
M  V30 4 C 2.488627 -3.340837 3.463737 0
M  V30 5 C 2.372258 -2.459665 2.395945 0
M  V30 6 C 1.287635 -1.642494 2.209427 0
M  V30 7 C 1.358799 -0.790845 1.029424 0
M  V30 8 N 2.006305 0.365833 0.801199 0
M  V30 9 C 1.769451 0.778500 -0.444517 0
M  V30 10 C 2.303302 2.028693 -1.142409 0
M  V30 11 N 1.416099 3.075667 -0.934203 0
M  V30 12 C 0.526452 4.130496 -0.726975 0
M  V30 13 C 0.579411 5.445294 -1.162088 0
M  V30 14 C -0.358738 6.411395 -0.895533 0
M  V30 15 C -1.382734 5.944199 -0.137497 0
M  V30 16 C -1.564526 4.690889 0.356273 0
M  V30 17 C -0.576443 3.744046 0.053784 0
M  V30 18 C -0.813815 2.387912 0.614504 0
M  V30 19 N 0.946629 -0.126619 -1.052749 0
M  V30 20 C 0.696747 -1.088351 -0.144514 0
M  V30 21 C -0.163251 -2.208556 -0.498774 0
M  V30 22 C 0.477282 -3.433365 -0.438995 0
M  V30 23 C -0.215686 -4.583501 -0.749959 0
M  V30 24 C -1.541873 -4.478233 -1.115353 0
M  V30 25 C -2.163694 -3.246966 -1.169266 0
M  V30 26 C -3.487083 -3.360038 -1.555716 0
M  V30 27 N -3.641766 -4.698573 -1.732558 0
M  V30 28 N -2.511262 -5.338810 -1.475693 0
M  V30 29 C -2.265799 -6.775298 -1.547946 0
M  V30 30 C -1.476574 -2.079985 -0.858281 0
M  V30 31 N 0.308434 -1.734182 3.136842 0
M  V30 32 H -1.646926 -2.206167 4.670276 0
M  V30 33 H -0.993995 -3.644628 5.448704 0
M  V30 34 H -0.535037 -1.950087 6.025340 0
M  V30 35 H 1.557419 -4.100572 5.233556 0
M  V30 36 H 3.337807 -3.994728 3.627310 0
M  V30 37 H 3.227013 -2.488072 1.729913 0
M  V30 38 H 2.594532 0.843986 1.505708 0
M  V30 39 H 3.306682 2.170440 -0.624574 0
M  V30 40 H 2.563460 1.727930 -2.184330 0
M  V30 41 H 2.121739 3.623381 -1.534132 0
M  V30 42 H 1.447742 5.743713 -1.774645 0
M  V30 43 H -0.215239 7.401874 -1.284536 0
M  V30 44 H -2.153346 6.652717 0.107491 0
M  V30 45 H -2.434212 4.443931 0.952798 0
M  V30 46 H -1.765708 2.380773 1.213102 0
M  V30 47 H -0.023328 2.151147 1.342615 0
M  V30 48 H -0.967381 1.628189 -0.149263 0
M  V30 49 H 1.510167 -3.620510 -0.164609 0
M  V30 50 H 0.211851 -5.577488 -0.728029 0
M  V30 51 H -4.195800 -2.564328 -1.677326 0
M  V30 52 H -3.220595 -7.343968 -1.389922 0
M  V30 53 H -1.852031 -7.062404 -2.549007 0
M  V30 54 H -1.508030 -7.086735 -0.813083 0
M  V30 55 H -1.914495 -1.095022 -0.884744 0
M  V30 END ATOM
M  V30 BEGIN BOND
M  V30 1 1 1 2
M  V30 2 2 2 3
M  V30 3 1 3 4
M  V30 4 2 4 5
M  V30 5 1 5 6
M  V30 6 1 6 7
M  V30 7 1 7 8
M  V30 8 1 8 9
M  V30 9 1 9 10
M  V30 10 1 10 11
M  V30 11 1 11 12
M  V30 12 2 12 13
M  V30 13 1 13 14
M  V30 14 2 14 15
M  V30 15 1 15 16
M  V30 16 2 16 17
M  V30 17 1 17 18
M  V30 18 2 9 19
M  V30 19 1 19 20
M  V30 20 1 20 21
M  V30 21 2 21 22
M  V30 22 1 22 23
M  V30 23 2 23 24
M  V30 24 1 24 25
M  V30 25 1 25 26
M  V30 26 2 26 27
M  V30 27 1 27 28
M  V30 28 1 28 29
M  V30 29 2 25 30
M  V30 30 2 6 31
M  V30 31 1 31 2
M  V30 32 2 20 7
M  V30 33 1 30 21
M  V30 34 1 17 12
M  V30 35 1 28 24
M  V30 36 1 1 32
M  V30 37 1 1 33
M  V30 38 1 1 34
M  V30 39 1 3 35
M  V30 40 1 4 36
M  V30 41 1 5 37
M  V30 42 1 8 38
M  V30 43 1 10 39
M  V30 44 1 10 40
M  V30 45 1 11 41
M  V30 46 1 13 42
M  V30 47 1 14 43
M  V30 48 1 15 44
M  V30 49 1 16 45
M  V30 50 1 18 46
M  V30 51 1 18 47
M  V30 52 1 18 48
M  V30 53 1 22 49
M  V30 54 1 23 50
M  V30 55 1 26 51
M  V30 56 1 29 52
M  V30 57 1 29 53
M  V30 58 1 29 54
M  V30 59 1 30 55
M  V30 END BOND
M  V30 END CTAB
M  END
>  <Dataset>  (192) 
ChEMBL_Kinases

>  <Ligand_Instance>  (192) 
nan

>  <PDB_ID>  (192) 
nan

>  <Standardized_SMILES>  (192) 
Cc1cccc(-c2[nH]c(CNc3ccccc3C)nc2-c2ccc3c(cnn3C)c2)n1

>  <Name>  (192) 
nan

>  <Pocket>  (192) 
nan

>  <ATP_Site>  (192) 
nan

>  <Peripheral>  (192) 
nan

>  <Num_H_Atoms_ProtBoundConf>  (192) 
nan

>  <Num_Resolved_Atoms>  (192) 
nan

>  <Num_Not_Resolved_Atoms>  (192) 
nan

$$$$
CHEMBL1800911
     RDKit          3D

  0  0  0  0  0  0  0  0  0  0999 V3000
M  V30 BEGIN CTAB
M  V30 COUNTS 51 55 0 0 0
M  V30 BEGIN ATOM
M  V30 1 C 1.057871 -4.392009 1.498922 0
M  V30 2 C 1.971054 -3.331540 1.016540 0
M  V30 3 C 3.299146 -3.656077 0.741871 0
M  V30 4 C 4.167999 -2.680779 0.290645 0
M  V30 5 C 3.719534 -1.388315 0.112942 0
M  V30 6 C 4.688101 -0.407931 -0.365704 0
M  V30 7 O 5.849722 -0.754062 -0.591739 0
M  V30 8 N 4.378682 0.956122 -0.596331 0
M  V30 9 C 5.375137 1.876788 -1.068668 0
M  V30 10 C 5.301079 3.328939 -0.868353 0
M  V30 11 C 4.855797 2.788663 -2.188554 0
M  V30 12 C 2.406431 -1.084780 0.388477 0
M  V30 13 C 1.491988 -2.028520 0.844465 0
M  V30 14 C 0.103525 -1.673074 1.127851 0
M  V30 15 C -0.693238 -1.995455 2.190167 0
M  V30 16 C -1.990484 -1.527655 2.223155 0
M  V30 17 C -2.525041 -0.743746 1.226418 0
M  V30 18 C -1.729342 -0.407378 0.140869 0
M  V30 19 C -0.411128 -0.876433 0.096565 0
M  V30 20 N -2.527167 0.398638 -0.724719 0
M  V30 21 C -3.822825 0.551103 -0.153814 0
M  V30 22 O -4.742205 1.229818 -0.723925 0
M  V30 23 C -3.883469 -0.184158 1.141904 0
M  V30 24 C -4.263243 0.690851 2.292118 0
M  V30 25 C -5.387314 -0.044919 2.991466 0
M  V30 26 C -5.975214 -1.017958 2.019292 0
M  V30 27 C -4.886321 -1.284416 1.007344 0
M  V30 28 H 1.212892 -4.522835 2.579058 0
M  V30 29 H 0.011888 -4.270311 1.178342 0
M  V30 30 H 1.400928 -5.364247 1.038319 0
M  V30 31 H 3.688009 -4.657597 0.868707 0
M  V30 32 H 5.207613 -2.956140 0.080509 0
M  V30 33 H 3.403466 1.298432 -0.418386 0
M  V30 34 H 6.378015 1.428061 -1.229895 0
M  V30 35 H 4.567128 3.824021 -0.217841 0
M  V30 36 H 6.257457 3.890910 -0.908201 0
M  V30 37 H 3.751965 2.842818 -2.354023 0
M  V30 38 H 5.466874 2.901327 -3.106885 0
M  V30 39 H 2.050775 -0.074128 0.250822 0
M  V30 40 H -0.192618 -2.605868 2.912140 0
M  V30 41 H -2.559604 -1.821953 3.091370 0
M  V30 42 H 0.122031 -0.546742 -0.809057 0
M  V30 43 H -2.202475 0.815886 -1.646229 0
M  V30 44 H -3.469630 0.861577 3.039073 0
M  V30 45 H -4.675163 1.655458 1.909687 0
M  V30 46 H -4.959784 -0.615779 3.864936 0
M  V30 47 H -6.173346 0.687040 3.325852 0
M  V30 48 H -6.207286 -2.006912 2.510238 0
M  V30 49 H -6.895164 -0.583088 1.548443 0
M  V30 50 H -5.346283 -1.354292 -0.016402 0
M  V30 51 H -4.419062 -2.294064 1.164878 0
M  V30 END ATOM
M  V30 BEGIN BOND
M  V30 1 1 1 2
M  V30 2 2 2 3
M  V30 3 1 3 4
M  V30 4 2 4 5
M  V30 5 1 5 6
M  V30 6 2 6 7
M  V30 7 1 6 8
M  V30 8 1 8 9
M  V30 9 1 9 10
M  V30 10 1 10 11
M  V30 11 1 5 12
M  V30 12 2 12 13
M  V30 13 1 13 14
M  V30 14 2 14 15
M  V30 15 1 15 16
M  V30 16 2 16 17
M  V30 17 1 17 18
M  V30 18 2 18 19
M  V30 19 1 18 20
M  V30 20 1 20 21
M  V30 21 2 21 22
M  V30 22 1 21 23
M  V30 23 1 23 24
M  V30 24 1 24 25
M  V30 25 1 25 26
M  V30 26 1 26 27
M  V30 27 1 13 2
M  V30 28 1 19 14
M  V30 29 1 27 23
M  V30 30 1 11 9
M  V30 31 1 23 17
M  V30 32 1 1 28
M  V30 33 1 1 29
M  V30 34 1 1 30
M  V30 35 1 3 31
M  V30 36 1 4 32
M  V30 37 1 8 33
M  V30 38 1 9 34
M  V30 39 1 10 35
M  V30 40 1 10 36
M  V30 41 1 11 37
M  V30 42 1 11 38
M  V30 43 1 12 39
M  V30 44 1 15 40
M  V30 45 1 16 41
M  V30 46 1 19 42
M  V30 47 1 20 43
M  V30 48 1 24 44
M  V30 49 1 24 45
M  V30 50 1 25 46
M  V30 51 1 25 47
M  V30 52 1 26 48
M  V30 53 1 26 49
M  V30 54 1 27 50
M  V30 55 1 27 51
M  V30 END BOND
M  V30 END CTAB
M  END
>  <Dataset>  (193) 
ChEMBL_Kinases

>  <Ligand_Instance>  (193) 
nan

>  <PDB_ID>  (193) 
nan

>  <Standardized_SMILES>  (193) 
Cc1ccc(C(=O)NC2CC2)cc1-c1ccc2c(c1)NC(=O)C21CCCC1

>  <Name>  (193) 
nan

>  <Pocket>  (193) 
nan

>  <ATP_Site>  (193) 
nan

>  <Peripheral>  (193) 
nan

>  <Num_H_Atoms_ProtBoundConf>  (193) 
nan

>  <Num_Resolved_Atoms>  (193) 
nan

>  <Num_Not_Resolved_Atoms>  (193) 
nan

$$$$
CHEMBL180058
     RDKit          3D

  0  0  0  0  0  0  0  0  0  0999 V3000
M  V30 BEGIN CTAB
M  V30 COUNTS 76 83 0 0 0
M  V30 BEGIN ATOM
M  V30 1 C 7.236816 -4.585624 5.939600 0
M  V30 2 N 7.601368 -3.868528 4.723319 0
M  V30 3 N 8.722713 -3.731524 4.046167 0
M  V30 4 N 8.512375 -2.959058 2.991574 0
M  V30 5 C 7.212465 -2.582438 2.983956 0
M  V30 6 C 6.433846 -1.738068 2.064650 0
M  V30 7 C 6.979235 -0.551307 1.578753 0
M  V30 8 C 6.212754 0.210765 0.720292 0
M  V30 9 C 4.942621 -0.148844 0.326980 0
M  V30 10 N 4.199750 0.603615 -0.509377 0
M  V30 11 C 2.958435 0.252217 -0.889377 0
M  V30 12 C 2.173866 1.073718 -1.799070 0
M  V30 13 C 1.878220 0.946534 -3.131806 0
M  V30 14 C 1.098325 1.852445 -3.791272 0
M  V30 15 C 0.571681 2.944828 -3.131762 0
M  V30 16 C 0.846927 3.107931 -1.789064 0
M  V30 17 C 1.647486 2.173895 -1.121303 0
M  V30 18 C 2.413216 -0.921775 -0.411335 0
M  V30 19 C 1.088651 -1.443351 -0.704100 0
M  V30 20 C 0.465933 -1.873922 -1.852617 0
M  V30 21 C -0.831799 -2.327507 -1.831068 0
M  V30 22 C -1.581024 -2.381799 -0.683335 0
M  V30 23 C -2.979599 -2.868750 -0.665268 0
M  V30 24 N -3.925050 -1.795984 -0.811971 0
M  V30 25 C -5.254260 -2.377923 -0.776071 0
M  V30 26 C -6.236881 -1.362340 -1.249152 0
M  V30 27 C -5.630921 0.056452 -1.211867 0
M  V30 28 N -5.419070 0.422645 0.113907 0
M  V30 29 C -6.388056 0.214349 1.030113 0
M  V30 30 O -7.683801 -0.302998 1.111409 0
M  V30 31 N -5.987051 0.628505 2.216402 0
M  V30 32 C -4.751374 1.129737 2.171908 0
M  V30 33 C -3.805955 1.701526 3.027494 0
M  V30 34 C -2.564608 2.125869 2.593948 0
M  V30 35 C -2.278193 1.965244 1.259654 0
M  V30 36 C -3.200213 1.403151 0.404569 0
M  V30 37 C -4.431975 0.982081 0.836954 0
M  V30 38 C -4.610856 0.073078 -2.246595 0
M  V30 39 C -3.641709 -1.087571 -2.041632 0
M  V30 40 C -0.982610 -1.957355 0.479868 0
M  V30 41 C 0.333730 -1.492993 0.477818 0
M  V30 42 N 3.148164 -1.697025 0.435073 0
M  V30 43 C 4.385422 -1.315796 0.794425 0
M  V30 44 C 5.162675 -2.083929 1.662003 0
M  V30 45 N 6.669845 -3.173036 4.087648 0
M  V30 46 H 8.038846 -5.288615 6.244765 0
M  V30 47 H 6.324713 -5.230696 5.784006 0
M  V30 48 H 6.976245 -3.899905 6.776708 0
M  V30 49 H 7.991552 -0.231207 1.870328 0
M  V30 50 H 6.611866 1.145519 0.321914 0
M  V30 51 H 2.343916 0.058896 -3.552933 0
M  V30 52 H 0.927701 1.649219 -4.857912 0
M  V30 53 H -0.049745 3.653152 -3.683978 0
M  V30 54 H 0.410755 3.978565 -1.319937 0
M  V30 55 H 1.769383 2.444025 -0.069458 0
M  V30 56 H 1.132409 -1.800489 -2.698455 0
M  V30 57 H -1.235262 -2.643468 -2.780583 0
M  V30 58 H -3.159916 -3.464141 0.267218 0
M  V30 59 H -3.115968 -3.617758 -1.488660 0
M  V30 60 H -5.244242 -3.276146 -1.434991 0
M  V30 61 H -5.492351 -2.625127 0.276973 0
M  V30 62 H -7.238955 -1.414002 -0.838749 0
M  V30 63 H -6.368505 -1.560668 -2.357836 0
M  V30 64 H -6.506706 0.675928 -1.576837 0
M  V30 65 H -8.503994 0.212009 1.331424 0
M  V30 66 H -4.146638 1.778076 4.069732 0
M  V30 67 H -1.923119 2.549571 3.345864 0
M  V30 68 H -1.294006 2.303437 0.923553 0
M  V30 69 H -2.898347 1.314535 -0.624514 0
M  V30 70 H -4.162708 1.004230 -2.574388 0
M  V30 71 H -5.157782 -0.238993 -3.204044 0
M  V30 72 H -2.622647 -0.658741 -1.923760 0
M  V30 73 H -3.657838 -1.837613 -2.836420 0
M  V30 74 H -1.586851 -2.007832 1.375245 0
M  V30 75 H 0.656914 -1.196403 1.477995 0
M  V30 76 H 4.702369 -2.994325 2.014741 0
M  V30 END ATOM
M  V30 BEGIN BOND
M  V30 1 1 1 2
M  V30 2 1 2 3
M  V30 3 2 3 4
M  V30 4 1 4 5
M  V30 5 1 5 6
M  V30 6 2 6 7
M  V30 7 1 7 8
M  V30 8 2 8 9
M  V30 9 1 9 10
M  V30 10 2 10 11
M  V30 11 1 11 12
M  V30 12 2 12 13
M  V30 13 1 13 14
M  V30 14 2 14 15
M  V30 15 1 15 16
M  V30 16 2 16 17
M  V30 17 1 11 18
M  V30 18 1 18 19
M  V30 19 2 19 20
M  V30 20 1 20 21
M  V30 21 2 21 22
M  V30 22 1 22 23
M  V30 23 1 23 24
M  V30 24 1 24 25
M  V30 25 1 25 26
M  V30 26 1 26 27
M  V30 27 1 27 28
M  V30 28 1 28 29
M  V30 29 1 29 30
M  V30 30 2 29 31
M  V30 31 1 31 32
M  V30 32 2 32 33
M  V30 33 1 33 34
M  V30 34 2 34 35
M  V30 35 1 35 36
M  V30 36 2 36 37
M  V30 37 1 27 38
M  V30 38 1 38 39
M  V30 39 1 22 40
M  V30 40 2 40 41
M  V30 41 2 18 42
M  V30 42 1 42 43
M  V30 43 2 43 44
M  V30 44 2 5 45
M  V30 45 1 45 2
M  V30 46 1 44 6
M  V30 47 1 43 9
M  V30 48 1 17 12
M  V30 49 1 41 19
M  V30 50 1 39 24
M  V30 51 1 37 28
M  V30 52 1 37 32
M  V30 53 1 1 46
M  V30 54 1 1 47
M  V30 55 1 1 48
M  V30 56 1 7 49
M  V30 57 1 8 50
M  V30 58 1 13 51
M  V30 59 1 14 52
M  V30 60 1 15 53
M  V30 61 1 16 54
M  V30 62 1 17 55
M  V30 63 1 20 56
M  V30 64 1 21 57
M  V30 65 1 23 58
M  V30 66 1 23 59
M  V30 67 1 25 60
M  V30 68 1 25 61
M  V30 69 1 26 62
M  V30 70 1 26 63
M  V30 71 1 27 64
M  V30 72 1 30 65
M  V30 73 1 33 66
M  V30 74 1 34 67
M  V30 75 1 35 68
M  V30 76 1 36 69
M  V30 77 1 38 70
M  V30 78 1 38 71
M  V30 79 1 39 72
M  V30 80 1 39 73
M  V30 81 1 40 74
M  V30 82 1 41 75
M  V30 83 1 44 76
M  V30 END BOND
M  V30 END CTAB
M  END
>  <Dataset>  (194) 
ChEMBL_Kinases

>  <Ligand_Instance>  (194) 
nan

>  <PDB_ID>  (194) 
nan

>  <Standardized_SMILES>  (194) 
Cn1nnc(-c2ccc3nc(-c4ccccc4)c(-c4ccc(CN5CCC(n6c(O)nc7ccccc76)CC5)cc4)nc3c2)n1

>  <Name>  (194) 
nan

>  <Pocket>  (194) 
nan

>  <ATP_Site>  (194) 
nan

>  <Peripheral>  (194) 
nan

>  <Num_H_Atoms_ProtBoundConf>  (194) 
nan

>  <Num_Resolved_Atoms>  (194) 
nan

>  <Num_Not_Resolved_Atoms>  (194) 
nan

$$$$
CHEMBL4780141
     RDKit          3D

  0  0  0  0  0  0  0  0  0  0999 V3000
M  V30 BEGIN CTAB
M  V30 COUNTS 49 53 0 0 0
M  V30 BEGIN ATOM
M  V30 1 C 0.275392 -0.687861 5.453625 0
M  V30 2 C 0.589616 -1.614513 4.330193 0
M  V30 3 C 0.873728 -2.942721 4.489241 0
M  V30 4 C 1.155034 -3.724053 3.374532 0
M  V30 5 C 1.147730 -3.162804 2.113357 0
M  V30 6 C 0.858074 -1.818509 1.974265 0
M  V30 7 C 0.840259 -1.186183 0.659191 0
M  V30 8 N 1.643153 -0.193971 0.243964 0
M  V30 9 C 1.383840 0.177152 -1.019673 0
M  V30 10 C 1.924121 1.190909 -1.958787 0
M  V30 11 N 1.222937 2.427919 -1.985535 0
M  V30 12 C 1.063707 3.413939 -0.997007 0
M  V30 13 C 1.610075 3.390246 0.270948 0
M  V30 14 C 1.457706 4.333647 1.237249 0
M  V30 15 C 0.688869 5.436507 0.958895 0
M  V30 16 F 0.485373 6.417271 1.856491 0
M  V30 17 C 0.104638 5.542040 -0.284533 0
M  V30 18 C 0.304038 4.546428 -1.211759 0
M  V30 19 N 0.356581 -0.627632 -1.428959 0
M  V30 20 C 0.026219 -1.449733 -0.421472 0
M  V30 21 C -1.007793 -2.476727 -0.393318 0
M  V30 22 C -2.073272 -2.375131 0.489500 0
M  V30 23 C -3.076298 -3.313953 0.558954 0
M  V30 24 C -2.982978 -4.396042 -0.308477 0
M  V30 25 N -3.783420 -5.454763 -0.481007 0
M  V30 26 N -3.297739 -6.253450 -1.437466 0
M  V30 27 C -2.146744 -5.691142 -1.896322 0
M  V30 28 C -1.937511 -4.537229 -1.205314 0
M  V30 29 C -0.966159 -3.566042 -1.226948 0
M  V30 30 N 0.591900 -1.105169 3.091354 0
M  V30 31 H -0.831012 -0.487431 5.366875 0
M  V30 32 H 0.767397 0.284802 5.238271 0
M  V30 33 H 0.545831 -1.099039 6.439640 0
M  V30 34 H 0.864716 -3.323999 5.492898 0
M  V30 35 H 1.378679 -4.772413 3.507868 0
M  V30 36 H 1.367921 -3.775532 1.243311 0
M  V30 37 H 2.377610 0.239624 0.804544 0
M  V30 38 H 1.937356 0.742251 -2.971280 0
M  V30 39 H 3.026836 1.363104 -1.745503 0
M  V30 40 H 0.737950 2.654120 -2.888576 0
M  V30 41 H 2.225910 2.559337 0.549195 0
M  V30 42 H 1.900936 4.274048 2.209895 0
M  V30 43 H -0.499787 6.400698 -0.515438 0
M  V30 44 H -0.191050 4.696968 -2.179215 0
M  V30 45 H -2.149358 -1.528054 1.170782 0
M  V30 46 H -3.919417 -3.254782 1.241792 0
M  V30 47 H -4.669499 -5.708029 0.004276 0
M  V30 48 H -1.475572 -6.022533 -2.649678 0
M  V30 49 H -0.133619 -3.649022 -1.919242 0
M  V30 END ATOM
M  V30 BEGIN BOND
M  V30 1 1 1 2
M  V30 2 2 2 3
M  V30 3 1 3 4
M  V30 4 2 4 5
M  V30 5 1 5 6
M  V30 6 1 6 7
M  V30 7 1 7 8
M  V30 8 1 8 9
M  V30 9 1 9 10
M  V30 10 1 10 11
M  V30 11 1 11 12
M  V30 12 2 12 13
M  V30 13 1 13 14
M  V30 14 2 14 15
M  V30 15 1 15 16
M  V30 16 1 15 17
M  V30 17 2 17 18
M  V30 18 2 9 19
M  V30 19 1 19 20
M  V30 20 1 20 21
M  V30 21 2 21 22
M  V30 22 1 22 23
M  V30 23 2 23 24
M  V30 24 1 24 25
M  V30 25 1 25 26
M  V30 26 2 26 27
M  V30 27 1 27 28
M  V30 28 2 28 29
M  V30 29 2 6 30
M  V30 30 1 30 2
M  V30 31 2 20 7
M  V30 32 1 29 21
M  V30 33 1 18 12
M  V30 34 1 28 24
M  V30 35 1 1 31
M  V30 36 1 1 32
M  V30 37 1 1 33
M  V30 38 1 3 34
M  V30 39 1 4 35
M  V30 40 1 5 36
M  V30 41 1 8 37
M  V30 42 1 10 38
M  V30 43 1 10 39
M  V30 44 1 11 40
M  V30 45 1 13 41
M  V30 46 1 14 42
M  V30 47 1 17 43
M  V30 48 1 18 44
M  V30 49 1 22 45
M  V30 50 1 23 46
M  V30 51 1 25 47
M  V30 52 1 27 48
M  V30 53 1 29 49
M  V30 END BOND
M  V30 END CTAB
M  END
>  <Dataset>  (195) 
ChEMBL_Kinases

>  <Ligand_Instance>  (195) 
nan

>  <PDB_ID>  (195) 
nan

>  <Standardized_SMILES>  (195) 
Cc1cccc(-c2[nH]c(CNc3ccc(F)cc3)nc2-c2ccc3[nH]ncc3c2)n1

>  <Name>  (195) 
nan

>  <Pocket>  (195) 
nan

>  <ATP_Site>  (195) 
nan

>  <Peripheral>  (195) 
nan

>  <Num_H_Atoms_ProtBoundConf>  (195) 
nan

>  <Num_Resolved_Atoms>  (195) 
nan

>  <Num_Not_Resolved_Atoms>  (195) 
nan

$$$$
CHEMBL4779579
     RDKit          3D

  0  0  0  0  0  0  0  0  0  0999 V3000
M  V30 BEGIN CTAB
M  V30 COUNTS 35 37 0 0 0
M  V30 BEGIN ATOM
M  V30 1 C -0.467389 -4.818852 1.704178 0
M  V30 2 N -0.774477 -3.597852 1.102689 0
M  V30 3 C -1.083478 -2.368786 0.497274 0
M  V30 4 N -0.398124 -1.222330 0.365264 0
M  V30 5 C -0.952913 -0.162068 -0.256028 0
M  V30 6 C -0.394439 1.069219 -0.472534 0
M  V30 7 C 0.900057 1.626641 -0.126983 0
M  V30 8 C 1.718251 2.356815 -0.996616 0
M  V30 9 C 2.936521 2.884592 -0.662103 0
M  V30 10 N 3.395664 2.702314 0.574793 0
M  V30 11 C 2.676723 2.004765 1.503037 0
M  V30 12 O 3.043125 1.746117 2.822374 0
M  V30 13 C 4.264788 2.202912 3.365850 0
M  V30 14 C 1.453245 1.479650 1.152048 0
M  V30 15 C -1.408801 1.722369 -1.137261 0
M  V30 16 N -2.444283 0.877366 -1.262452 0
M  V30 17 N -2.187645 -0.301124 -0.722763 0
M  V30 18 C -2.965074 -1.390119 -0.650623 0
M  V30 19 C -2.385581 -2.495923 -0.002975 0
M  V30 20 C -3.367177 -3.641274 -0.003639 0
M  V30 21 H -1.417919 -5.471232 1.771450 0
M  V30 22 H -0.125496 -4.706730 2.764499 0
M  V30 23 H 0.304474 -5.463208 1.183167 0
M  V30 24 H 0.231362 -3.295532 1.353791 0
M  V30 25 H 1.325973 2.496594 -2.005323 0
M  V30 26 H 3.498053 3.430001 -1.386530 0
M  V30 27 H 4.413411 3.300740 3.266313 0
M  V30 28 H 4.405749 1.890225 4.411205 0
M  V30 29 H 5.090294 1.730800 2.758913 0
M  V30 30 H 0.809072 0.905366 1.834318 0
M  V30 31 H -1.386815 2.738856 -1.498550 0
M  V30 32 H -3.963978 -1.342968 -1.086715 0
M  V30 33 H -3.842184 -3.718104 -1.026451 0
M  V30 34 H -2.832272 -4.568157 0.161298 0
M  V30 35 H -4.174554 -3.472536 0.734372 0
M  V30 END ATOM
M  V30 BEGIN BOND
M  V30 1 1 1 2
M  V30 2 1 2 3
M  V30 3 2 3 4
M  V30 4 1 4 5
M  V30 5 2 5 6
M  V30 6 1 6 7
M  V30 7 2 7 8
M  V30 8 1 8 9
M  V30 9 2 9 10
M  V30 10 1 10 11
M  V30 11 1 11 12
M  V30 12 1 12 13
M  V30 13 2 11 14
M  V30 14 1 6 15
M  V30 15 2 15 16
M  V30 16 1 16 17
M  V30 17 1 17 18
M  V30 18 2 18 19
M  V30 19 1 19 20
M  V30 20 1 19 3
M  V30 21 1 17 5
M  V30 22 1 14 7
M  V30 23 1 1 21
M  V30 24 1 1 22
M  V30 25 1 1 23
M  V30 26 1 2 24
M  V30 27 1 8 25
M  V30 28 1 9 26
M  V30 29 1 13 27
M  V30 30 1 13 28
M  V30 31 1 13 29
M  V30 32 1 14 30
M  V30 33 1 15 31
M  V30 34 1 18 32
M  V30 35 1 20 33
M  V30 36 1 20 34
M  V30 37 1 20 35
M  V30 END BOND
M  V30 END CTAB
M  END
>  <Dataset>  (196) 
ChEMBL_Kinases

>  <Ligand_Instance>  (196) 
nan

>  <PDB_ID>  (196) 
nan

>  <Standardized_SMILES>  (196) 
CNc1nc2c(-c3ccnc(OC)c3)cnn2cc1C

>  <Name>  (196) 
nan

>  <Pocket>  (196) 
nan

>  <ATP_Site>  (196) 
nan

>  <Peripheral>  (196) 
nan

>  <Num_H_Atoms_ProtBoundConf>  (196) 
nan

>  <Num_Resolved_Atoms>  (196) 
nan

>  <Num_Not_Resolved_Atoms>  (196) 
nan

$$$$
CHEMBL4791582
     RDKit          3D

  0  0  0  0  0  0  0  0  0  0999 V3000
M  V30 BEGIN CTAB
M  V30 COUNTS 62 67 0 0 0
M  V30 BEGIN ATOM
M  V30 1 O 2.060994 -2.710771 5.531436 0
M  V30 2 C 0.930411 -3.077528 4.819214 0
M  V30 3 C 1.370154 -3.959403 3.682064 0
M  V30 4 C 1.107547 -3.677389 2.371623 0
M  V30 5 C 1.474781 -4.429700 1.281103 0
M  V30 6 N 1.169780 -4.114156 -0.069801 0
M  V30 7 C 0.471081 -2.898034 -0.319418 0
M  V30 8 C 0.938448 -1.796452 -1.046269 0
M  V30 9 C 0.154704 -0.666529 -1.197519 0
M  V30 10 O 0.753007 0.351889 -1.947453 0
M  V30 11 C 0.093308 1.531584 -2.223925 0
M  V30 12 C 0.503018 2.772855 -1.798158 0
M  V30 13 N -0.368937 3.693233 -2.243993 0
M  V30 14 C -0.398451 5.142928 -2.081795 0
M  V30 15 C 0.131505 5.648046 -0.730248 0
M  V30 16 C -1.307520 5.761615 -1.098007 0
M  V30 17 N -1.301837 3.058800 -2.930732 0
M  V30 18 C -1.058162 1.729455 -2.945960 0
M  V30 19 C -1.941708 0.825055 -3.690851 0
M  V30 20 C -1.847383 0.991310 -5.217763 0
M  V30 21 C -2.089063 -0.501578 -5.299742 0
M  V30 22 F -3.418634 -0.813807 -5.112291 0
M  V30 23 F -1.450126 -1.133682 -6.334277 0
M  V30 24 C -1.353829 -0.572498 -3.947068 0
M  V30 25 C -1.110942 -0.666633 -0.601282 0
M  V30 26 C -1.564000 -1.739718 0.106090 0
M  V30 27 N -0.760189 -2.800526 0.215343 0
M  V30 28 C 2.184722 -5.575772 1.663701 0
M  V30 29 C 2.469239 -5.894603 2.977457 0
M  V30 30 N 2.061969 -5.086528 3.983935 0
M  V30 31 C 0.261177 -1.839985 4.321310 0
M  V30 32 C -0.125021 -0.968397 5.483829 0
M  V30 33 O -0.604561 -1.689079 6.556527 0
M  V30 34 C -1.113615 -2.914598 6.181157 0
M  V30 35 C -0.026361 -3.842811 5.693196 0
M  V30 36 H 1.946663 -1.901187 6.063364 0
M  V30 37 H 0.550448 -2.763201 2.197614 0
M  V30 38 H 1.501421 -4.828157 -0.775278 0
M  V30 39 H 1.919364 -1.920206 -1.453816 0
M  V30 40 H 1.379725 3.026640 -1.198512 0
M  V30 41 H -0.086116 5.777894 -2.940131 0
M  V30 42 H 0.782508 6.546454 -0.716857 0
M  V30 43 H 0.361618 4.900960 0.059639 0
M  V30 44 H -1.743955 6.747085 -1.331562 0
M  V30 45 H -2.053348 5.093889 -0.579365 0
M  V30 46 H -2.994889 0.759708 -3.408346 0
M  V30 47 H -0.883289 1.347947 -5.590452 0
M  V30 48 H -2.691786 1.586275 -5.607033 0
M  V30 49 H -1.747376 -1.366803 -3.302922 0
M  V30 50 H -0.279946 -0.598213 -4.126584 0
M  V30 51 H -1.650928 0.233992 -0.758172 0
M  V30 52 H -2.554687 -1.634573 0.524572 0
M  V30 53 H 2.527862 -6.252002 0.867891 0
M  V30 54 H 3.033729 -6.821265 3.161763 0
M  V30 55 H -0.654301 -2.035412 3.734841 0
M  V30 56 H 0.915674 -1.229206 3.659714 0
M  V30 57 H -0.933834 -0.232981 5.195540 0
M  V30 58 H 0.712298 -0.290165 5.822212 0
M  V30 59 H -1.592525 -3.363836 7.087896 0
M  V30 60 H -1.931822 -2.800398 5.423686 0
M  V30 61 H -0.443944 -4.669699 5.081424 0
M  V30 62 H 0.514747 -4.272375 6.561146 0
M  V30 END ATOM
M  V30 BEGIN BOND
M  V30 1 1 1 2
M  V30 2 1 2 3
M  V30 3 2 3 4
M  V30 4 1 4 5
M  V30 5 1 5 6
M  V30 6 1 6 7
M  V30 7 2 7 8
M  V30 8 1 8 9
M  V30 9 1 9 10
M  V30 10 1 10 11
M  V30 11 2 11 12
M  V30 12 1 12 13
M  V30 13 1 13 14
M  V30 14 1 14 15
M  V30 15 1 15 16
M  V30 16 1 13 17
M  V30 17 2 17 18
M  V30 18 1 18 19
M  V30 19 1 19 20
M  V30 20 1 20 21
M  V30 21 1 21 22
M  V30 22 1 21 23
M  V30 23 1 21 24
M  V30 24 2 9 25
M  V30 25 1 25 26
M  V30 26 2 26 27
M  V30 27 2 5 28
M  V30 28 1 28 29
M  V30 29 2 29 30
M  V30 30 1 2 31
M  V30 31 1 31 32
M  V30 32 1 32 33
M  V30 33 1 33 34
M  V30 34 1 34 35
M  V30 35 1 35 2
M  V30 36 1 30 3
M  V30 37 1 27 7
M  V30 38 1 18 11
M  V30 39 1 24 19
M  V30 40 1 16 14
M  V30 41 1 1 36
M  V30 42 1 4 37
M  V30 43 1 6 38
M  V30 44 1 8 39
M  V30 45 1 12 40
M  V30 46 1 14 41
M  V30 47 1 15 42
M  V30 48 1 15 43
M  V30 49 1 16 44
M  V30 50 1 16 45
M  V30 51 1 19 46
M  V30 52 1 20 47
M  V30 53 1 20 48
M  V30 54 1 24 49
M  V30 55 1 24 50
M  V30 56 1 25 51
M  V30 57 1 26 52
M  V30 58 1 28 53
M  V30 59 1 29 54
M  V30 60 1 31 55
M  V30 61 1 31 56
M  V30 62 1 32 57
M  V30 63 1 32 58
M  V30 64 1 34 59
M  V30 65 1 34 60
M  V30 66 1 35 61
M  V30 67 1 35 62
M  V30 END BOND
M  V30 END CTAB
M  END
>  <Dataset>  (197) 
ChEMBL_Kinases

>  <Ligand_Instance>  (197) 
nan

>  <PDB_ID>  (197) 
nan

>  <Standardized_SMILES>  (197) 
OC1(c2cc(Nc3cc(Oc4cn(C5CC5)nc4C4CC(F)(F)C4)ccn3)ccn2)CCOCC1

>  <Name>  (197) 
nan

>  <Pocket>  (197) 
nan

>  <ATP_Site>  (197) 
nan

>  <Peripheral>  (197) 
nan

>  <Num_H_Atoms_ProtBoundConf>  (197) 
nan

>  <Num_Resolved_Atoms>  (197) 
nan

>  <Num_Not_Resolved_Atoms>  (197) 
nan

$$$$
CHEMBL4878881
     RDKit          3D

  0  0  0  0  0  0  0  0  0  0999 V3000
M  V30 BEGIN CTAB
M  V30 COUNTS 35 38 0 0 0
M  V30 BEGIN ATOM
M  V30 1 O -0.271400 -4.310638 5.318645 0
M  V30 2 C -0.000322 -3.726175 4.066020 0
M  V30 3 C -0.029222 -4.598987 2.997630 0
M  V30 4 C 0.243681 -3.990632 1.766011 0
M  V30 5 C 0.512798 -2.629938 1.679516 0
M  V30 6 C 0.787674 -2.068771 0.357080 0
M  V30 7 C 1.410322 -2.795796 -0.643835 0
M  V30 8 N 1.654801 -2.256135 -1.862906 0
M  V30 9 C 1.297880 -0.980245 -2.149185 0
M  V30 10 N 1.397125 -0.179753 -3.225601 0
M  V30 11 N 0.882344 1.016263 -2.993647 0
M  V30 12 C 0.405483 1.061091 -1.715116 0
M  V30 13 C -0.238095 2.194003 -1.058747 0
M  V30 14 C 0.224041 3.493283 -1.111137 0
M  V30 15 C -0.414000 4.542268 -0.477820 0
M  V30 16 C -1.547702 4.270696 0.226012 0
M  V30 17 C -2.021620 2.983462 0.288609 0
M  V30 18 C -1.395425 1.906590 -0.342277 0
M  V30 19 C 0.669416 -0.190532 -1.195022 0
M  V30 20 C 0.434039 -0.767084 0.035690 0
M  V30 21 C 0.517588 -1.841286 2.811850 0
M  V30 22 C 0.257610 -2.370793 4.059627 0
M  V30 23 H 0.461289 -4.306195 6.020048 0
M  V30 24 H -0.240897 -5.632725 3.119110 0
M  V30 25 H 0.236585 -4.620828 0.887251 0
M  V30 26 H 1.706547 -3.810188 -0.451127 0
M  V30 27 H 1.837381 -0.515742 -4.110408 0
M  V30 28 H 1.127994 3.651626 -1.683852 0
M  V30 29 H -0.043359 5.554418 -0.525538 0
M  V30 30 H -2.077693 5.063159 0.736775 0
M  V30 31 H -2.941046 2.826563 0.871541 0
M  V30 32 H -1.875820 0.949351 -0.211500 0
M  V30 33 H -0.045896 -0.202686 0.807114 0
M  V30 34 H 0.728186 -0.771731 2.750820 0
M  V30 35 H 0.243874 -1.817365 4.987657 0
M  V30 END ATOM
M  V30 BEGIN BOND
M  V30 1 1 1 2
M  V30 2 2 2 3
M  V30 3 1 3 4
M  V30 4 2 4 5
M  V30 5 1 5 6
M  V30 6 2 6 7
M  V30 7 1 7 8
M  V30 8 2 8 9
M  V30 9 1 9 10
M  V30 10 1 10 11
M  V30 11 2 11 12
M  V30 12 1 12 13
M  V30 13 2 13 14
M  V30 14 1 14 15
M  V30 15 2 15 16
M  V30 16 1 16 17
M  V30 17 2 17 18
M  V30 18 1 12 19
M  V30 19 2 19 20
M  V30 20 1 5 21
M  V30 21 2 21 22
M  V30 22 1 22 2
M  V30 23 1 20 6
M  V30 24 1 19 9
M  V30 25 1 18 13
M  V30 26 1 1 23
M  V30 27 1 3 24
M  V30 28 1 4 25
M  V30 29 1 7 26
M  V30 30 1 10 27
M  V30 31 1 14 28
M  V30 32 1 15 29
M  V30 33 1 16 30
M  V30 34 1 17 31
M  V30 35 1 18 32
M  V30 36 1 20 33
M  V30 37 1 21 34
M  V30 38 1 22 35
M  V30 END BOND
M  V30 END CTAB
M  END
>  <Dataset>  (198) 
ChEMBL_Kinases

>  <Ligand_Instance>  (198) 
nan

>  <PDB_ID>  (198) 
nan

>  <Standardized_SMILES>  (198) 
Oc1ccc(-c2cnc3[nH]nc(-c4ccccc4)c3c2)cc1

>  <Name>  (198) 
nan

>  <Pocket>  (198) 
nan

>  <ATP_Site>  (198) 
nan

>  <Peripheral>  (198) 
nan

>  <Num_H_Atoms_ProtBoundConf>  (198) 
nan

>  <Num_Resolved_Atoms>  (198) 
nan

>  <Num_Not_Resolved_Atoms>  (198) 
nan

$$$$
CHEMBL4791701
     RDKit          3D

  0  0  0  0  0  0  0  0  0  0999 V3000
M  V30 BEGIN CTAB
M  V30 COUNTS 49 51 0 0 0
M  V30 BEGIN ATOM
M  V30 1 C -1.082557 -3.517769 3.068981 0
M  V30 2 C -0.533465 -3.849338 1.673666 0
M  V30 3 C -1.209932 -2.949743 0.718838 0
M  V30 4 C -0.496786 -1.870344 0.237790 0
M  V30 5 C -1.076464 -0.986633 -0.646947 0
M  V30 6 C -0.378795 0.178735 -1.191822 0
M  V30 7 O -0.867079 1.009226 -2.015696 0
M  V30 8 N 0.959311 0.505815 -0.839008 0
M  V30 9 C 1.670496 1.661395 -1.369631 0 CFG=2
M  V30 10 C 2.919072 1.285940 -2.097585 0
M  V30 11 C 1.979933 2.585975 -0.221226 0
M  V30 12 C 1.753433 3.953145 -0.366898 0
M  V30 13 C 2.009584 4.873731 0.637196 0
M  V30 14 C 2.508106 4.397535 1.819391 0
M  V30 15 C 2.742210 3.028778 1.984969 0
M  V30 16 O 3.247803 2.660142 3.222808 0
M  V30 17 C 3.541661 1.302647 3.552914 0
M  V30 18 C 2.478710 2.133252 0.969796 0
M  V30 19 C -2.386543 -1.158013 -1.075883 0
M  V30 20 C -3.028352 -2.259496 -0.548907 0
M  V30 21 C -2.498429 -3.193144 0.350951 0
M  V30 22 C -3.327146 -4.291333 0.777323 0
M  V30 23 C -4.596923 -3.949496 1.266205 0
M  V30 24 N -5.258690 -5.075471 1.614567 0
M  V30 25 N -4.481420 -6.132763 1.375978 0
M  V30 26 C -3.312515 -5.664834 0.869562 0
M  V30 27 H -0.271957 -3.505622 3.830571 0
M  V30 28 H -1.846754 -4.253294 3.393340 0
M  V30 29 H -1.577083 -2.535320 3.099477 0
M  V30 30 H -0.721481 -4.902942 1.500781 0
M  V30 31 H 0.558549 -3.624951 1.738718 0
M  V30 32 H 0.518923 -1.719673 0.557036 0
M  V30 33 H 1.494021 -0.087311 -0.168167 0
M  V30 34 H 1.008143 2.217046 -2.079067 0
M  V30 35 H 3.816004 1.689857 -1.556843 0
M  V30 36 H 2.945567 1.730290 -3.113590 0
M  V30 37 H 3.055344 0.189384 -2.202418 0
M  V30 38 H 1.358958 4.306002 -1.310117 0
M  V30 39 H 1.795089 5.925322 0.417553 0
M  V30 40 H 2.691801 5.156559 2.572611 0
M  V30 41 H 2.640310 0.663648 3.542789 0
M  V30 42 H 4.219795 0.905989 2.771544 0
M  V30 43 H 4.089261 1.294485 4.522054 0
M  V30 44 H 2.668383 1.081542 1.124110 0
M  V30 45 H -2.885144 -0.511343 -1.755219 0
M  V30 46 H -4.056590 -2.410426 -0.873569 0
M  V30 47 H -5.190226 -3.038221 1.440639 0
M  V30 48 H -4.566561 -7.169260 1.484918 0
M  V30 49 H -2.426675 -6.187151 0.541116 0
M  V30 END ATOM
M  V30 BEGIN BOND
M  V30 1 1 1 2
M  V30 2 1 2 3
M  V30 3 2 3 4
M  V30 4 1 4 5
M  V30 5 1 5 6
M  V30 6 2 6 7
M  V30 7 1 6 8
M  V30 8 1 8 9
M  V30 9 1 9 10
M  V30 10 1 9 11
M  V30 11 2 11 12
M  V30 12 1 12 13
M  V30 13 2 13 14
M  V30 14 1 14 15
M  V30 15 1 15 16
M  V30 16 1 16 17
M  V30 17 2 15 18
M  V30 18 2 5 19
M  V30 19 1 19 20
M  V30 20 2 20 21
M  V30 21 1 21 22
M  V30 22 1 22 23
M  V30 23 2 23 24
M  V30 24 1 24 25
M  V30 25 1 25 26
M  V30 26 1 21 3
M  V30 27 2 26 22
M  V30 28 1 18 11
M  V30 29 1 1 27
M  V30 30 1 1 28
M  V30 31 1 1 29
M  V30 32 1 2 30
M  V30 33 1 2 31
M  V30 34 1 4 32
M  V30 35 1 8 33
M  V30 36 1 9 34 CFG=3
M  V30 37 1 10 35
M  V30 38 1 10 36
M  V30 39 1 10 37
M  V30 40 1 12 38
M  V30 41 1 13 39
M  V30 42 1 14 40
M  V30 43 1 17 41
M  V30 44 1 17 42
M  V30 45 1 17 43
M  V30 46 1 18 44
M  V30 47 1 19 45
M  V30 48 1 20 46
M  V30 49 1 23 47
M  V30 50 1 25 48
M  V30 51 1 26 49
M  V30 END BOND
M  V30 END CTAB
M  END
>  <Dataset>  (199) 
ChEMBL_Kinases

>  <Ligand_Instance>  (199) 
nan

>  <PDB_ID>  (199) 
nan

>  <Standardized_SMILES>  (199) 
CCc1cc(C(=O)N[C@H](C)c2cccc(OC)c2)ccc1-c1cn[nH]c1

>  <Name>  (199) 
nan

>  <Pocket>  (199) 
nan

>  <ATP_Site>  (199) 
nan

>  <Peripheral>  (199) 
nan

>  <Num_H_Atoms_ProtBoundConf>  (199) 
nan

>  <Num_Resolved_Atoms>  (199) 
nan

>  <Num_Not_Resolved_Atoms>  (199) 
nan

$$$$
CHEMBL4878871
     RDKit          3D

  0  0  0  0  0  0  0  0  0  0999 V3000
M  V30 BEGIN CTAB
M  V30 COUNTS 57 59 0 0 0
M  V30 BEGIN ATOM
M  V30 1 C 2.196246 -0.488266 5.448116 0
M  V30 2 C 2.055233 -0.772575 3.923358 0
M  V30 3 C 0.687409 -0.246621 3.579331 0
M  V30 4 C 1.998000 -2.292018 3.824205 0
M  V30 5 O 3.038879 -0.191426 3.228187 0
M  V30 6 C 3.581151 0.000360 2.042351 0
M  V30 7 N 4.456485 -1.015910 1.885743 0
M  V30 8 C 5.195741 -1.106726 0.755373 0
M  V30 9 N 5.102197 -0.202939 -0.262168 0
M  V30 10 C 4.246089 0.825408 -0.155874 0
M  V30 11 C 3.509802 0.889811 1.002188 0
M  V30 12 C 2.515853 1.964981 1.152367 0
M  V30 13 N 1.215510 1.557680 0.673310 0
M  V30 14 C 0.746490 0.289729 0.264938 0
M  V30 15 C -0.538764 0.160851 -0.126252 0
M  V30 16 C -1.032369 -1.059741 -0.532862 0
M  V30 17 N -2.391251 -1.215682 -0.923389 0
M  V30 18 C -3.287228 -2.186940 -1.432109 0 CFG=1
M  V30 19 C -4.755632 -1.790845 -1.321349 0
M  V30 20 C -4.945026 -0.489291 -1.988187 0
M  V30 21 C -4.245056 -0.224897 -3.252442 0 CFG=1
M  V30 22 O -3.634349 1.049036 -3.149690 0
M  V30 23 C -3.248079 -1.203251 -3.734227 0
M  V30 24 C -3.116296 -2.449142 -2.915322 0
M  V30 25 C -0.112700 -2.098793 -0.500096 0
M  V30 26 C -0.502402 -3.428143 -0.876382 0
M  V30 27 N -0.817839 -4.501107 -1.191425 0
M  V30 28 C 1.193653 -1.983307 -0.106240 0
M  V30 29 N 1.579565 -0.757412 0.271026 0
M  V30 30 H 3.099507 -0.982478 5.833259 0
M  V30 31 H 1.290135 -0.936238 5.901747 0
M  V30 32 H 2.168347 0.591944 5.603937 0
M  V30 33 H 0.232526 -0.881124 2.796980 0
M  V30 34 H 0.007734 -0.300338 4.471640 0
M  V30 35 H 0.759739 0.800869 3.262864 0
M  V30 36 H 0.932192 -2.637597 3.943882 0
M  V30 37 H 2.666885 -2.733499 4.590893 0
M  V30 38 H 2.288993 -2.584041 2.793594 0
M  V30 39 H 5.947699 -1.848963 0.450920 0
M  V30 40 H 4.099482 1.588732 -0.902366 0
M  V30 41 H 2.478241 2.273757 2.226948 0
M  V30 42 H 2.858624 2.818706 0.524219 0
M  V30 43 H 0.575611 2.407247 0.660112 0
M  V30 44 H -1.179683 1.042885 -0.115135 0
M  V30 45 H -2.933998 -0.331900 -0.810989 0
M  V30 46 H -3.192755 -3.142869 -0.885683 0
M  V30 47 H -4.990188 -1.680262 -0.233707 0
M  V30 48 H -5.315417 -2.639671 -1.763928 0
M  V30 49 H -6.072418 -0.387727 -2.154206 0
M  V30 50 H -4.769415 0.332047 -1.226560 0
M  V30 51 H -5.011878 -0.062175 -4.067341 0
M  V30 52 H -2.706990 0.963805 -2.873752 0
M  V30 53 H -3.476595 -1.538216 -4.767082 0
M  V30 54 H -2.229441 -0.748764 -3.785535 0
M  V30 55 H -2.152034 -2.940317 -3.081906 0
M  V30 56 H -3.900746 -3.187973 -3.197059 0
M  V30 57 H 1.896547 -2.802416 -0.087136 0
M  V30 END ATOM
M  V30 BEGIN BOND
M  V30 1 1 1 2
M  V30 2 1 2 3
M  V30 3 1 2 4
M  V30 4 1 2 5
M  V30 5 1 5 6
M  V30 6 2 6 7
M  V30 7 1 7 8
M  V30 8 2 8 9
M  V30 9 1 9 10
M  V30 10 2 10 11
M  V30 11 1 11 12
M  V30 12 1 12 13
M  V30 13 1 13 14
M  V30 14 2 14 15
M  V30 15 1 15 16
M  V30 16 1 16 17
M  V30 17 1 17 18
M  V30 18 1 18 19
M  V30 19 1 19 20
M  V30 20 1 20 21
M  V30 21 1 21 22
M  V30 22 1 21 23
M  V30 23 1 23 24
M  V30 24 2 16 25
M  V30 25 1 25 26
M  V30 26 3 26 27
M  V30 27 1 25 28
M  V30 28 2 28 29
M  V30 29 1 11 6
M  V30 30 1 29 14
M  V30 31 1 24 18
M  V30 32 1 1 30
M  V30 33 1 1 31
M  V30 34 1 1 32
M  V30 35 1 3 33
M  V30 36 1 3 34
M  V30 37 1 3 35
M  V30 38 1 4 36
M  V30 39 1 4 37
M  V30 40 1 4 38
M  V30 41 1 8 39
M  V30 42 1 10 40
M  V30 43 1 12 41
M  V30 44 1 12 42
M  V30 45 1 13 43
M  V30 46 1 15 44
M  V30 47 1 17 45
M  V30 48 1 18 46 CFG=1
M  V30 49 1 19 47
M  V30 50 1 19 48
M  V30 51 1 20 49
M  V30 52 1 20 50
M  V30 53 1 21 51 CFG=3
M  V30 54 1 22 52
M  V30 55 1 23 53
M  V30 56 1 23 54
M  V30 57 1 24 55
M  V30 58 1 24 56
M  V30 59 1 28 57
M  V30 END BOND
M  V30 END CTAB
M  END
>  <Dataset>  (200) 
ChEMBL_Kinases

>  <Ligand_Instance>  (200) 
nan

>  <PDB_ID>  (200) 
nan

>  <Standardized_SMILES>  (200) 
CC(C)(C)Oc1ncncc1CNc1cc(N[C@H]2CC[C@@H](O)CC2)c(C#N)cn1

>  <Name>  (200) 
nan

>  <Pocket>  (200) 
nan

>  <ATP_Site>  (200) 
nan

>  <Peripheral>  (200) 
nan

>  <Num_H_Atoms_ProtBoundConf>  (200) 
nan

>  <Num_Resolved_Atoms>  (200) 
nan

>  <Num_Not_Resolved_Atoms>  (200) 
nan

$$$$
CHEMBL4878853
     RDKit          3D

  0  0  0  0  0  0  0  0  0  0999 V3000
M  V30 BEGIN CTAB
M  V30 COUNTS 63 68 0 0 0
M  V30 BEGIN ATOM
M  V30 1 C 5.557838 -0.012653 1.084915 0
M  V30 2 C 4.106056 -0.400060 0.946653 0
M  V30 3 C 3.840168 -1.782345 1.496147 0
M  V30 4 O 3.790822 -0.419177 -0.405572 0
M  V30 5 C 3.200804 0.545257 1.622248 0
M  V30 6 C 2.889882 0.284159 2.940714 0
M  V30 7 C 2.038875 1.163415 3.594639 0
M  V30 8 C 1.524770 2.260643 2.940160 0
M  V30 9 C 1.861188 2.486007 1.619504 0
M  V30 10 N 1.288641 3.640903 1.017303 0
M  V30 11 C 1.847182 4.873604 1.158000 0
M  V30 12 C 1.088354 5.800984 0.474067 0
M  V30 13 F 1.232464 7.141246 0.316303 0
M  V30 14 C 0.048174 5.102016 -0.090264 0
M  V30 15 C -1.039176 5.408971 -0.876655 0
M  V30 16 N -1.885646 4.451639 -1.262176 0
M  V30 17 C -1.763223 3.155564 -0.934837 0
M  V30 18 N -2.712229 2.203392 -1.389529 0
M  V30 19 C -2.744049 0.825333 -1.152204 0
M  V30 20 C -1.829393 0.123802 -0.415912 0
M  V30 21 C -1.854017 -1.231504 -0.177626 0
M  V30 22 C -2.886898 -1.980367 -0.719649 0
M  V30 23 N -2.989666 -3.386596 -0.523849 0
M  V30 24 C -4.110793 -4.085787 -1.124228 0
M  V30 25 C -4.145859 -5.539693 -0.803249 0
M  V30 26 N -2.851999 -6.133928 -0.628612 0
M  V30 27 C -2.048535 -5.495840 0.366911 0
M  V30 28 C -0.702251 -6.195272 0.575334 0
M  V30 29 C -1.754941 -6.203691 1.639494 0
M  V30 30 C -1.950724 -4.013774 0.271036 0
M  V30 31 C -3.830259 -1.307828 -1.469467 0
M  V30 32 C -3.740770 0.046080 -1.664633 0
M  V30 33 N -0.691862 2.908487 -0.170594 0
M  V30 34 C 0.198581 3.780209 0.260757 0
M  V30 35 N 2.693946 1.626493 0.978004 0
M  V30 36 H 6.132655 -0.968903 0.991281 0
M  V30 37 H 5.862964 0.612009 0.229958 0
M  V30 38 H 5.816161 0.398062 2.064023 0
M  V30 39 H 4.427831 -1.880207 2.444689 0
M  V30 40 H 2.777224 -1.814897 1.808088 0
M  V30 41 H 4.111391 -2.561362 0.762801 0
M  V30 42 H 2.846389 -0.704337 -0.524653 0
M  V30 43 H 3.267527 -0.562447 3.497047 0
M  V30 44 H 1.779445 0.985656 4.620486 0
M  V30 45 H 0.872144 2.907698 3.491609 0
M  V30 46 H 2.737512 5.192651 1.693993 0
M  V30 47 H -1.208547 6.434376 -1.184378 0
M  V30 48 H -3.486438 2.591697 -1.979410 0
M  V30 49 H -0.989460 0.613099 0.047212 0
M  V30 50 H -1.112935 -1.755903 0.410897 0
M  V30 51 H -4.067741 -4.022821 -2.248463 0
M  V30 52 H -5.031278 -3.565724 -0.788192 0
M  V30 53 H -4.779316 -5.704934 0.092535 0
M  V30 54 H -4.650368 -6.131075 -1.615234 0
M  V30 55 H -2.374383 -6.445276 -1.479823 0
M  V30 56 H 0.202329 -5.553285 0.743441 0
M  V30 57 H -0.465296 -7.103169 0.004030 0
M  V30 58 H -1.583152 -5.612461 2.559083 0
M  V30 59 H -2.216693 -7.190319 1.825271 0
M  V30 60 H -2.084124 -3.598327 1.312697 0
M  V30 61 H -0.934420 -3.725880 -0.081172 0
M  V30 62 H -4.640300 -1.888720 -1.895868 0
M  V30 63 H -4.540040 0.482542 -2.274792 0
M  V30 END ATOM
M  V30 BEGIN BOND
M  V30 1 1 1 2
M  V30 2 1 2 3
M  V30 3 1 2 4
M  V30 4 1 2 5
M  V30 5 2 5 6
M  V30 6 1 6 7
M  V30 7 2 7 8
M  V30 8 1 8 9
M  V30 9 1 9 10
M  V30 10 1 10 11
M  V30 11 2 11 12
M  V30 12 1 12 13
M  V30 13 1 12 14
M  V30 14 2 14 15
M  V30 15 1 15 16
M  V30 16 2 16 17
M  V30 17 1 17 18
M  V30 18 1 18 19
M  V30 19 2 19 20
M  V30 20 1 20 21
M  V30 21 2 21 22
M  V30 22 1 22 23
M  V30 23 1 23 24
M  V30 24 1 24 25
M  V30 25 1 25 26
M  V30 26 1 26 27
M  V30 27 1 27 28
M  V30 28 1 28 29
M  V30 29 1 27 30
M  V30 30 1 22 31
M  V30 31 2 31 32
M  V30 32 1 17 33
M  V30 33 2 33 34
M  V30 34 2 9 35
M  V30 35 1 35 5
M  V30 36 1 34 10
M  V30 37 1 34 14
M  V30 38 1 32 19
M  V30 39 1 30 23
M  V30 40 1 29 27
M  V30 41 1 1 36
M  V30 42 1 1 37
M  V30 43 1 1 38
M  V30 44 1 3 39
M  V30 45 1 3 40
M  V30 46 1 3 41
M  V30 47 1 4 42
M  V30 48 1 6 43
M  V30 49 1 7 44
M  V30 50 1 8 45
M  V30 51 1 11 46
M  V30 52 1 15 47
M  V30 53 1 18 48
M  V30 54 1 20 49
M  V30 55 1 21 50
M  V30 56 1 24 51
M  V30 57 1 24 52
M  V30 58 1 25 53
M  V30 59 1 25 54
M  V30 60 1 26 55
M  V30 61 1 28 56
M  V30 62 1 28 57
M  V30 63 1 29 58
M  V30 64 1 29 59
M  V30 65 1 30 60
M  V30 66 1 30 61
M  V30 67 1 31 62
M  V30 68 1 32 63
M  V30 END BOND
M  V30 END CTAB
M  END
>  <Dataset>  (201) 
ChEMBL_Kinases

>  <Ligand_Instance>  (201) 
nan

>  <PDB_ID>  (201) 
nan

>  <Standardized_SMILES>  (201) 
CC(C)(O)c1cccc(-n2cc(F)c3cnc(Nc4ccc(N5CCNC6(CC6)C5)cc4)nc32)n1

>  <Name>  (201) 
nan

>  <Pocket>  (201) 
nan

>  <ATP_Site>  (201) 
nan

>  <Peripheral>  (201) 
nan

>  <Num_H_Atoms_ProtBoundConf>  (201) 
nan

>  <Num_Resolved_Atoms>  (201) 
nan

>  <Num_Not_Resolved_Atoms>  (201) 
nan

$$$$
CHEMBL4878827
     RDKit          3D

  0  0  0  0  0  0  0  0  0  0999 V3000
M  V30 BEGIN CTAB
M  V30 COUNTS 42 45 0 0 0
M  V30 BEGIN ATOM
M  V30 1 O -1.617458 -5.251713 0.861365 0
M  V30 2 C -0.979520 -4.293296 1.371102 0
M  V30 3 O -1.062625 -4.814056 2.646522 0
M  V30 4 C -0.417153 -3.121157 0.712717 0
M  V30 5 C -0.660591 -3.126628 -0.644907 0
M  V30 6 C -0.182899 -2.060404 -1.394289 0
M  V30 7 C 0.522837 -1.018996 -0.774614 0
M  V30 8 C 0.985985 0.022380 -1.681194 0
M  V30 9 N 1.666164 -0.471542 -2.758720 0
M  V30 10 C 2.174651 0.321823 -3.713300 0
M  V30 11 N 2.027545 1.672790 -3.640223 0
M  V30 12 C 1.366310 2.213272 -2.602362 0
M  V30 13 C 1.150796 3.568707 -2.436181 0
M  V30 14 C 0.441005 4.046693 -1.330279 0
M  V30 15 C -0.073114 3.178924 -0.359642 0
M  V30 16 C 0.147000 1.831611 -0.533871 0
M  V30 17 C 0.848951 1.389755 -1.629658 0
M  V30 18 C 0.723935 -1.090427 0.587225 0
M  V30 19 C 0.282138 -2.103782 1.369545 0
M  V30 20 C 0.480332 -2.206587 2.807830 0
M  V30 21 C -0.609737 -1.587498 3.633357 0
M  V30 22 C 0.174544 -0.980668 4.790631 0
M  V30 23 C 1.269426 -0.288052 3.964982 0
M  V30 24 C 1.767460 -1.514936 3.195463 0
M  V30 25 H -1.859259 -4.694101 3.253511 0
M  V30 26 H -1.192830 -3.890155 -1.182582 0
M  V30 27 H -0.363900 -2.045108 -2.466455 0
M  V30 28 H 2.708922 -0.087137 -4.556623 0
M  V30 29 H 1.549974 4.231638 -3.188701 0
M  V30 30 H 0.296666 5.121311 -1.241943 0
M  V30 31 H -0.611328 3.609153 0.468529 0
M  V30 32 H -0.275238 1.193916 0.226335 0
M  V30 33 H 1.270792 -0.306587 1.039843 0
M  V30 34 H 0.596961 -3.272465 3.089550 0
M  V30 35 H -1.315631 -2.359431 4.009943 0
M  V30 36 H -1.117553 -0.727252 3.159118 0
M  V30 37 H 0.630406 -1.759344 5.406847 0
M  V30 38 H -0.436542 -0.252601 5.361807 0
M  V30 39 H 0.758011 0.376767 3.272069 0
M  V30 40 H 2.051165 0.158141 4.593668 0
M  V30 41 H 2.435484 -1.275434 2.371913 0
M  V30 42 H 2.312810 -2.130070 3.973389 0
M  V30 END ATOM
M  V30 BEGIN BOND
M  V30 1 2 1 2
M  V30 2 1 2 3
M  V30 3 1 2 4
M  V30 4 2 4 5
M  V30 5 1 5 6
M  V30 6 2 6 7
M  V30 7 1 7 8
M  V30 8 2 8 9
M  V30 9 1 9 10
M  V30 10 2 10 11
M  V30 11 1 11 12
M  V30 12 2 12 13
M  V30 13 1 13 14
M  V30 14 2 14 15
M  V30 15 1 15 16
M  V30 16 2 16 17
M  V30 17 1 7 18
M  V30 18 2 18 19
M  V30 19 1 19 20
M  V30 20 1 20 21
M  V30 21 1 21 22
M  V30 22 1 22 23
M  V30 23 1 23 24
M  V30 24 1 19 4
M  V30 25 1 24 20
M  V30 26 1 17 8
M  V30 27 1 17 12
M  V30 28 1 3 25
M  V30 29 1 5 26
M  V30 30 1 6 27
M  V30 31 1 10 28
M  V30 32 1 13 29
M  V30 33 1 14 30
M  V30 34 1 15 31
M  V30 35 1 16 32
M  V30 36 1 18 33
M  V30 37 1 20 34
M  V30 38 1 21 35
M  V30 39 1 21 36
M  V30 40 1 22 37
M  V30 41 1 22 38
M  V30 42 1 23 39
M  V30 43 1 23 40
M  V30 44 1 24 41
M  V30 45 1 24 42
M  V30 END BOND
M  V30 END CTAB
M  END
>  <Dataset>  (202) 
ChEMBL_Kinases

>  <Ligand_Instance>  (202) 
nan

>  <PDB_ID>  (202) 
nan

>  <Standardized_SMILES>  (202) 
O=C(O)c1ccc(-c2ncnc3ccccc23)cc1C1CCCC1

>  <Name>  (202) 
nan

>  <Pocket>  (202) 
nan

>  <ATP_Site>  (202) 
nan

>  <Peripheral>  (202) 
nan

>  <Num_H_Atoms_ProtBoundConf>  (202) 
nan

>  <Num_Resolved_Atoms>  (202) 
nan

>  <Num_Not_Resolved_Atoms>  (202) 
nan

$$$$
CHEMBL4878788
     RDKit          3D

  0  0  0  0  0  0  0  0  0  0999 V3000
M  V30 BEGIN CTAB
M  V30 COUNTS 36 39 0 0 0
M  V30 BEGIN ATOM
M  V30 1 O -0.483428 -6.014788 3.232307 0
M  V30 2 C -1.001731 -4.945268 2.817345 0
M  V30 3 O -2.364351 -4.736538 2.988910 0
M  V30 4 C -0.176800 -3.935287 2.162339 0
M  V30 5 C 1.174562 -4.165361 2.003368 0
M  V30 6 C 1.971367 -3.206098 1.378614 0
M  V30 7 C 1.373379 -2.051880 0.938558 0
M  V30 8 C 0.026313 -1.807184 1.089558 0
M  V30 9 C -0.760655 -2.767995 1.713105 0
M  V30 10 C -0.557351 -0.641372 0.640503 0
M  V30 11 C 0.192119 0.357592 0.005596 0
M  V30 12 C -0.554401 1.501534 -0.430518 0
M  V30 13 C -0.642268 2.127833 -1.656410 0
M  V30 14 C -1.426023 3.243006 -1.840465 0
M  V30 15 C -2.168754 3.803198 -0.822872 0
M  V30 16 Cl -3.109077 5.217504 -1.226862 0
M  V30 17 C -2.102827 3.202702 0.408748 0
M  V30 18 C -1.315822 2.084491 0.590749 0
M  V30 19 C 1.535251 0.080804 -0.127843 0
M  V30 20 C 2.273088 1.068667 -0.745172 0
M  V30 21 C 3.625020 0.837889 -0.895813 0
M  V30 22 N 4.206676 -0.299918 -0.461273 0
M  V30 23 C 3.477055 -1.267345 0.145483 0
M  V30 24 C 2.124678 -1.082067 0.318291 0
M  V30 25 H -2.869390 -5.163044 3.780575 0
M  V30 26 H 1.573220 -5.088458 2.371243 0
M  V30 27 H 2.979871 -3.461600 1.300563 0
M  V30 28 H -1.803949 -2.594877 1.838016 0
M  V30 29 H -1.621712 -0.534400 0.801631 0
M  V30 30 H -0.054396 1.652300 -2.427364 0
M  V30 31 H -1.383735 3.615886 -2.869985 0
M  V30 32 H -2.685093 3.647537 1.192024 0
M  V30 33 H -1.350702 1.700667 1.622776 0
M  V30 34 H 1.840473 1.993222 -1.097039 0
M  V30 35 H 4.226346 1.599168 -1.378220 0
M  V30 36 H 4.046711 -2.097390 0.434516 0
M  V30 END ATOM
M  V30 BEGIN BOND
M  V30 1 2 1 2
M  V30 2 1 2 3
M  V30 3 1 2 4
M  V30 4 2 4 5
M  V30 5 1 5 6
M  V30 6 2 6 7
M  V30 7 1 7 8
M  V30 8 2 8 9
M  V30 9 1 8 10
M  V30 10 2 10 11
M  V30 11 1 11 12
M  V30 12 2 12 13
M  V30 13 1 13 14
M  V30 14 2 14 15
M  V30 15 1 15 16
M  V30 16 1 15 17
M  V30 17 2 17 18
M  V30 18 1 11 19
M  V30 19 2 19 20
M  V30 20 1 20 21
M  V30 21 2 21 22
M  V30 22 1 22 23
M  V30 23 2 23 24
M  V30 24 1 9 4
M  V30 25 1 18 12
M  V30 26 1 24 19
M  V30 27 1 24 7
M  V30 28 1 3 25
M  V30 29 1 5 26
M  V30 30 1 6 27
M  V30 31 1 9 28
M  V30 32 1 10 29
M  V30 33 1 13 30
M  V30 34 1 14 31
M  V30 35 1 17 32
M  V30 36 1 18 33
M  V30 37 1 20 34
M  V30 38 1 21 35
M  V30 39 1 23 36
M  V30 END BOND
M  V30 END CTAB
M  END
>  <Dataset>  (203) 
ChEMBL_Kinases

>  <Ligand_Instance>  (203) 
nan

>  <PDB_ID>  (203) 
nan

>  <Standardized_SMILES>  (203) 
O=C(O)c1ccc2c(c1)cc(-c1ccc(Cl)cc1)c1ccncc12

>  <Name>  (203) 
nan

>  <Pocket>  (203) 
nan

>  <ATP_Site>  (203) 
nan

>  <Peripheral>  (203) 
nan

>  <Num_H_Atoms_ProtBoundConf>  (203) 
nan

>  <Num_Resolved_Atoms>  (203) 
nan

>  <Num_Not_Resolved_Atoms>  (203) 
nan

$$$$
CHEMBL4791815
     RDKit          3D

  0  0  0  0  0  0  0  0  0  0999 V3000
M  V30 BEGIN CTAB
M  V30 COUNTS 57 61 0 0 0
M  V30 BEGIN ATOM
M  V30 1 C 1.408590 -1.130923 3.671173 0
M  V30 2 C 2.553220 -2.118002 3.476749 0
M  V30 3 C 2.440188 -3.218754 4.480526 0
M  V30 4 O 3.733428 -1.399971 3.635064 0
M  V30 5 C 2.524782 -2.648038 2.079785 0
M  V30 6 C 3.231315 -1.873815 1.143470 0
M  V30 7 C 3.347297 -2.135089 -0.208753 0
M  V30 8 N 4.097943 -1.281764 -1.055947 0
M  V30 9 C 3.148402 -0.552702 -1.815766 0
M  V30 10 C 2.065885 0.079462 -1.213530 0
M  V30 11 C 1.037907 0.847398 -1.784435 0
M  V30 12 O 0.114564 1.326077 -0.915698 0
M  V30 13 C -1.211484 1.084511 -0.804783 0
M  V30 14 C -2.044151 2.207928 -0.875245 0
M  V30 15 N -3.335259 1.865236 -0.756089 0
M  V30 16 C -4.535104 2.702559 -0.744516 0
M  V30 17 C -5.244323 2.813550 0.587034 0
M  V30 18 C -5.846743 2.008606 -0.503348 0
M  V30 19 N -3.335341 0.540463 -0.612515 0
M  V30 20 C -2.074767 0.059599 -0.638926 0
M  V30 21 C -1.621365 -1.327301 -0.520342 0
M  V30 22 C -1.598394 -1.778191 0.940250 0
M  V30 23 C -2.602010 -2.873043 0.635170 0
M  V30 24 F -1.992689 -4.099763 0.664593 0
M  V30 25 F -3.716440 -2.814120 1.430978 0
M  V30 26 C -2.786371 -2.267855 -0.743608 0
M  V30 27 C 1.180201 0.956910 -3.163916 0
M  V30 28 C 2.250279 0.340471 -3.808357 0
M  V30 29 N 3.201193 -0.386320 -3.175000 0
M  V30 30 C 2.703054 -3.260227 -0.638708 0
M  V30 31 C 2.006613 -4.019194 0.292219 0
M  V30 32 N 1.909184 -3.742833 1.600910 0
M  V30 33 H 1.728291 -0.196721 4.164994 0
M  V30 34 H 0.989129 -0.808102 2.681924 0
M  V30 35 H 0.568909 -1.580732 4.229543 0
M  V30 36 H 1.872383 -4.099981 4.150238 0
M  V30 37 H 3.456398 -3.531535 4.823538 0
M  V30 38 H 1.934242 -2.806887 5.389422 0
M  V30 39 H 3.937376 -1.376416 4.612290 0
M  V30 40 H 3.757214 -0.963224 1.465434 0
M  V30 41 H 5.138318 -1.152109 -1.158106 0
M  V30 42 H 2.066764 -0.083369 -0.120701 0
M  V30 43 H -1.834305 3.269391 -1.003094 0
M  V30 44 H -4.543716 3.576870 -1.431300 0
M  V30 45 H -5.748980 3.747005 0.876895 0
M  V30 46 H -4.781862 2.277629 1.428554 0
M  V30 47 H -5.863280 0.907360 -0.336230 0
M  V30 48 H -6.782630 2.362039 -1.007606 0
M  V30 49 H -0.690901 -1.602158 -1.032419 0
M  V30 50 H -2.046395 -1.024820 1.643176 0
M  V30 51 H -0.630007 -2.103698 1.326404 0
M  V30 52 H -2.621552 -3.006343 -1.560699 0
M  V30 53 H -3.780020 -1.805039 -0.818682 0
M  V30 54 H 0.391613 1.540941 -3.602323 0
M  V30 55 H 2.279867 0.477758 -4.893783 0
M  V30 56 H 2.754943 -3.530163 -1.693253 0
M  V30 57 H 1.500608 -4.906313 -0.101565 0
M  V30 END ATOM
M  V30 BEGIN BOND
M  V30 1 1 1 2
M  V30 2 1 2 3
M  V30 3 1 2 4
M  V30 4 1 2 5
M  V30 5 2 5 6
M  V30 6 1 6 7
M  V30 7 1 7 8
M  V30 8 1 8 9
M  V30 9 2 9 10
M  V30 10 1 10 11
M  V30 11 1 11 12
M  V30 12 1 12 13
M  V30 13 2 13 14
M  V30 14 1 14 15
M  V30 15 1 15 16
M  V30 16 1 16 17
M  V30 17 1 17 18
M  V30 18 1 15 19
M  V30 19 2 19 20
M  V30 20 1 20 21
M  V30 21 1 21 22
M  V30 22 1 22 23
M  V30 23 1 23 24
M  V30 24 1 23 25
M  V30 25 1 23 26
M  V30 26 2 11 27
M  V30 27 1 27 28
M  V30 28 2 28 29
M  V30 29 2 7 30
M  V30 30 1 30 31
M  V30 31 2 31 32
M  V30 32 1 32 5
M  V30 33 1 29 9
M  V30 34 1 20 13
M  V30 35 1 26 21
M  V30 36 1 18 16
M  V30 37 1 1 33
M  V30 38 1 1 34
M  V30 39 1 1 35
M  V30 40 1 3 36
M  V30 41 1 3 37
M  V30 42 1 3 38
M  V30 43 1 4 39
M  V30 44 1 6 40
M  V30 45 1 8 41
M  V30 46 1 10 42
M  V30 47 1 14 43
M  V30 48 1 16 44
M  V30 49 1 17 45
M  V30 50 1 17 46
M  V30 51 1 18 47
M  V30 52 1 18 48
M  V30 53 1 21 49
M  V30 54 1 22 50
M  V30 55 1 22 51
M  V30 56 1 26 52
M  V30 57 1 26 53
M  V30 58 1 27 54
M  V30 59 1 28 55
M  V30 60 1 30 56
M  V30 61 1 31 57
M  V30 END BOND
M  V30 END CTAB
M  END
>  <Dataset>  (204) 
ChEMBL_Kinases

>  <Ligand_Instance>  (204) 
nan

>  <PDB_ID>  (204) 
nan

>  <Standardized_SMILES>  (204) 
CC(C)(O)c1cc(Nc2cc(Oc3cn(C4CC4)nc3C3CC(F)(F)C3)ccn2)ccn1

>  <Name>  (204) 
nan

>  <Pocket>  (204) 
nan

>  <ATP_Site>  (204) 
nan

>  <Peripheral>  (204) 
nan

>  <Num_H_Atoms_ProtBoundConf>  (204) 
nan

>  <Num_Resolved_Atoms>  (204) 
nan

>  <Num_Not_Resolved_Atoms>  (204) 
nan

$$$$
CHEMBL4878748
     RDKit          3D

  0  0  0  0  0  0  0  0  0  0999 V3000
M  V30 BEGIN CTAB
M  V30 COUNTS 32 34 0 0 0
M  V30 BEGIN ATOM
M  V30 1 O 0.916839 -0.663393 4.328841 0
M  V30 2 C 1.474435 -1.015507 3.260490 0
M  V30 3 N 2.611495 -1.883210 3.095668 0
M  V30 4 C 2.894359 -1.999120 1.712673 0
M  V30 5 O 3.844973 -2.704095 1.264604 0
M  V30 6 C 1.903819 -1.177287 0.987080 0
M  V30 7 C 1.824922 -1.026976 -0.460035 0
M  V30 8 C 0.583628 -1.081128 -1.060662 0
M  V30 9 C 0.401558 -0.942226 -2.433003 0
M  V30 10 C 1.494574 -0.742335 -3.237267 0
M  V30 11 C 2.734565 -0.686010 -2.657518 0
M  V30 12 C 2.902086 -0.824688 -1.295511 0
M  V30 13 Cl 4.509544 -0.729741 -0.624026 0
M  V30 14 C 1.085679 -0.611741 1.891155 0
M  V30 15 N -0.005770 0.260913 1.658060 0
M  V30 16 C -1.406352 0.121996 1.785657 0
M  V30 17 C -1.990853 -1.046592 2.211452 0
M  V30 18 C -3.385261 -1.100331 2.311218 0
M  V30 19 C -4.136386 0.020646 1.979271 0
M  V30 20 C -3.529775 1.183687 1.554075 0
M  V30 21 F -4.249226 2.300545 1.220295 0
M  V30 22 C -2.155782 1.231570 1.457849 0
M  V30 23 H 3.111424 -2.330385 3.900504 0
M  V30 24 H -0.354236 -1.236417 -0.542256 0
M  V30 25 H -0.561853 -0.982556 -2.920028 0
M  V30 26 H 1.384191 -0.629943 -4.306019 0
M  V30 27 H 3.611934 -0.530361 -3.261620 0
M  V30 28 H 0.446339 1.157043 1.327106 0
M  V30 29 H -1.414717 -1.911590 2.469795 0
M  V30 30 H -3.934309 -1.993027 2.643658 0
M  V30 31 H -5.236401 0.076132 2.023537 0
M  V30 32 H -1.677557 2.151829 1.122331 0
M  V30 END ATOM
M  V30 BEGIN BOND
M  V30 1 2 1 2
M  V30 2 1 2 3
M  V30 3 1 3 4
M  V30 4 2 4 5
M  V30 5 1 4 6
M  V30 6 1 6 7
M  V30 7 2 7 8
M  V30 8 1 8 9
M  V30 9 2 9 10
M  V30 10 1 10 11
M  V30 11 2 11 12
M  V30 12 1 12 13
M  V30 13 2 6 14
M  V30 14 1 14 15
M  V30 15 1 15 16
M  V30 16 2 16 17
M  V30 17 1 17 18
M  V30 18 2 18 19
M  V30 19 1 19 20
M  V30 20 1 20 21
M  V30 21 2 20 22
M  V30 22 1 14 2
M  V30 23 1 22 16
M  V30 24 1 12 7
M  V30 25 1 3 23
M  V30 26 1 8 24
M  V30 27 1 9 25
M  V30 28 1 10 26
M  V30 29 1 11 27
M  V30 30 1 15 28
M  V30 31 1 17 29
M  V30 32 1 18 30
M  V30 33 1 19 31
M  V30 34 1 22 32
M  V30 END BOND
M  V30 END CTAB
M  END
>  <Dataset>  (205) 
ChEMBL_Kinases

>  <Ligand_Instance>  (205) 
nan

>  <PDB_ID>  (205) 
nan

>  <Standardized_SMILES>  (205) 
O=C1NC(=O)C(c2ccccc2Cl)=C1Nc1cccc(F)c1

>  <Name>  (205) 
nan

>  <Pocket>  (205) 
nan

>  <ATP_Site>  (205) 
nan

>  <Peripheral>  (205) 
nan

>  <Num_H_Atoms_ProtBoundConf>  (205) 
nan

>  <Num_Resolved_Atoms>  (205) 
nan

>  <Num_Not_Resolved_Atoms>  (205) 
nan

$$$$
CHEMBL1738828
     RDKit          3D

  0  0  0  0  0  0  0  0  0  0999 V3000
M  V30 BEGIN CTAB
M  V30 COUNTS 35 37 0 0 0
M  V30 BEGIN ATOM
M  V30 1 O -0.489373 1.161168 1.300071 0
M  V30 2 C -1.162137 0.276498 1.918782 0
M  V30 3 N -0.355390 -0.867108 2.212084 0
M  V30 4 C 0.959875 -0.625826 1.701410 0
M  V30 5 C 1.142624 -1.044107 0.398284 0
M  V30 6 C 2.365428 -0.872704 -0.218462 0
M  V30 7 C 2.612708 -1.302308 -1.611661 0
M  V30 8 C 1.568493 -1.260301 -2.518903 0
M  V30 9 C 1.808758 -1.665891 -3.826177 0
M  V30 10 N 3.031832 -2.099378 -4.235181 0
M  V30 11 C 4.031203 -2.127480 -3.320730 0
M  V30 12 C 3.880036 -1.743208 -2.003701 0
M  V30 13 C 3.424214 -0.274530 0.474880 0
M  V30 14 N 3.199612 0.117151 1.742708 0
M  V30 15 C 2.020565 -0.036346 2.369306 0
M  V30 16 O 1.758071 0.307990 3.541798 0
M  V30 17 C -2.586130 0.391107 2.295102 0
M  V30 18 C -3.263638 -0.598072 2.974298 0
M  V30 19 C -4.603399 -0.400854 3.283747 0
M  V30 20 C -5.240012 0.773512 2.912139 0
M  V30 21 C -4.508956 1.739385 2.227993 0
M  V30 22 C -3.161820 1.593142 1.891681 0
M  V30 23 H -0.794839 -1.673055 2.723267 0
M  V30 24 H 0.403197 -1.513364 -0.226366 0
M  V30 25 H 0.570080 -0.928028 -2.267364 0
M  V30 26 H 1.004771 -1.642696 -4.559676 0
M  V30 27 H 4.994040 -2.474800 -3.667283 0
M  V30 28 H 4.697278 -1.777167 -1.298847 0
M  V30 29 H 4.392600 -0.134187 -0.000877 0
M  V30 30 H 3.978247 0.572309 2.295209 0
M  V30 31 H -2.749633 -1.501089 3.253273 0
M  V30 32 H -5.116045 -1.194776 3.819156 0
M  V30 33 H -6.283759 0.934128 3.150215 0
M  V30 34 H -5.009041 2.655760 1.939505 0
M  V30 35 H -2.625300 2.363670 1.359612 0
M  V30 END ATOM
M  V30 BEGIN BOND
M  V30 1 2 1 2
M  V30 2 1 2 3
M  V30 3 1 3 4
M  V30 4 2 4 5
M  V30 5 1 5 6
M  V30 6 1 6 7
M  V30 7 2 7 8
M  V30 8 1 8 9
M  V30 9 2 9 10
M  V30 10 1 10 11
M  V30 11 2 11 12
M  V30 12 2 6 13
M  V30 13 1 13 14
M  V30 14 1 14 15
M  V30 15 2 15 16
M  V30 16 1 2 17
M  V30 17 2 17 18
M  V30 18 1 18 19
M  V30 19 2 19 20
M  V30 20 1 20 21
M  V30 21 2 21 22
M  V30 22 1 15 4
M  V30 23 1 22 17
M  V30 24 1 12 7
M  V30 25 1 3 23
M  V30 26 1 5 24
M  V30 27 1 8 25
M  V30 28 1 9 26
M  V30 29 1 11 27
M  V30 30 1 12 28
M  V30 31 1 13 29
M  V30 32 1 14 30
M  V30 33 1 18 31
M  V30 34 1 19 32
M  V30 35 1 20 33
M  V30 36 1 21 34
M  V30 37 1 22 35
M  V30 END BOND
M  V30 END CTAB
M  END
>  <Dataset>  (206) 
ChEMBL_Kinases

>  <Ligand_Instance>  (206) 
nan

>  <PDB_ID>  (206) 
nan

>  <Standardized_SMILES>  (206) 
O=C(Nc1cc(-c2ccncc2)c[nH]c1=O)c1ccccc1

>  <Name>  (206) 
nan

>  <Pocket>  (206) 
nan

>  <ATP_Site>  (206) 
nan

>  <Peripheral>  (206) 
nan

>  <Num_H_Atoms_ProtBoundConf>  (206) 
nan

>  <Num_Resolved_Atoms>  (206) 
nan

>  <Num_Not_Resolved_Atoms>  (206) 
nan

$$$$
CHEMBL4792246
     RDKit          3D

  0  0  0  0  0  0  0  0  0  0999 V3000
M  V30 BEGIN CTAB
M  V30 COUNTS 65 67 0 0 0
M  V30 BEGIN ATOM
M  V30 1 C 5.157621 -2.471752 2.567203 0
M  V30 2 C 5.837654 -2.049976 1.293676 0
M  V30 3 N 5.520246 -0.741104 0.927654 0
M  V30 4 C 6.082039 0.274206 1.741087 0
M  V30 5 C 5.564871 0.430705 3.121952 0
M  V30 6 C 5.614063 -0.365514 -0.439942 0
M  V30 7 C 4.611492 -1.001530 -1.351613 0
M  V30 8 N 3.242974 -0.748857 -1.044543 0
M  V30 9 C 2.605710 0.515903 -0.995307 0
M  V30 10 O 3.444844 1.427338 -1.271628 0
M  V30 11 C 1.225989 0.857862 -0.691420 0
M  V30 12 C 0.832765 2.186840 -0.684050 0
M  V30 13 C 1.647451 3.423784 -0.955159 0
M  V30 14 N -0.461435 2.202300 -0.380661 0
M  V30 15 C -0.995594 0.990707 -0.178603 0
M  V30 16 C -2.310754 0.457015 0.138271 0
M  V30 17 C -3.491885 0.707956 -0.377958 0
M  V30 18 C -3.704658 1.641602 -1.451449 0
M  V30 19 O -2.836947 2.312410 -2.038488 0
M  V30 20 N -5.089416 1.653179 -1.717731 0
M  V30 21 C -5.705527 0.738302 -0.818068 0
M  V30 22 C -7.028055 0.340662 -0.623459 0
M  V30 23 C -7.401072 -0.597463 0.342873 0
M  V30 24 C -6.418021 -1.168628 1.154794 0
M  V30 25 C -6.921210 -2.151453 2.141027 0
M  V30 26 N -6.947742 -3.501090 1.575128 0
M  V30 27 C -5.820866 -4.332609 1.381611 0
M  V30 28 N -6.047639 -5.614542 0.815670 0
M  V30 29 O -4.656784 -3.978047 1.687932 0
M  V30 30 C -5.104892 -0.787016 0.976779 0
M  V30 31 C -4.777497 0.142551 0.011353 0
M  V30 32 C 0.099027 0.130238 -0.380150 0
M  V30 33 C 0.109065 -1.350233 -0.286543 0
M  V30 34 H 4.083036 -2.162048 2.618099 0
M  V30 35 H 5.661832 -2.121739 3.484046 0
M  V30 36 H 5.086264 -3.606057 2.622701 0
M  V30 37 H 5.689196 -2.809338 0.479629 0
M  V30 38 H 6.957527 -2.155863 1.497593 0
M  V30 39 H 7.215528 0.118584 1.811709 0
M  V30 40 H 6.057370 1.289750 1.207708 0
M  V30 41 H 6.308858 0.069344 3.889693 0
M  V30 42 H 5.513392 1.548433 3.375536 0
M  V30 43 H 4.586682 -0.007659 3.336023 0
M  V30 44 H 5.506025 0.726870 -0.501473 0
M  V30 45 H 6.622397 -0.622829 -0.837547 0
M  V30 46 H 4.810411 -0.658791 -2.407740 0
M  V30 47 H 4.806734 -2.077913 -1.367757 0
M  V30 48 H 2.624311 -1.561145 -0.829447 0
M  V30 49 H 2.534350 3.414870 -0.271830 0
M  V30 50 H 1.048863 4.305904 -0.752431 0
M  V30 51 H 2.075538 3.394315 -1.986277 0
M  V30 52 H -1.026529 3.071980 -0.286521 0
M  V30 53 H -2.320175 -0.286827 0.955304 0
M  V30 54 H -5.532068 2.234463 -2.441924 0
M  V30 55 H -7.806100 0.760077 -1.229416 0
M  V30 56 H -8.448293 -0.861019 0.440109 0
M  V30 57 H -7.885250 -1.866185 2.564031 0
M  V30 58 H -6.159516 -2.200439 2.948509 0
M  V30 59 H -7.913606 -3.841290 1.301955 0
M  V30 60 H -6.173221 -6.656249 0.981769 0
M  V30 61 H -6.205920 -6.161428 -0.078394 0
M  V30 62 H -4.377168 -1.248722 1.622169 0
M  V30 63 H 0.320655 -1.829467 -1.246811 0
M  V30 64 H 0.735839 -1.714412 0.567876 0
M  V30 65 H -0.953842 -1.666719 -0.052335 0
M  V30 END ATOM
M  V30 BEGIN BOND
M  V30 1 1 1 2
M  V30 2 1 2 3
M  V30 3 1 3 4
M  V30 4 1 4 5
M  V30 5 1 3 6
M  V30 6 1 6 7
M  V30 7 1 7 8
M  V30 8 1 8 9
M  V30 9 2 9 10
M  V30 10 1 9 11
M  V30 11 2 11 12
M  V30 12 1 12 13
M  V30 13 1 12 14
M  V30 14 1 14 15
M  V30 15 1 15 16
M  V30 16 2 16 17
M  V30 17 1 17 18
M  V30 18 2 18 19
M  V30 19 1 18 20
M  V30 20 1 20 21
M  V30 21 2 21 22
M  V30 22 1 22 23
M  V30 23 2 23 24
M  V30 24 1 24 25
M  V30 25 1 25 26
M  V30 26 1 26 27
M  V30 27 1 27 28
M  V30 28 2 27 29
M  V30 29 1 24 30
M  V30 30 2 30 31
M  V30 31 2 15 32
M  V30 32 1 32 33
M  V30 33 1 32 11
M  V30 34 1 31 17
M  V30 35 1 31 21
M  V30 36 1 1 34
M  V30 37 1 1 35
M  V30 38 1 1 36
M  V30 39 1 2 37
M  V30 40 1 2 38
M  V30 41 1 4 39
M  V30 42 1 4 40
M  V30 43 1 5 41
M  V30 44 1 5 42
M  V30 45 1 5 43
M  V30 46 1 6 44
M  V30 47 1 6 45
M  V30 48 1 7 46
M  V30 49 1 7 47
M  V30 50 1 8 48
M  V30 51 1 13 49
M  V30 52 1 13 50
M  V30 53 1 13 51
M  V30 54 1 14 52
M  V30 55 1 16 53
M  V30 56 1 20 54
M  V30 57 1 22 55
M  V30 58 1 23 56
M  V30 59 1 25 57
M  V30 60 1 25 58
M  V30 61 1 26 59
M  V30 62 1 28 60
M  V30 63 1 28 61
M  V30 64 1 30 62
M  V30 65 1 33 63
M  V30 66 1 33 64
M  V30 67 1 33 65
M  V30 END BOND
M  V30 END CTAB
M  END
>  <Dataset>  (207) 
ChEMBL_Kinases

>  <Ligand_Instance>  (207) 
nan

>  <PDB_ID>  (207) 
nan

>  <Standardized_SMILES>  (207) 
CCN(CC)CCNC(=O)c1c(C)[nH]c(/C=C2\C(=O)Nc3ccc(CNC(N)=O)cc32)c1C

>  <Name>  (207) 
nan

>  <Pocket>  (207) 
nan

>  <ATP_Site>  (207) 
nan

>  <Peripheral>  (207) 
nan

>  <Num_H_Atoms_ProtBoundConf>  (207) 
nan

>  <Num_Resolved_Atoms>  (207) 
nan

>  <Num_Not_Resolved_Atoms>  (207) 
nan

$$$$
CHEMBL4792293
     RDKit          3D

  0  0  0  0  0  0  0  0  0  0999 V3000
M  V30 BEGIN CTAB
M  V30 COUNTS 55 58 0 0 0
M  V30 BEGIN ATOM
M  V30 1 C 1.152335 -7.621728 -0.536315 0
M  V30 2 C 1.849772 -6.522961 -0.798647 0
M  V30 3 C 2.434384 -6.173892 0.476076 0
M  V30 4 O 2.142280 -6.950034 1.412078 0
M  V30 5 N 3.259457 -5.024890 0.559081 0
M  V30 6 C 3.949113 -4.478022 1.709281 0
M  V30 7 C 3.408165 -3.111815 1.892311 0
M  V30 8 C 3.017566 -2.288951 0.956171 0
M  V30 9 C 2.482232 -0.945631 1.089793 0
M  V30 10 C 2.119149 -0.192041 -0.006462 0
M  V30 11 C 1.606703 1.080042 0.052086 0
M  V30 12 C 1.422627 1.692593 1.271000 0
M  V30 13 C 0.867597 3.062657 1.268612 0
M  V30 14 C 1.778805 3.930410 0.431328 0
M  V30 15 C -0.457695 3.008060 0.563690 0
M  V30 16 O -0.872571 3.599773 -0.481927 0
M  V30 17 N -1.401293 2.147291 1.175538 0
M  V30 18 C -2.733183 1.901266 0.726088 0
M  V30 19 C -3.936855 2.535716 1.022257 0
M  V30 20 C -4.964330 1.927264 0.332189 0
M  V30 21 C -6.403015 2.280144 0.353733 0
M  V30 22 C -7.372465 1.100495 0.305620 0
M  V30 23 C -7.242215 2.034897 -0.846249 0
M  V30 24 N -4.358783 0.940866 -0.363840 0
M  V30 25 N -3.049348 0.920070 -0.137191 0
M  V30 26 C 1.764505 0.995945 2.402840 0
M  V30 27 C 2.273035 -0.276139 2.270951 0
M  V30 28 F 2.566495 -0.850851 3.452837 0
M  V30 29 C 3.133345 -2.783587 -0.433298 0
M  V30 30 C 3.527657 -4.202522 -0.587429 0
M  V30 31 H 0.511082 -8.450492 -0.769369 0
M  V30 32 H 0.607901 -8.518293 -0.230118 0
M  V30 33 H 1.791675 -6.214480 -1.822367 0
M  V30 34 H 3.804882 -5.109700 2.610230 0
M  V30 35 H 5.021384 -4.422038 1.462728 0
M  V30 36 H 3.342548 -2.791130 2.908917 0
M  V30 37 H 2.239064 -0.618478 -1.012580 0
M  V30 38 H 1.348610 1.598628 -0.860131 0
M  V30 39 H 0.783818 3.409127 2.301090 0
M  V30 40 H 1.294303 4.299571 -0.480491 0
M  V30 41 H 2.062798 4.813130 1.048803 0
M  V30 42 H 2.710316 3.385200 0.126227 0
M  V30 43 H -1.218159 1.586308 2.043331 0
M  V30 44 H -4.000610 3.379361 1.702095 0
M  V30 45 H -6.646656 3.139508 1.013132 0
M  V30 46 H -6.919718 0.094992 0.161235 0
M  V30 47 H -8.255778 1.151462 0.968725 0
M  V30 48 H -8.104162 2.733106 -0.972023 0
M  V30 49 H -6.732010 1.705879 -1.758387 0
M  V30 50 H -4.872522 0.284126 -0.997863 0
M  V30 51 H 1.611806 1.493152 3.332356 0
M  V30 52 H 3.763530 -2.072464 -1.011485 0
M  V30 53 H 2.113732 -2.674271 -0.908348 0
M  V30 54 H 4.633031 -4.218317 -0.756427 0
M  V30 55 H 3.090745 -4.659247 -1.524235 0
M  V30 END ATOM
M  V30 BEGIN BOND
M  V30 1 2 1 2
M  V30 2 1 2 3
M  V30 3 2 3 4
M  V30 4 1 3 5
M  V30 5 1 5 6
M  V30 6 1 6 7
M  V30 7 2 7 8
M  V30 8 1 8 9
M  V30 9 2 9 10
M  V30 10 1 10 11
M  V30 11 2 11 12
M  V30 12 1 12 13
M  V30 13 1 13 14
M  V30 14 1 13 15
M  V30 15 2 15 16
M  V30 16 1 15 17
M  V30 17 1 17 18
M  V30 18 1 18 19
M  V30 19 2 19 20
M  V30 20 1 20 21
M  V30 21 1 21 22
M  V30 22 1 22 23
M  V30 23 1 20 24
M  V30 24 1 24 25
M  V30 25 1 12 26
M  V30 26 2 26 27
M  V30 27 1 27 28
M  V30 28 1 8 29
M  V30 29 1 29 30
M  V30 30 1 30 5
M  V30 31 1 27 9
M  V30 32 2 25 18
M  V30 33 1 23 21
M  V30 34 1 1 31
M  V30 35 1 1 32
M  V30 36 1 2 33
M  V30 37 1 6 34
M  V30 38 1 6 35
M  V30 39 1 7 36
M  V30 40 1 10 37
M  V30 41 1 11 38
M  V30 42 1 13 39
M  V30 43 1 14 40
M  V30 44 1 14 41
M  V30 45 1 14 42
M  V30 46 1 17 43
M  V30 47 1 19 44
M  V30 48 1 21 45
M  V30 49 1 22 46
M  V30 50 1 22 47
M  V30 51 1 23 48
M  V30 52 1 23 49
M  V30 53 1 24 50
M  V30 54 1 26 51
M  V30 55 1 29 52
M  V30 56 1 29 53
M  V30 57 1 30 54
M  V30 58 1 30 55
M  V30 END BOND
M  V30 END CTAB
M  END
>  <Dataset>  (208) 
ChEMBL_Kinases

>  <Ligand_Instance>  (208) 
nan

>  <PDB_ID>  (208) 
nan

>  <Standardized_SMILES>  (208) 
C=CC(=O)N1CC=C(c2ccc(C(C)C(=O)Nc3cc(C4CC4)[nH]n3)cc2F)CC1

>  <Name>  (208) 
nan

>  <Pocket>  (208) 
nan

>  <ATP_Site>  (208) 
nan

>  <Peripheral>  (208) 
nan

>  <Num_H_Atoms_ProtBoundConf>  (208) 
nan

>  <Num_Resolved_Atoms>  (208) 
nan

>  <Num_Not_Resolved_Atoms>  (208) 
nan

$$$$
CHEMBL1605269
     RDKit          3D

  0  0  0  0  0  0  0  0  0  0999 V3000
M  V30 BEGIN CTAB
M  V30 COUNTS 24 25 0 0 0
M  V30 BEGIN ATOM
M  V30 1 N 1.964613 1.515980 3.770330 0
M  V30 2 C 2.055344 0.978564 2.452263 0
M  V30 3 C 0.953844 0.358259 1.907440 0
M  V30 4 C 0.970758 -0.181772 0.643162 0
M  V30 5 C -0.134893 -0.857396 -0.026459 0
M  V30 6 C -0.079072 -1.864139 -0.940895 0
M  V30 7 C -1.240901 -2.385716 -1.473028 0
M  V30 8 C -2.477652 -1.875194 -1.068515 0
M  V30 9 C -2.553555 -0.852617 -0.140639 0
M  V30 10 C -1.372449 -0.359936 0.366107 0
M  V30 11 C 2.180210 -0.056409 -0.045702 0
M  V30 12 N 3.260860 0.545548 0.473475 0
M  V30 13 C 3.219222 1.066512 1.713658 0
M  V30 14 O 4.335147 1.683421 2.238984 0
M  V30 15 H 1.332821 1.025710 4.460125 0
M  V30 16 H 2.491539 2.362926 4.072810 0
M  V30 17 H 0.000051 0.255455 2.440990 0
M  V30 18 H 0.914215 -2.186807 -1.186046 0
M  V30 19 H -1.140037 -3.179777 -2.191504 0
M  V30 20 H -3.378786 -2.280841 -1.482027 0
M  V30 21 H -3.523464 -0.495232 0.137256 0
M  V30 22 H -1.529105 0.449159 1.095492 0
M  V30 23 H 2.346661 -0.434841 -1.057049 0
M  V30 24 H 4.256769 2.360886 2.993784 0
M  V30 END ATOM
M  V30 BEGIN BOND
M  V30 1 1 1 2
M  V30 2 2 2 3
M  V30 3 1 3 4
M  V30 4 1 4 5
M  V30 5 2 5 6
M  V30 6 1 6 7
M  V30 7 2 7 8
M  V30 8 1 8 9
M  V30 9 2 9 10
M  V30 10 2 4 11
M  V30 11 1 11 12
M  V30 12 2 12 13
M  V30 13 1 13 14
M  V30 14 1 13 2
M  V30 15 1 10 5
M  V30 16 1 1 15
M  V30 17 1 1 16
M  V30 18 1 3 17
M  V30 19 1 6 18
M  V30 20 1 7 19
M  V30 21 1 8 20
M  V30 22 1 9 21
M  V30 23 1 10 22
M  V30 24 1 11 23
M  V30 25 1 14 24
M  V30 END BOND
M  V30 END CTAB
M  END
>  <Dataset>  (209) 
ChEMBL_Kinases

>  <Ligand_Instance>  (209) 
nan

>  <PDB_ID>  (209) 
nan

>  <Standardized_SMILES>  (209) 
Nc1cc(-c2ccccc2)cnc1O

>  <Name>  (209) 
nan

>  <Pocket>  (209) 
nan

>  <ATP_Site>  (209) 
nan

>  <Peripheral>  (209) 
nan

>  <Num_H_Atoms_ProtBoundConf>  (209) 
nan

>  <Num_Resolved_Atoms>  (209) 
nan

>  <Num_Not_Resolved_Atoms>  (209) 
nan

$$$$
CHEMBL4792452
     RDKit          3D

  0  0  0  0  0  0  0  0  0  0999 V3000
M  V30 BEGIN CTAB
M  V30 COUNTS 57 61 0 0 0
M  V30 BEGIN ATOM
M  V30 1 C 1.157921 -1.940198 3.121710 0
M  V30 2 C 2.211117 -3.032365 3.213478 0
M  V30 3 C 1.515556 -4.352986 3.137680 0
M  V30 4 O 2.908675 -2.912870 4.414393 0
M  V30 5 C 3.179153 -2.849621 2.107903 0
M  V30 6 C 3.136246 -1.849548 1.170912 0
M  V30 7 C 4.043274 -1.693766 0.144683 0
M  V30 8 N 3.980931 -0.677117 -0.835386 0
M  V30 9 C 2.905873 -0.009892 -1.467740 0
M  V30 10 C 1.581857 -0.284449 -1.352131 0
M  V30 11 C 0.581145 0.415509 -1.986088 0
M  V30 12 O -0.761314 0.087539 -1.828673 0
M  V30 13 C -1.559763 0.639667 -0.835256 0
M  V30 14 C -1.278493 1.553070 0.149151 0
M  V30 15 N -2.405630 1.749004 0.847905 0
M  V30 16 C -2.480308 2.663708 1.979315 0
M  V30 17 C -3.648532 2.483657 2.913829 0
M  V30 18 C -2.314990 1.969858 3.350078 0
M  V30 19 N -3.383003 0.989677 0.335067 0
M  V30 20 C -2.895631 0.291235 -0.706297 0
M  V30 21 C -3.754710 -0.633835 -1.468086 0
M  V30 22 C -4.609357 -1.515024 -0.837917 0
M  V30 23 C -5.377475 -2.348710 -1.642673 0
M  V30 24 C -5.291671 -2.300183 -3.021008 0
M  V30 25 F -6.081024 -3.153463 -3.705800 0
M  V30 26 C -4.423875 -1.404502 -3.626941 0
M  V30 27 C -3.643366 -0.558248 -2.839684 0
M  V30 28 C 0.924138 1.473658 -2.801183 0
M  V30 29 C 2.256369 1.735729 -2.906756 0
M  V30 30 N 3.194528 1.028359 -2.271549 0
M  V30 31 C 5.028563 -2.659422 0.141775 0
M  V30 32 C 5.113093 -3.680235 1.059754 0
M  V30 33 N 4.196867 -3.757111 2.016510 0
M  V30 34 H 0.651380 -1.977413 2.155126 0
M  V30 35 H 1.664521 -0.969003 3.227791 0
M  V30 36 H 0.376264 -2.091633 3.909224 0
M  V30 37 H 1.593632 -4.767302 2.112847 0
M  V30 38 H 1.933313 -5.127804 3.822667 0
M  V30 39 H 0.418298 -4.253929 3.326719 0
M  V30 40 H 3.275021 -2.001340 4.535223 0
M  V30 41 H 2.322433 -1.167625 1.310324 0
M  V30 42 H 4.955047 -0.400631 -1.107974 0
M  V30 43 H 1.258508 -1.092177 -0.748563 0
M  V30 44 H -0.293579 1.985827 0.266050 0
M  V30 45 H -2.015109 3.663395 1.896898 0
M  V30 46 H -4.050722 3.362340 3.478189 0
M  V30 47 H -4.431004 1.781212 2.566731 0
M  V30 48 H -2.207149 0.866861 3.354488 0
M  V30 49 H -1.754011 2.532405 4.119159 0
M  V30 50 H -4.621063 -1.494153 0.233923 0
M  V30 51 H -6.051599 -3.043974 -1.143970 0
M  V30 52 H -4.451842 -1.467706 -4.707253 0
M  V30 53 H -2.998282 0.105031 -3.397568 0
M  V30 54 H 0.180077 2.067098 -3.330565 0
M  V30 55 H 2.582185 2.554257 -3.532514 0
M  V30 56 H 5.795214 -2.633260 -0.621524 0
M  V30 57 H 5.924318 -4.411350 0.994687 0
M  V30 END ATOM
M  V30 BEGIN BOND
M  V30 1 1 1 2
M  V30 2 1 2 3
M  V30 3 1 2 4
M  V30 4 1 2 5
M  V30 5 2 5 6
M  V30 6 1 6 7
M  V30 7 1 7 8
M  V30 8 1 8 9
M  V30 9 2 9 10
M  V30 10 1 10 11
M  V30 11 1 11 12
M  V30 12 1 12 13
M  V30 13 2 13 14
M  V30 14 1 14 15
M  V30 15 1 15 16
M  V30 16 1 16 17
M  V30 17 1 17 18
M  V30 18 1 15 19
M  V30 19 2 19 20
M  V30 20 1 20 21
M  V30 21 2 21 22
M  V30 22 1 22 23
M  V30 23 2 23 24
M  V30 24 1 24 25
M  V30 25 1 24 26
M  V30 26 2 26 27
M  V30 27 2 11 28
M  V30 28 1 28 29
M  V30 29 2 29 30
M  V30 30 2 7 31
M  V30 31 1 31 32
M  V30 32 2 32 33
M  V30 33 1 33 5
M  V30 34 1 30 9
M  V30 35 1 20 13
M  V30 36 1 27 21
M  V30 37 1 18 16
M  V30 38 1 1 34
M  V30 39 1 1 35
M  V30 40 1 1 36
M  V30 41 1 3 37
M  V30 42 1 3 38
M  V30 43 1 3 39
M  V30 44 1 4 40
M  V30 45 1 6 41
M  V30 46 1 8 42
M  V30 47 1 10 43
M  V30 48 1 14 44
M  V30 49 1 16 45
M  V30 50 1 17 46
M  V30 51 1 17 47
M  V30 52 1 18 48
M  V30 53 1 18 49
M  V30 54 1 22 50
M  V30 55 1 23 51
M  V30 56 1 26 52
M  V30 57 1 27 53
M  V30 58 1 28 54
M  V30 59 1 29 55
M  V30 60 1 31 56
M  V30 61 1 32 57
M  V30 END BOND
M  V30 END CTAB
M  END
>  <Dataset>  (210) 
ChEMBL_Kinases

>  <Ligand_Instance>  (210) 
nan

>  <PDB_ID>  (210) 
nan

>  <Standardized_SMILES>  (210) 
CC(C)(O)c1cc(Nc2cc(Oc3cn(C4CC4)nc3-c3ccc(F)cc3)ccn2)ccn1

>  <Name>  (210) 
nan

>  <Pocket>  (210) 
nan

>  <ATP_Site>  (210) 
nan

>  <Peripheral>  (210) 
nan

>  <Num_H_Atoms_ProtBoundConf>  (210) 
nan

>  <Num_Resolved_Atoms>  (210) 
nan

>  <Num_Not_Resolved_Atoms>  (210) 
nan

$$$$
CHEMBL4792722
     RDKit          3D

  0  0  0  0  0  0  0  0  0  0999 V3000
M  V30 BEGIN CTAB
M  V30 COUNTS 43 46 0 0 0
M  V30 BEGIN ATOM
M  V30 1 O -0.670763 -0.342607 2.608421 0
M  V30 2 C -0.844826 -1.560624 2.342540 0
M  V30 3 N -0.058870 -2.267581 1.408261 0
M  V30 4 C 0.955759 -1.484453 0.785406 0
M  V30 5 C 0.642371 -0.809807 -0.402298 0
M  V30 6 C 1.642501 -0.043130 -1.008341 0
M  V30 7 C 1.238157 0.576920 -2.163716 0
M  V30 8 C 2.233666 1.325443 -2.744970 0
M  V30 9 C 1.944681 2.044912 -3.986815 0
M  V30 10 C 0.803609 2.176911 -4.811297 0
M  V30 11 N 0.709847 2.878874 -5.919725 0
M  V30 12 C 1.775543 3.534155 -6.322057 0
M  V30 13 S 3.111001 3.139767 -4.995877 0
M  V30 14 C 3.518204 1.516818 -2.328794 0
M  V30 15 C 3.845548 0.848210 -1.142520 0
M  V30 16 C 2.913072 0.073000 -0.486521 0
M  V30 17 C 3.166511 -0.615677 0.689439 0
M  V30 18 N 2.216361 -1.360405 1.289841 0
M  V30 19 C -1.937678 -2.259099 3.063273 0
M  V30 20 F -2.869379 -2.828211 2.192738 0
M  V30 21 C -1.421614 -3.434106 3.889774 0
M  V30 22 C -0.503021 -2.955905 4.963045 0
M  V30 23 C -1.109064 -1.911893 5.862173 0
M  V30 24 C -1.886267 -0.848984 5.140465 0
M  V30 25 C -2.692564 -1.354686 3.977466 0
M  V30 26 H -0.274364 -3.292789 1.245148 0
M  V30 27 H -0.362475 -0.892283 -0.829090 0
M  V30 28 H 0.297058 0.562031 -2.657327 0
M  V30 29 H -0.040667 1.598653 -4.403519 0
M  V30 30 H 1.796557 4.100496 -7.163323 0
M  V30 31 H 4.264415 2.112509 -2.816603 0
M  V30 32 H 4.839874 0.934338 -0.727002 0
M  V30 33 H 4.161613 -0.527021 1.101594 0
M  V30 34 H -0.847200 -4.116825 3.236227 0
M  V30 35 H -2.330600 -3.910171 4.319891 0
M  V30 36 H 0.426416 -2.606902 4.499053 0
M  V30 37 H -0.276657 -3.849246 5.615247 0
M  V30 38 H -1.707135 -2.381141 6.697022 0
M  V30 39 H -0.265920 -1.408188 6.381305 0
M  V30 40 H -2.605280 -0.408874 5.866340 0
M  V30 41 H -1.204173 -0.006166 4.859438 0
M  V30 42 H -3.587479 -1.880815 4.346113 0
M  V30 43 H -3.031801 -0.444825 3.418367 0
M  V30 END ATOM
M  V30 BEGIN BOND
M  V30 1 2 1 2
M  V30 2 1 2 3
M  V30 3 1 3 4
M  V30 4 2 4 5
M  V30 5 1 5 6
M  V30 6 2 6 7
M  V30 7 1 7 8
M  V30 8 1 8 9
M  V30 9 2 9 10
M  V30 10 1 10 11
M  V30 11 2 11 12
M  V30 12 1 12 13
M  V30 13 2 8 14
M  V30 14 1 14 15
M  V30 15 2 15 16
M  V30 16 1 16 17
M  V30 17 2 17 18
M  V30 18 1 2 19
M  V30 19 1 19 20
M  V30 20 1 19 21
M  V30 21 1 21 22
M  V30 22 1 22 23
M  V30 23 1 23 24
M  V30 24 1 24 25
M  V30 25 1 18 4
M  V30 26 1 25 19
M  V30 27 1 16 6
M  V30 28 1 13 9
M  V30 29 1 3 26
M  V30 30 1 5 27
M  V30 31 1 7 28
M  V30 32 1 10 29
M  V30 33 1 12 30
M  V30 34 1 14 31
M  V30 35 1 15 32
M  V30 36 1 17 33
M  V30 37 1 21 34
M  V30 38 1 21 35
M  V30 39 1 22 36
M  V30 40 1 22 37
M  V30 41 1 23 38
M  V30 42 1 23 39
M  V30 43 1 24 40
M  V30 44 1 24 41
M  V30 45 1 25 42
M  V30 46 1 25 43
M  V30 END BOND
M  V30 END CTAB
M  END
>  <Dataset>  (211) 
ChEMBL_Kinases

>  <Ligand_Instance>  (211) 
nan

>  <PDB_ID>  (211) 
nan

>  <Standardized_SMILES>  (211) 
O=C(Nc1cc2cc(-c3cncs3)ccc2cn1)C1(F)CCCCC1

>  <Name>  (211) 
nan

>  <Pocket>  (211) 
nan

>  <ATP_Site>  (211) 
nan

>  <Peripheral>  (211) 
nan

>  <Num_H_Atoms_ProtBoundConf>  (211) 
nan

>  <Num_Resolved_Atoms>  (211) 
nan

>  <Num_Not_Resolved_Atoms>  (211) 
nan

$$$$
CHEMBL160373
     RDKit          3D

  0  0  0  0  0  0  0  0  0  0999 V3000
M  V30 BEGIN CTAB
M  V30 COUNTS 37 39 0 0 0
M  V30 BEGIN ATOM
M  V30 1 C 0.707775 -6.071094 1.740123 0
M  V30 2 O 1.695582 -5.194449 2.302184 0
M  V30 3 C 1.525488 -3.827062 2.097362 0
M  V30 4 C 2.491869 -2.974391 2.647320 0
M  V30 5 C 2.388281 -1.590028 2.487068 0
M  V30 6 C 1.318013 -1.112129 1.779850 0
M  V30 7 C 0.353426 -1.922318 1.228200 0
M  V30 8 C -0.818649 -1.544701 0.452978 0
M  V30 9 C -0.836424 -0.582038 -0.445403 0
M  V30 10 N -0.050387 0.423534 -1.090554 0
M  V30 11 C 0.201623 1.788020 -0.786162 0
M  V30 12 C -0.691434 2.787397 -1.149660 0
M  V30 13 C -0.507609 4.137188 -0.890908 0
M  V30 14 C 0.643969 4.538924 -0.222443 0
M  V30 15 C 1.560733 3.572166 0.157881 0
M  V30 16 O 2.689582 4.025964 0.821461 0
M  V30 17 C 1.314949 2.264042 -0.130064 0
M  V30 18 C -2.204527 -0.515998 -1.005954 0
M  V30 19 O -2.890365 0.140452 -1.865615 0
M  V30 20 N -3.015148 -1.522741 -0.367266 0
M  V30 21 C -2.141889 -2.167912 0.549184 0
M  V30 22 O -2.376958 -3.130812 1.356014 0
M  V30 23 C 0.491503 -3.281925 1.408394 0
M  V30 24 H -0.275799 -5.772944 2.210865 0
M  V30 25 H 0.911020 -7.122557 1.983987 0
M  V30 26 H 0.564361 -5.905936 0.657177 0
M  V30 27 H 3.357803 -3.338490 3.217102 0
M  V30 28 H 3.108026 -0.881079 2.889156 0
M  V30 29 H 1.171040 -0.071646 1.621954 0
M  V30 30 H 0.463322 0.142135 -1.972153 0
M  V30 31 H -1.606388 2.557988 -1.668075 0
M  V30 32 H -1.238008 4.882567 -1.194929 0
M  V30 33 H 0.776213 5.592206 -0.024420 0
M  V30 34 H 2.643940 4.033781 1.849840 0
M  V30 35 H 2.068299 1.584565 0.185175 0
M  V30 36 H -3.996748 -1.863960 -0.410600 0
M  V30 37 H -0.198836 -4.033147 1.023903 0
M  V30 END ATOM
M  V30 BEGIN BOND
M  V30 1 1 1 2
M  V30 2 1 2 3
M  V30 3 2 3 4
M  V30 4 1 4 5
M  V30 5 2 5 6
M  V30 6 1 6 7
M  V30 7 1 7 8
M  V30 8 2 8 9
M  V30 9 1 9 10
M  V30 10 1 10 11
M  V30 11 2 11 12
M  V30 12 1 12 13
M  V30 13 2 13 14
M  V30 14 1 14 15
M  V30 15 1 15 16
M  V30 16 2 15 17
M  V30 17 1 9 18
M  V30 18 2 18 19
M  V30 19 1 18 20
M  V30 20 1 20 21
M  V30 21 2 21 22
M  V30 22 2 7 23
M  V30 23 1 23 3
M  V30 24 1 21 8
M  V30 25 1 17 11
M  V30 26 1 1 24
M  V30 27 1 1 25
M  V30 28 1 1 26
M  V30 29 1 4 27
M  V30 30 1 5 28
M  V30 31 1 6 29
M  V30 32 1 10 30
M  V30 33 1 12 31
M  V30 34 1 13 32
M  V30 35 1 14 33
M  V30 36 1 16 34
M  V30 37 1 17 35
M  V30 38 1 20 36
M  V30 39 1 23 37
M  V30 END BOND
M  V30 END CTAB
M  END
>  <Dataset>  (212) 
ChEMBL_Kinases

>  <Ligand_Instance>  (212) 
nan

>  <PDB_ID>  (212) 
nan

>  <Standardized_SMILES>  (212) 
COc1cccc(C2=C(Nc3cccc(O)c3)C(=O)NC2=O)c1

>  <Name>  (212) 
nan

>  <Pocket>  (212) 
nan

>  <ATP_Site>  (212) 
nan

>  <Peripheral>  (212) 
nan

>  <Num_H_Atoms_ProtBoundConf>  (212) 
nan

>  <Num_Resolved_Atoms>  (212) 
nan

>  <Num_Not_Resolved_Atoms>  (212) 
nan

$$$$
CHEMBL160338
     RDKit          3D

  0  0  0  0  0  0  0  0  0  0999 V3000
M  V30 BEGIN CTAB
M  V30 COUNTS 37 39 0 0 0
M  V30 BEGIN ATOM
M  V30 1 C -0.298462 -5.475078 1.041957 0
M  V30 2 O -0.418072 -4.072722 0.888230 0
M  V30 3 C 0.481861 -3.164479 1.434587 0
M  V30 4 C 1.572856 -3.501222 2.168418 0
M  V30 5 C 2.462614 -2.579965 2.699794 0
M  V30 6 C 2.206482 -1.242035 2.457575 0
M  V30 7 C 1.103894 -0.830020 1.712429 0
M  V30 8 C 0.271234 -1.832297 1.224718 0
M  V30 9 C -0.887089 -1.306907 0.521938 0
M  V30 10 C -1.133890 -0.504351 -0.487489 0
M  V30 11 N -0.371729 0.261010 -1.410943 0
M  V30 12 C 0.408772 1.373309 -0.978300 0
M  V30 13 C -0.375388 2.479161 -0.633515 0
M  V30 14 C 0.263489 3.628343 -0.182463 0
M  V30 15 C 1.638590 3.574745 -0.115320 0
M  V30 16 O 2.343027 4.712348 0.336030 0
M  V30 17 C 2.433199 2.501733 -0.450946 0
M  V30 18 C 1.778017 1.346569 -0.904439 0
M  V30 19 C -2.599324 -0.385146 -0.637272 0
M  V30 20 O -3.308246 0.271916 -1.468155 0
M  V30 21 N -3.270962 -1.173398 0.356794 0
M  V30 22 C -2.176516 -1.759891 1.092290 0
M  V30 23 O -2.473656 -2.531686 2.068623 0
M  V30 24 H -0.423152 -5.696169 2.129327 0
M  V30 25 H 0.709336 -5.871673 0.767656 0
M  V30 26 H -1.103219 -5.975801 0.462200 0
M  V30 27 H 1.739344 -4.577578 2.333637 0
M  V30 28 H 3.318964 -2.878419 3.274913 0
M  V30 29 H 2.919683 -0.538369 2.890451 0
M  V30 30 H 1.045112 0.227643 1.626136 0
M  V30 31 H -0.419377 -0.046912 -2.428521 0
M  V30 32 H -1.450795 2.512448 -0.694287 0
M  V30 33 H -0.225869 4.557992 0.120008 0
M  V30 34 H 2.349532 4.905632 1.307768 0
M  V30 35 H 3.510427 2.481455 -0.387649 0
M  V30 36 H 2.268596 0.437284 -1.196878 0
M  V30 37 H -4.291635 -1.283893 0.503670 0
M  V30 END ATOM
M  V30 BEGIN BOND
M  V30 1 1 1 2
M  V30 2 1 2 3
M  V30 3 2 3 4
M  V30 4 1 4 5
M  V30 5 2 5 6
M  V30 6 1 6 7
M  V30 7 2 7 8
M  V30 8 1 8 9
M  V30 9 2 9 10
M  V30 10 1 10 11
M  V30 11 1 11 12
M  V30 12 2 12 13
M  V30 13 1 13 14
M  V30 14 2 14 15
M  V30 15 1 15 16
M  V30 16 1 15 17
M  V30 17 2 17 18
M  V30 18 1 10 19
M  V30 19 2 19 20
M  V30 20 1 19 21
M  V30 21 1 21 22
M  V30 22 2 22 23
M  V30 23 1 8 3
M  V30 24 1 22 9
M  V30 25 1 18 12
M  V30 26 1 1 24
M  V30 27 1 1 25
M  V30 28 1 1 26
M  V30 29 1 4 27
M  V30 30 1 5 28
M  V30 31 1 6 29
M  V30 32 1 7 30
M  V30 33 1 11 31
M  V30 34 1 13 32
M  V30 35 1 14 33
M  V30 36 1 16 34
M  V30 37 1 17 35
M  V30 38 1 18 36
M  V30 39 1 21 37
M  V30 END BOND
M  V30 END CTAB
M  END
>  <Dataset>  (213) 
ChEMBL_Kinases

>  <Ligand_Instance>  (213) 
nan

>  <PDB_ID>  (213) 
nan

>  <Standardized_SMILES>  (213) 
COc1ccccc1C1=C(Nc2ccc(O)cc2)C(=O)NC1=O

>  <Name>  (213) 
nan

>  <Pocket>  (213) 
nan

>  <ATP_Site>  (213) 
nan

>  <Peripheral>  (213) 
nan

>  <Num_H_Atoms_ProtBoundConf>  (213) 
nan

>  <Num_Resolved_Atoms>  (213) 
nan

>  <Num_Not_Resolved_Atoms>  (213) 
nan

$$$$
CHEMBL160333
     RDKit          3D

  0  0  0  0  0  0  0  0  0  0999 V3000
M  V30 BEGIN CTAB
M  V30 COUNTS 33 35 0 0 0
M  V30 BEGIN ATOM
M  V30 1 O 0.915814 -0.285221 4.916398 0
M  V30 2 C 1.362532 -0.860114 3.878788 0
M  V30 3 N 2.262813 -1.944698 3.647306 0
M  V30 4 C 2.372624 -2.137110 2.217143 0
M  V30 5 O 3.120386 -3.048972 1.799864 0
M  V30 6 C 1.486147 -1.096928 1.643382 0
M  V30 7 C 1.484794 -1.098196 0.169922 0
M  V30 8 C 1.310244 -2.254942 -0.562519 0
M  V30 9 C 1.328478 -2.293301 -1.954800 0
M  V30 10 C 1.535815 -1.081636 -2.625049 0
M  V30 11 C 1.712270 0.094048 -1.933355 0
M  V30 12 Cl 1.980624 1.625577 -2.746975 0
M  V30 13 C 1.683517 0.061980 -0.558716 0
M  V30 14 C 0.913907 -0.376447 2.587511 0
M  V30 15 N 0.056692 0.611985 2.060941 0
M  V30 16 C -1.155411 0.441402 1.308481 0
M  V30 17 C -1.572270 -0.841870 1.025523 0
M  V30 18 C -2.755384 -1.058263 0.295717 0
M  V30 19 C -3.444746 0.079057 -0.102443 0
M  V30 20 O -4.611741 -0.103103 -0.822204 0
M  V30 21 C -3.009060 1.360755 0.191014 0
M  V30 22 Cl -3.904180 2.752297 -0.322868 0
M  V30 23 C -1.835184 1.561836 0.914610 0
M  V30 24 H 2.711791 -2.449111 4.439222 0
M  V30 25 H 1.149275 -3.196533 -0.002916 0
M  V30 26 H 1.179807 -3.241640 -2.429416 0
M  V30 27 H 1.549008 -1.091935 -3.684596 0
M  V30 28 H 1.816633 0.946902 0.057449 0
M  V30 29 H 0.420407 1.587195 2.285797 0
M  V30 30 H -1.068669 -1.743830 1.316172 0
M  V30 31 H -3.107939 -2.049033 0.055636 0
M  V30 32 H -4.500570 -0.383135 -1.806696 0
M  V30 33 H -1.447446 2.530915 1.176784 0
M  V30 END ATOM
M  V30 BEGIN BOND
M  V30 1 2 1 2
M  V30 2 1 2 3
M  V30 3 1 3 4
M  V30 4 2 4 5
M  V30 5 1 4 6
M  V30 6 1 6 7
M  V30 7 2 7 8
M  V30 8 1 8 9
M  V30 9 2 9 10
M  V30 10 1 10 11
M  V30 11 1 11 12
M  V30 12 2 11 13
M  V30 13 2 6 14
M  V30 14 1 14 15
M  V30 15 1 15 16
M  V30 16 2 16 17
M  V30 17 1 17 18
M  V30 18 2 18 19
M  V30 19 1 19 20
M  V30 20 1 19 21
M  V30 21 1 21 22
M  V30 22 2 21 23
M  V30 23 1 14 2
M  V30 24 1 23 16
M  V30 25 1 13 7
M  V30 26 1 3 24
M  V30 27 1 8 25
M  V30 28 1 9 26
M  V30 29 1 10 27
M  V30 30 1 13 28
M  V30 31 1 15 29
M  V30 32 1 17 30
M  V30 33 1 18 31
M  V30 34 1 20 32
M  V30 35 1 23 33
M  V30 END BOND
M  V30 END CTAB
M  END
>  <Dataset>  (214) 
ChEMBL_Kinases

>  <Ligand_Instance>  (214) 
nan

>  <PDB_ID>  (214) 
nan

>  <Standardized_SMILES>  (214) 
O=C1NC(=O)C(c2cccc(Cl)c2)=C1Nc1ccc(O)c(Cl)c1

>  <Name>  (214) 
nan

>  <Pocket>  (214) 
nan

>  <ATP_Site>  (214) 
nan

>  <Peripheral>  (214) 
nan

>  <Num_H_Atoms_ProtBoundConf>  (214) 
nan

>  <Num_Resolved_Atoms>  (214) 
nan

>  <Num_Not_Resolved_Atoms>  (214) 
nan

$$$$
CHEMBL4791955
     RDKit          3D

  0  0  0  0  0  0  0  0  0  0999 V3000
M  V30 BEGIN CTAB
M  V30 COUNTS 56 61 0 0 0
M  V30 BEGIN ATOM
M  V30 1 O -2.885096 -2.698728 -1.418972 0
M  V30 2 C -2.469382 -3.946357 -1.878206 0
M  V30 3 C -1.141095 -4.301619 -1.312524 0
M  V30 4 C -0.088553 -3.422485 -1.345723 0
M  V30 5 C 1.126388 -3.777490 -0.814406 0
M  V30 6 N 2.212870 -2.857404 -0.853526 0
M  V30 7 C 2.132667 -1.558976 -1.430944 0
M  V30 8 C 1.729752 -0.570160 -0.561276 0
M  V30 9 C 1.609325 0.729692 -0.982503 0
M  V30 10 O 1.237029 1.906452 -0.358321 0
M  V30 11 C 0.827007 1.998517 0.955647 0
M  V30 12 C 1.661132 2.810461 1.733814 0
M  V30 13 N 1.154263 2.821643 3.002251 0
M  V30 14 C 1.418736 3.386853 4.312092 0
M  V30 15 C 1.799157 2.452055 5.435169 0
M  V30 16 C 2.763272 3.490541 4.882846 0
M  V30 17 N 0.065034 2.058960 3.011975 0
M  V30 18 C -0.166061 1.543665 1.793134 0
M  V30 19 C -1.201632 0.662266 1.222566 0
M  V30 20 C -2.407524 1.386775 0.661392 0
M  V30 21 C -2.953397 1.402675 2.093620 0
M  V30 22 F -2.576911 2.488886 2.823231 0
M  V30 23 F -4.287494 1.153483 2.204060 0
M  V30 24 C -2.138344 0.146993 2.322283 0
M  V30 25 C 1.911041 1.004295 -2.321813 0
M  V30 26 C 2.316429 0.001979 -3.191634 0
M  V30 27 N 2.413428 -1.254770 -2.710385 0
M  V30 28 C 1.366031 -5.000621 -0.230204 0
M  V30 29 C 0.263710 -5.861054 -0.220546 0
M  V30 30 N -0.910046 -5.491378 -0.744894 0
M  V30 31 C -3.516352 -5.017763 -1.768852 0
M  V30 32 O -3.425602 -5.271529 -3.119947 0
M  V30 33 C -2.651958 -4.153252 -3.345953 0
M  V30 34 H -2.207126 -2.279342 -0.816488 0
M  V30 35 H -0.171708 -2.451708 -1.775626 0
M  V30 36 H 3.142925 -3.050854 -0.470411 0
M  V30 37 H 1.465318 -0.639960 0.496899 0
M  V30 38 H 2.566097 3.437856 1.703275 0
M  V30 39 H 0.700247 4.203002 4.577429 0
M  V30 40 H 1.971889 1.383738 5.166752 0
M  V30 41 H 1.310098 2.622378 6.398457 0
M  V30 42 H 2.979163 4.361818 5.558532 0
M  V30 43 H 3.659465 3.070330 4.419031 0
M  V30 44 H -0.875890 -0.104530 0.524886 0
M  V30 45 H -2.217385 2.364426 0.218334 0
M  V30 46 H -3.046432 0.681616 0.085731 0
M  V30 47 H -1.612002 0.066999 3.284204 0
M  V30 48 H -2.654766 -0.736435 1.929851 0
M  V30 49 H 1.874896 1.969265 -2.837679 0
M  V30 50 H 2.563482 0.145821 -4.233174 0
M  V30 51 H 2.340255 -5.232626 0.173846 0
M  V30 52 H 0.393790 -6.832126 0.224251 0
M  V30 53 H -4.511113 -4.546542 -1.542872 0
M  V30 54 H -3.300007 -5.858432 -1.080680 0
M  V30 55 H -3.210534 -3.300666 -3.794875 0
M  V30 56 H -1.724980 -4.342497 -3.930280 0
M  V30 END ATOM
M  V30 BEGIN BOND
M  V30 1 1 1 2
M  V30 2 1 2 3
M  V30 3 2 3 4
M  V30 4 1 4 5
M  V30 5 1 5 6
M  V30 6 1 6 7
M  V30 7 2 7 8
M  V30 8 1 8 9
M  V30 9 1 9 10
M  V30 10 1 10 11
M  V30 11 2 11 12
M  V30 12 1 12 13
M  V30 13 1 13 14
M  V30 14 1 14 15
M  V30 15 1 15 16
M  V30 16 1 13 17
M  V30 17 2 17 18
M  V30 18 1 18 19
M  V30 19 1 19 20
M  V30 20 1 20 21
M  V30 21 1 21 22
M  V30 22 1 21 23
M  V30 23 1 21 24
M  V30 24 2 9 25
M  V30 25 1 25 26
M  V30 26 2 26 27
M  V30 27 2 5 28
M  V30 28 1 28 29
M  V30 29 2 29 30
M  V30 30 1 2 31
M  V30 31 1 31 32
M  V30 32 1 32 33
M  V30 33 1 33 2
M  V30 34 1 30 3
M  V30 35 1 27 7
M  V30 36 1 18 11
M  V30 37 1 24 19
M  V30 38 1 16 14
M  V30 39 1 1 34
M  V30 40 1 4 35
M  V30 41 1 6 36
M  V30 42 1 8 37
M  V30 43 1 12 38
M  V30 44 1 14 39
M  V30 45 1 15 40
M  V30 46 1 15 41
M  V30 47 1 16 42
M  V30 48 1 16 43
M  V30 49 1 19 44
M  V30 50 1 20 45
M  V30 51 1 20 46
M  V30 52 1 24 47
M  V30 53 1 24 48
M  V30 54 1 25 49
M  V30 55 1 26 50
M  V30 56 1 28 51
M  V30 57 1 29 52
M  V30 58 1 31 53
M  V30 59 1 31 54
M  V30 60 1 33 55
M  V30 61 1 33 56
M  V30 END BOND
M  V30 END CTAB
M  END
>  <Dataset>  (215) 
ChEMBL_Kinases

>  <Ligand_Instance>  (215) 
nan

>  <PDB_ID>  (215) 
nan

>  <Standardized_SMILES>  (215) 
OC1(c2cc(Nc3cc(Oc4cn(C5CC5)nc4C4CC(F)(F)C4)ccn3)ccn2)COC1

>  <Name>  (215) 
nan

>  <Pocket>  (215) 
nan

>  <ATP_Site>  (215) 
nan

>  <Peripheral>  (215) 
nan

>  <Num_H_Atoms_ProtBoundConf>  (215) 
nan

>  <Num_Resolved_Atoms>  (215) 
nan

>  <Num_Not_Resolved_Atoms>  (215) 
nan

$$$$
CHEMBL1615221
     RDKit          3D

  0  0  0  0  0  0  0  0  0  0999 V3000
M  V30 BEGIN CTAB
M  V30 COUNTS 61 64 0 0 0
M  V30 BEGIN ATOM
M  V30 1 C 1.685881 -2.173163 3.933127 0
M  V30 2 C 1.901325 -1.884822 2.479100 0
M  V30 3 C 2.000295 -0.424818 2.138483 0 CFG=1
M  V30 4 C 3.172273 0.227139 2.873331 0
M  V30 5 O 4.300334 -0.471645 2.509390 0
M  V30 6 N 2.269302 -0.309813 0.718854 0
M  V30 7 C 1.747023 -0.673409 -0.539925 0
M  V30 8 N 0.784456 0.173097 -0.943272 0
M  V30 9 C 0.121225 0.071607 -2.107577 0
M  V30 10 N -0.895384 0.970620 -2.528151 0
M  V30 11 C -1.408001 2.107079 -1.840527 0
M  V30 12 C -2.041290 1.767593 -0.527073 0
M  V30 13 C -1.409180 1.776117 0.696686 0
M  V30 14 C -2.121691 1.422610 1.830860 0
M  V30 15 C -3.450033 1.062919 1.757456 0
M  V30 16 C -4.234309 0.686170 2.924945 0
M  V30 17 C -3.710279 0.662751 4.197649 0
M  V30 18 C -4.474377 0.304739 5.283135 0
M  V30 19 C -5.801853 -0.052025 5.181065 0
M  V30 20 C -6.297716 -0.017166 3.881910 0
M  V30 21 N -5.537160 0.335162 2.831192 0
M  V30 22 C -4.056672 1.063581 0.519802 0
M  V30 23 C -3.373628 1.414113 -0.653518 0
M  V30 24 C 0.529290 -1.010909 -2.873386 0
M  V30 25 N 0.083285 -1.411544 -4.088881 0
M  V30 26 C 0.747307 -2.502629 -4.466587 0
M  V30 27 N 1.622663 -2.799664 -3.486263 0
M  V30 28 C 2.538439 -3.923568 -3.514248 0
M  V30 29 C 3.933758 -3.584757 -3.104599 0
M  V30 30 C 2.022649 -5.070313 -2.662536 0
M  V30 31 C 1.506924 -1.897681 -2.497972 0
M  V30 32 N 2.101943 -1.695627 -1.309220 0
M  V30 33 H 2.209292 -3.137801 4.163049 0
M  V30 34 H 2.061508 -1.431905 4.633365 0
M  V30 35 H 0.600456 -2.415508 4.128077 0
M  V30 36 H 2.824044 -2.376087 2.130494 0
M  V30 37 H 1.071979 -2.385910 1.921542 0
M  V30 38 H 1.099511 0.169081 2.407803 0
M  V30 39 H 3.009428 0.222584 3.948158 0
M  V30 40 H 3.261299 1.299181 2.570384 0
M  V30 41 H 5.085766 -0.187878 3.010655 0
M  V30 42 H 3.117565 0.193918 0.355556 0
M  V30 43 H -1.306317 0.738189 -3.484872 0
M  V30 44 H -0.569611 2.799803 -1.615197 0
M  V30 45 H -2.101833 2.658816 -2.499698 0
M  V30 46 H -0.373409 2.065982 0.718420 0
M  V30 47 H -1.607204 1.440545 2.754051 0
M  V30 48 H -2.696672 0.921484 4.385824 0
M  V30 49 H -4.053812 0.287880 6.289176 0
M  V30 50 H -6.465956 -0.343642 5.978899 0
M  V30 51 H -7.319435 -0.270281 3.640688 0
M  V30 52 H -5.088895 0.787407 0.442796 0
M  V30 53 H -3.943931 1.383955 -1.593027 0
M  V30 54 H 0.638106 -3.084108 -5.388946 0
M  V30 55 H 2.602371 -4.314392 -4.558398 0
M  V30 56 H 4.464380 -3.151813 -3.996209 0
M  V30 57 H 4.444478 -4.540388 -2.834265 0
M  V30 58 H 4.019293 -2.931771 -2.221063 0
M  V30 59 H 2.735679 -5.914598 -2.763567 0
M  V30 60 H 1.058098 -5.464655 -3.095887 0
M  V30 61 H 1.939204 -4.820447 -1.605629 0
M  V30 END ATOM
M  V30 BEGIN BOND
M  V30 1 1 1 2
M  V30 2 1 2 3
M  V30 3 1 3 4
M  V30 4 1 4 5
M  V30 5 1 3 6
M  V30 6 1 6 7
M  V30 7 2 7 8
M  V30 8 1 8 9
M  V30 9 1 9 10
M  V30 10 1 10 11
M  V30 11 1 11 12
M  V30 12 2 12 13
M  V30 13 1 13 14
M  V30 14 2 14 15
M  V30 15 1 15 16
M  V30 16 2 16 17
M  V30 17 1 17 18
M  V30 18 2 18 19
M  V30 19 1 19 20
M  V30 20 2 20 21
M  V30 21 1 15 22
M  V30 22 2 22 23
M  V30 23 2 9 24
M  V30 24 1 24 25
M  V30 25 2 25 26
M  V30 26 1 26 27
M  V30 27 1 27 28
M  V30 28 1 28 29
M  V30 29 1 28 30
M  V30 30 1 27 31
M  V30 31 2 31 32
M  V30 32 1 32 7
M  V30 33 1 23 12
M  V30 34 1 31 24
M  V30 35 1 21 16
M  V30 36 1 1 33
M  V30 37 1 1 34
M  V30 38 1 1 35
M  V30 39 1 2 36
M  V30 40 1 2 37
M  V30 41 1 3 38 CFG=3
M  V30 42 1 4 39
M  V30 43 1 4 40
M  V30 44 1 5 41
M  V30 45 1 6 42
M  V30 46 1 10 43
M  V30 47 1 11 44
M  V30 48 1 11 45
M  V30 49 1 13 46
M  V30 50 1 14 47
M  V30 51 1 17 48
M  V30 52 1 18 49
M  V30 53 1 19 50
M  V30 54 1 20 51
M  V30 55 1 22 52
M  V30 56 1 23 53
M  V30 57 1 26 54
M  V30 58 1 28 55
M  V30 59 1 29 56
M  V30 60 1 29 57
M  V30 61 1 29 58
M  V30 62 1 30 59
M  V30 63 1 30 60
M  V30 64 1 30 61
M  V30 END BOND
M  V30 END CTAB
M  END
>  <Dataset>  (216) 
ChEMBL_Kinases

>  <Ligand_Instance>  (216) 
nan

>  <PDB_ID>  (216) 
nan

>  <Standardized_SMILES>  (216) 
CC[C@@H](CO)Nc1nc(NCc2ccc(-c3ccccn3)cc2)c2ncn(C(C)C)c2n1

>  <Name>  (216) 
nan

>  <Pocket>  (216) 
nan

>  <ATP_Site>  (216) 
nan

>  <Peripheral>  (216) 
nan

>  <Num_H_Atoms_ProtBoundConf>  (216) 
nan

>  <Num_Resolved_Atoms>  (216) 
nan

>  <Num_Not_Resolved_Atoms>  (216) 
nan

$$$$
CHEMBL488811
     RDKit          3D

  0  0  0  0  0  0  0  0  0  0999 V3000
M  V30 BEGIN CTAB
M  V30 COUNTS 61 65 0 0 0
M  V30 BEGIN ATOM
M  V30 1 C 1.720475 -2.898639 5.275116 0
M  V30 2 O 0.586042 -2.184290 4.823686 0
M  V30 3 C 0.138266 -2.266042 3.517019 0
M  V30 4 C 0.836590 -3.075008 2.645041 0
M  V30 5 C 0.379250 -3.146725 1.347462 0
M  V30 6 C 0.907540 -3.928095 0.236189 0
M  V30 7 C 1.084385 -3.572253 -1.040707 0
M  V30 8 C 0.750152 -2.245789 -1.536245 0
M  V30 9 C 1.147348 -1.081842 -0.857656 0
M  V30 10 N 0.729706 0.041263 -1.467039 0
M  V30 11 C 0.980665 1.392121 -1.017443 0
M  V30 12 O -0.015724 1.877332 -0.128866 0
M  V30 13 C 0.096769 3.183705 0.393025 0
M  V30 14 C 1.179059 3.990479 0.031664 0
M  V30 15 C 1.328955 5.276982 0.519690 0
M  V30 16 C 0.388963 5.781247 1.385391 0
M  V30 17 C -0.703703 4.997932 1.764215 0
M  V30 18 C -0.828558 3.703392 1.255768 0
M  V30 19 C 0.053561 -0.366351 -2.550731 0
M  V30 20 C -0.609705 0.313015 -3.561813 0
M  V30 21 C -1.229548 -0.390963 -4.566110 0
M  V30 22 C -1.217816 -1.774804 -4.609099 0
M  V30 23 C -0.564559 -2.498262 -3.616183 0
M  V30 24 C 0.047371 -1.765080 -2.623199 0
M  V30 25 C 1.654315 -4.724669 -1.784889 0
M  V30 26 N 1.801534 -5.768592 -0.810212 0
M  V30 27 C 1.340328 -5.303868 0.447301 0
M  V30 28 O 1.365923 -6.056145 1.454866 0
M  V30 29 C -0.742678 -2.428333 0.944380 0
M  V30 30 C -1.434344 -1.621161 1.825008 0
M  V30 31 O -2.553540 -0.864651 1.543531 0
M  V30 32 C -3.159096 -0.817112 0.265737 0
M  V30 33 C -0.975086 -1.542878 3.146624 0
M  V30 34 O -1.650920 -0.730998 4.080277 0
M  V30 35 C -2.712374 -1.347560 4.792994 0
M  V30 36 H 2.579034 -2.748760 4.561504 0
M  V30 37 H 1.466922 -3.970504 5.367906 0
M  V30 38 H 2.059220 -2.522807 6.262083 0
M  V30 39 H 1.699532 -3.660692 2.852148 0
M  V30 40 H 1.732846 -1.058897 0.066299 0
M  V30 41 H 1.955527 1.417397 -0.463832 0
M  V30 42 H 1.057653 2.068203 -1.903387 0
M  V30 43 H 1.942142 3.624882 -0.651960 0
M  V30 44 H 2.199157 5.851202 0.194692 0
M  V30 45 H 0.550555 6.806730 1.745860 0
M  V30 46 H -1.425875 5.421864 2.447045 0
M  V30 47 H -1.689699 3.090752 1.556996 0
M  V30 48 H -0.618681 1.407244 -3.528708 0
M  V30 49 H -1.745668 0.144172 -5.352989 0
M  V30 50 H -1.706621 -2.316179 -5.398345 0
M  V30 51 H -0.539849 -3.577106 -3.620093 0
M  V30 52 H 2.613532 -4.462987 -2.280269 0
M  V30 53 H 0.919457 -5.095032 -2.531951 0
M  V30 54 H 2.199951 -6.710812 -1.064970 0
M  V30 55 H -1.223008 -2.391503 -0.022428 0
M  V30 56 H -3.839596 0.078600 0.182219 0
M  V30 57 H -3.826008 -1.703543 0.194865 0
M  V30 58 H -2.455697 -0.870011 -0.573527 0
M  V30 59 H -2.283033 -1.983955 5.588031 0
M  V30 60 H -3.301754 -2.029656 4.115401 0
M  V30 61 H -3.467398 -0.626574 5.168052 0
M  V30 END ATOM
M  V30 BEGIN BOND
M  V30 1 1 1 2
M  V30 2 1 2 3
M  V30 3 2 3 4
M  V30 4 1 4 5
M  V30 5 1 5 6
M  V30 6 2 6 7
M  V30 7 1 7 8
M  V30 8 2 8 9
M  V30 9 1 9 10
M  V30 10 1 10 11
M  V30 11 1 11 12
M  V30 12 1 12 13
M  V30 13 2 13 14
M  V30 14 1 14 15
M  V30 15 2 15 16
M  V30 16 1 16 17
M  V30 17 2 17 18
M  V30 18 1 10 19
M  V30 19 2 19 20
M  V30 20 1 20 21
M  V30 21 2 21 22
M  V30 22 1 22 23
M  V30 23 2 23 24
M  V30 24 1 7 25
M  V30 25 1 25 26
M  V30 26 1 26 27
M  V30 27 2 27 28
M  V30 28 2 5 29
M  V30 29 1 29 30
M  V30 30 1 30 31
M  V30 31 1 31 32
M  V30 32 2 30 33
M  V30 33 1 33 34
M  V30 34 1 34 35
M  V30 35 1 33 3
M  V30 36 1 27 6
M  V30 37 1 24 8
M  V30 38 1 18 13
M  V30 39 1 24 19
M  V30 40 1 1 36
M  V30 41 1 1 37
M  V30 42 1 1 38
M  V30 43 1 4 39
M  V30 44 1 9 40
M  V30 45 1 11 41
M  V30 46 1 11 42
M  V30 47 1 14 43
M  V30 48 1 15 44
M  V30 49 1 16 45
M  V30 50 1 17 46
M  V30 51 1 18 47
M  V30 52 1 20 48
M  V30 53 1 21 49
M  V30 54 1 22 50
M  V30 55 1 23 51
M  V30 56 1 25 52
M  V30 57 1 25 53
M  V30 58 1 26 54
M  V30 59 1 29 55
M  V30 60 1 32 56
M  V30 61 1 32 57
M  V30 62 1 32 58
M  V30 63 1 35 59
M  V30 64 1 35 60
M  V30 65 1 35 61
M  V30 END BOND
M  V30 END CTAB
M  END
>  <Dataset>  (217) 
ChEMBL_Kinases

>  <Ligand_Instance>  (217) 
nan

>  <PDB_ID>  (217) 
nan

>  <Standardized_SMILES>  (217) 
COc1cc(C2=C(c3cn(COc4ccccc4)c4ccccc34)CNC2=O)cc(OC)c1OC

>  <Name>  (217) 
nan

>  <Pocket>  (217) 
nan

>  <ATP_Site>  (217) 
nan

>  <Peripheral>  (217) 
nan

>  <Num_H_Atoms_ProtBoundConf>  (217) 
nan

>  <Num_Resolved_Atoms>  (217) 
nan

>  <Num_Not_Resolved_Atoms>  (217) 
nan

$$$$
CHEMBL4790192
     RDKit          3D

  0  0  0  0  0  0  0  0  0  0999 V3000
M  V30 BEGIN CTAB
M  V30 COUNTS 59 63 0 0 0
M  V30 BEGIN ATOM
M  V30 1 C 1.319885 -7.443413 2.212294 0
M  V30 2 C 1.744512 -6.023489 2.318091 0
M  V30 3 N 2.642896 -5.404100 3.100276 0
M  V30 4 O 2.651040 -4.152505 2.816010 0
M  V30 5 C 1.800000 -3.834619 1.863388 0
M  V30 6 C 1.693868 -2.447296 1.429461 0
M  V30 7 C 2.471066 -1.457201 1.996419 0
M  V30 8 N 2.365872 -0.180891 1.586720 0
M  V30 9 C 1.510284 0.189816 0.617859 0
M  V30 10 N 1.524193 1.573138 0.302913 0
M  V30 11 C 0.821404 2.698234 0.812710 0
M  V30 12 C 1.140098 3.892116 0.204687 0
M  V30 13 C 0.459085 5.011933 0.697106 0
M  V30 14 C -0.456392 4.881271 1.718566 0
M  V30 15 C -0.726680 3.638656 2.284693 0
M  V30 16 C -0.074853 2.489419 1.830342 0
M  V30 17 C -1.745389 3.840050 3.345792 0
M  V30 18 C -3.039377 3.132437 3.044890 0
M  V30 19 C -1.260353 3.429502 4.698763 0
M  V30 20 O -2.000582 5.213033 3.320967 0
M  V30 21 C -1.261934 5.882145 2.372633 0
M  V30 22 O -1.261837 7.116616 2.101291 0
M  V30 23 N 0.760814 -0.778462 0.074369 0
M  V30 24 C 0.813959 -2.072724 0.434572 0
M  V30 25 N -0.078230 -2.968146 -0.224693 0
M  V30 26 C -1.022993 -2.707257 -1.282373 0 CFG=2
M  V30 27 C -2.025583 -3.884318 -1.266321 0
M  V30 28 O -1.408402 -5.090571 -1.499705 0
M  V30 29 C -0.413485 -2.726264 -2.643141 0
M  V30 30 C -1.100130 -3.327816 -3.706427 0
M  V30 31 C -0.644570 -3.415413 -4.997716 0
M  V30 32 C 0.574626 -2.884577 -5.313380 0
M  V30 33 C 1.305200 -2.278034 -4.318199 0
M  V30 34 C 0.779914 -2.230725 -3.049441 0
M  V30 35 N 1.261347 -5.021292 1.585059 0
M  V30 36 H 0.826431 -7.603920 1.235304 0
M  V30 37 H 2.181232 -8.122835 2.371806 0
M  V30 38 H 0.528620 -7.606985 2.996714 0
M  V30 39 H 3.179099 -1.687357 2.780222 0
M  V30 40 H 2.234549 1.576623 -0.460199 0
M  V30 41 H 1.849031 3.981638 -0.583807 0
M  V30 42 H 0.661379 5.981865 0.264902 0
M  V30 43 H -0.264812 1.529687 2.247288 0
M  V30 44 H -3.474916 3.492616 2.088170 0
M  V30 45 H -2.917755 2.038399 3.099225 0
M  V30 46 H -3.734948 3.414977 3.882035 0
M  V30 47 H -1.408163 4.259048 5.413936 0
M  V30 48 H -1.878329 2.589297 5.096127 0
M  V30 49 H -0.203583 3.084799 4.655196 0
M  V30 50 H -0.034917 -3.949350 0.106990 0
M  V30 51 H -1.614519 -1.795703 -1.174760 0
M  V30 52 H -2.363004 -3.937073 -0.180590 0
M  V30 53 H -2.932685 -3.669845 -1.819840 0
M  V30 54 H -0.490662 -5.046456 -1.842605 0
M  V30 55 H -2.079194 -3.792003 -3.605691 0
M  V30 56 H -1.175173 -3.879144 -5.814989 0
M  V30 57 H 0.977122 -2.927801 -6.313997 0
M  V30 58 H 2.266059 -1.858646 -4.563352 0
M  V30 59 H 1.418737 -1.746021 -2.337013 0
M  V30 END ATOM
M  V30 BEGIN BOND
M  V30 1 1 1 2
M  V30 2 2 2 3
M  V30 3 1 3 4
M  V30 4 1 4 5
M  V30 5 1 5 6
M  V30 6 2 6 7
M  V30 7 1 7 8
M  V30 8 2 8 9
M  V30 9 1 9 10
M  V30 10 1 10 11
M  V30 11 2 11 12
M  V30 12 1 12 13
M  V30 13 2 13 14
M  V30 14 1 14 15
M  V30 15 2 15 16
M  V30 16 1 15 17
M  V30 17 1 17 18
M  V30 18 1 17 19
M  V30 19 1 17 20
M  V30 20 1 20 21
M  V30 21 2 21 22
M  V30 22 1 9 23
M  V30 23 2 23 24
M  V30 24 1 24 25
M  V30 25 1 25 26
M  V30 26 1 26 27
M  V30 27 1 27 28
M  V30 28 1 26 29
M  V30 29 2 29 30
M  V30 30 1 30 31
M  V30 31 2 31 32
M  V30 32 1 32 33
M  V30 33 2 33 34
M  V30 34 2 5 35
M  V30 35 1 35 2
M  V30 36 1 24 6
M  V30 37 1 34 29
M  V30 38 1 16 11
M  V30 39 1 21 14
M  V30 40 1 1 36
M  V30 41 1 1 37
M  V30 42 1 1 38
M  V30 43 1 7 39
M  V30 44 1 10 40
M  V30 45 1 12 41
M  V30 46 1 13 42
M  V30 47 1 16 43
M  V30 48 1 18 44
M  V30 49 1 18 45
M  V30 50 1 18 46
M  V30 51 1 19 47
M  V30 52 1 19 48
M  V30 53 1 19 49
M  V30 54 1 25 50
M  V30 55 1 26 51 CFG=1
M  V30 56 1 27 52
M  V30 57 1 27 53
M  V30 58 1 28 54
M  V30 59 1 30 55
M  V30 60 1 31 56
M  V30 61 1 32 57
M  V30 62 1 33 58
M  V30 63 1 34 59
M  V30 END BOND
M  V30 END CTAB
M  END
>  <Dataset>  (218) 
ChEMBL_Kinases

>  <Ligand_Instance>  (218) 
nan

>  <PDB_ID>  (218) 
nan

>  <Standardized_SMILES>  (218) 
Cc1noc(-c2cnc(Nc3ccc4c(c3)C(C)(C)OC4=O)nc2N[C@H](CO)c2ccccc2)n1

>  <Name>  (218) 
nan

>  <Pocket>  (218) 
nan

>  <ATP_Site>  (218) 
nan

>  <Peripheral>  (218) 
nan

>  <Num_H_Atoms_ProtBoundConf>  (218) 
nan

>  <Num_Resolved_Atoms>  (218) 
nan

>  <Num_Not_Resolved_Atoms>  (218) 
nan

$$$$
CHEMBL488675
     RDKit          3D

  0  0  0  0  0  0  0  0  0  0999 V3000
M  V30 BEGIN CTAB
M  V30 COUNTS 53 55 0 0 0
M  V30 BEGIN ATOM
M  V30 1 C 3.374386 -5.389351 -1.026580 0
M  V30 2 N 2.492818 -4.675845 -0.135849 0
M  V30 3 C 1.720112 -5.450536 0.832076 0
M  V30 4 C 2.371663 -3.261336 -0.193297 0
M  V30 5 C 1.526692 -2.570650 0.656401 0
M  V30 6 C 1.354334 -1.201856 0.652943 0
M  V30 7 C 2.081909 -0.466760 -0.270772 0
M  V30 8 C 1.938489 0.990669 -0.341397 0
M  V30 9 O 2.557463 1.737033 -1.155490 0
M  V30 10 O 1.081954 1.621229 0.517821 0
M  V30 11 C 0.802157 2.985458 0.597636 0
M  V30 12 C -0.211796 3.145539 1.734751 0
M  V30 13 C -0.641607 4.585522 1.871105 0
M  V30 14 O -1.190049 5.100185 0.691372 0
M  V30 15 C -1.411725 2.247869 1.432077 0
M  V30 16 C -1.373820 1.277064 2.538855 0
M  V30 17 C -1.808137 0.022772 2.689277 0
M  V30 18 C -2.488385 -0.611845 1.541620 0
M  V30 19 C -2.139162 -1.962382 1.392323 0
M  V30 20 C -2.642166 -2.785258 0.383267 0
M  V30 21 C -3.516155 -2.202247 -0.480120 0
M  V30 22 N -4.042635 -3.028845 -1.522299 0 CHG=1 VAL=4
M  V30 23 O -4.838667 -2.780811 -2.431649 0
M  V30 24 O -3.705580 -4.353047 -1.681802 0 CHG=-1 VAL=1
M  V30 25 C -3.891147 -0.868638 -0.369678 0
M  V30 26 C -3.366186 -0.097703 0.644477 0
M  V30 27 C -0.659224 1.999296 3.613414 0
M  V30 28 O -0.949036 1.905622 4.852966 0
M  V30 29 O 0.320856 2.736534 2.967374 0
M  V30 30 C 2.922987 -1.158248 -1.115044 0
M  V30 31 C 3.081752 -2.532397 -1.095077 0
M  V30 32 H 3.619529 -6.408193 -0.643933 0
M  V30 33 H 4.320628 -4.838830 -1.202413 0
M  V30 34 H 2.824636 -5.552105 -1.966468 0
M  V30 35 H 0.680984 -5.053951 0.949184 0
M  V30 36 H 1.626734 -6.497697 0.453482 0
M  V30 37 H 2.260613 -5.518228 1.780604 0
M  V30 38 H 0.923092 -3.090238 1.409709 0
M  V30 39 H 0.696980 -0.673297 1.316073 0
M  V30 40 H 0.364418 3.436176 -0.302761 0
M  V30 41 H 1.722891 3.558113 0.859654 0
M  V30 42 H -1.368860 4.640667 2.709694 0
M  V30 43 H 0.263501 5.157595 2.187430 0
M  V30 44 H -1.090371 6.102761 0.766789 0
M  V30 45 H -1.285144 1.764944 0.432507 0
M  V30 46 H -2.351428 2.871448 1.426999 0
M  V30 47 H -1.688346 -0.550046 3.622098 0
M  V30 48 H -1.435306 -2.470577 2.069688 0
M  V30 49 H -2.349312 -3.810299 0.304026 0
M  V30 50 H -4.583208 -0.412198 -1.055204 0
M  V30 51 H -3.594446 0.936782 0.814265 0
M  V30 52 H 3.506498 -0.590419 -1.850566 0
M  V30 53 H 3.769885 -2.973427 -1.803958 0
M  V30 END ATOM
M  V30 BEGIN BOND
M  V30 1 1 1 2
M  V30 2 1 2 3
M  V30 3 1 2 4
M  V30 4 2 4 5
M  V30 5 1 5 6
M  V30 6 2 6 7
M  V30 7 1 7 8
M  V30 8 2 8 9
M  V30 9 1 8 10
M  V30 10 1 10 11
M  V30 11 1 11 12
M  V30 12 1 12 13
M  V30 13 1 13 14
M  V30 14 1 12 15
M  V30 15 1 15 16
M  V30 16 2 16 17
M  V30 17 1 17 18
M  V30 18 2 18 19
M  V30 19 1 19 20
M  V30 20 2 20 21
M  V30 21 1 21 22
M  V30 22 2 22 23
M  V30 23 1 22 24
M  V30 24 1 21 25
M  V30 25 2 25 26
M  V30 26 1 16 27
M  V30 27 2 27 28
M  V30 28 1 27 29
M  V30 29 1 7 30
M  V30 30 2 30 31
M  V30 31 1 31 4
M  V30 32 1 29 12
M  V30 33 1 26 18
M  V30 34 1 1 32
M  V30 35 1 1 33
M  V30 36 1 1 34
M  V30 37 1 3 35
M  V30 38 1 3 36
M  V30 39 1 3 37
M  V30 40 1 5 38
M  V30 41 1 6 39
M  V30 42 1 11 40
M  V30 43 1 11 41
M  V30 44 1 13 42
M  V30 45 1 13 43
M  V30 46 1 14 44
M  V30 47 1 15 45
M  V30 48 1 15 46
M  V30 49 1 17 47
M  V30 50 1 19 48
M  V30 51 1 20 49
M  V30 52 1 25 50
M  V30 53 1 26 51
M  V30 54 1 30 52
M  V30 55 1 31 53
M  V30 END BOND
M  V30 END CTAB
M  END
>  <Dataset>  (219) 
ChEMBL_Kinases

>  <Ligand_Instance>  (219) 
nan

>  <PDB_ID>  (219) 
nan

>  <Standardized_SMILES>  (219) 
CN(C)c1ccc(C(=O)OCC2(CO)C/C(=C\c3ccc([N+](=O)[O-])cc3)C(=O)O2)cc1

>  <Name>  (219) 
nan

>  <Pocket>  (219) 
nan

>  <ATP_Site>  (219) 
nan

>  <Peripheral>  (219) 
nan

>  <Num_H_Atoms_ProtBoundConf>  (219) 
nan

>  <Num_Resolved_Atoms>  (219) 
nan

>  <Num_Not_Resolved_Atoms>  (219) 
nan

$$$$
CHEMBL488674
     RDKit          3D

  0  0  0  0  0  0  0  0  0  0999 V3000
M  V30 BEGIN CTAB
M  V30 COUNTS 54 57 0 0 0
M  V30 BEGIN ATOM
M  V30 1 C 2.064348 -6.081128 -0.099473 0
M  V30 2 O 2.979329 -5.359116 -0.939220 0
M  V30 3 C 2.970610 -3.957601 -0.775800 0
M  V30 4 C 2.151395 -3.341691 0.123749 0
M  V30 5 C 2.089339 -1.974759 0.335594 0
M  V30 6 C 2.951465 -1.194933 -0.455770 0
M  V30 7 C 2.983529 0.286339 -0.332350 0
M  V30 8 O 3.722325 1.018719 -1.052128 0
M  V30 9 O 2.144930 0.795676 0.623917 0
M  V30 10 C 2.010866 2.154903 0.899778 0
M  V30 11 C 1.018501 2.414437 2.015171 0
M  V30 12 C 0.927073 3.906249 2.232021 0
M  V30 13 O 2.155670 4.468778 2.498168 0
M  V30 14 C -0.335339 1.825879 1.711515 0
M  V30 15 C -0.344663 0.564393 2.524479 0
M  V30 16 C -1.205872 -0.375730 2.272949 0
M  V30 17 C -2.248788 -0.454028 1.278424 0
M  V30 18 C -3.105616 0.541786 0.846661 0
M  V30 19 N -3.969636 0.137872 -0.100835 0
M  V30 20 C -4.994433 0.937244 -0.754776 0
M  V30 21 C -3.681292 -1.153982 -0.303060 0
M  V30 22 C -4.243651 -2.099230 -1.168361 0
M  V30 23 C -3.795842 -3.413026 -1.232812 0
M  V30 24 C -2.746317 -3.789419 -0.397948 0
M  V30 25 C -2.183946 -2.866554 0.459428 0
M  V30 26 C -2.632671 -1.564321 0.518719 0
M  V30 27 C 0.702377 0.687612 3.503676 0
M  V30 28 O 0.735270 -0.118142 4.469218 0
M  V30 29 O 1.524710 1.753032 3.154878 0
M  V30 30 C 3.774541 -1.830512 -1.360947 0
M  V30 31 C 3.835332 -3.195050 -1.570958 0
M  V30 32 H 1.033449 -5.640822 -0.151419 0
M  V30 33 H 2.056349 -7.157219 -0.308374 0
M  V30 34 H 2.406792 -5.893750 0.954457 0
M  V30 35 H 1.468440 -3.887719 0.757805 0
M  V30 36 H 1.442131 -1.497913 1.043175 0
M  V30 37 H 2.985367 2.552369 1.248612 0
M  V30 38 H 1.709620 2.780190 0.013458 0
M  V30 39 H 0.309055 4.083084 3.159669 0
M  V30 40 H 0.474389 4.427758 1.372647 0
M  V30 41 H 2.617549 4.825084 1.723166 0
M  V30 42 H -1.116651 2.471433 2.110679 0
M  V30 43 H -0.455184 1.581249 0.635649 0
M  V30 44 H -1.157705 -1.271101 2.904039 0
M  V30 45 H -3.125270 1.566075 1.200527 0
M  V30 46 H -5.934784 0.388797 -0.864360 0
M  V30 47 H -4.670612 1.225888 -1.786710 0
M  V30 48 H -5.200929 1.849109 -0.152427 0
M  V30 49 H -5.058143 -1.750585 -1.795453 0
M  V30 50 H -4.286069 -4.082336 -1.930847 0
M  V30 51 H -2.441557 -4.808507 -0.487132 0
M  V30 52 H -1.368889 -3.165242 1.105662 0
M  V30 53 H 4.448011 -1.219799 -1.976474 0
M  V30 54 H 4.502062 -3.623190 -2.291563 0
M  V30 END ATOM
M  V30 BEGIN BOND
M  V30 1 1 1 2
M  V30 2 1 2 3
M  V30 3 2 3 4
M  V30 4 1 4 5
M  V30 5 2 5 6
M  V30 6 1 6 7
M  V30 7 2 7 8
M  V30 8 1 7 9
M  V30 9 1 9 10
M  V30 10 1 10 11
M  V30 11 1 11 12
M  V30 12 1 12 13
M  V30 13 1 11 14
M  V30 14 1 14 15
M  V30 15 2 15 16
M  V30 16 1 16 17
M  V30 17 2 17 18
M  V30 18 1 18 19
M  V30 19 1 19 20
M  V30 20 1 19 21
M  V30 21 2 21 22
M  V30 22 1 22 23
M  V30 23 2 23 24
M  V30 24 1 24 25
M  V30 25 2 25 26
M  V30 26 1 15 27
M  V30 27 2 27 28
M  V30 28 1 27 29
M  V30 29 1 6 30
M  V30 30 2 30 31
M  V30 31 1 31 3
M  V30 32 1 29 11
M  V30 33 1 26 17
M  V30 34 1 26 21
M  V30 35 1 1 32
M  V30 36 1 1 33
M  V30 37 1 1 34
M  V30 38 1 4 35
M  V30 39 1 5 36
M  V30 40 1 10 37
M  V30 41 1 10 38
M  V30 42 1 12 39
M  V30 43 1 12 40
M  V30 44 1 13 41
M  V30 45 1 14 42
M  V30 46 1 14 43
M  V30 47 1 16 44
M  V30 48 1 18 45
M  V30 49 1 20 46
M  V30 50 1 20 47
M  V30 51 1 20 48
M  V30 52 1 22 49
M  V30 53 1 23 50
M  V30 54 1 24 51
M  V30 55 1 25 52
M  V30 56 1 30 53
M  V30 57 1 31 54
M  V30 END BOND
M  V30 END CTAB
M  END
>  <Dataset>  (220) 
ChEMBL_Kinases

>  <Ligand_Instance>  (220) 
nan

>  <PDB_ID>  (220) 
nan

>  <Standardized_SMILES>  (220) 
COc1ccc(C(=O)OCC2(CO)C/C(=C\c3cn(C)c4ccccc34)C(=O)O2)cc1

>  <Name>  (220) 
nan

>  <Pocket>  (220) 
nan

>  <ATP_Site>  (220) 
nan

>  <Peripheral>  (220) 
nan

>  <Num_H_Atoms_ProtBoundConf>  (220) 
nan

>  <Num_Resolved_Atoms>  (220) 
nan

>  <Num_Not_Resolved_Atoms>  (220) 
nan

$$$$
CHEMBL488668
     RDKit          3D

  0  0  0  0  0  0  0  0  0  0999 V3000
M  V30 BEGIN CTAB
M  V30 COUNTS 49 51 0 0 0
M  V30 BEGIN ATOM
M  V30 1 C 3.543705 -5.446413 -5.532371 0
M  V30 2 O 3.406352 -5.738567 -4.169388 0
M  V30 3 C 3.127809 -4.826858 -3.163706 0
M  V30 4 C 3.035577 -5.364685 -1.885519 0
M  V30 5 C 2.757900 -4.550806 -0.794504 0
M  V30 6 C 2.566419 -3.171940 -0.969307 0
M  V30 7 C 2.253709 -2.319715 0.175581 0
M  V30 8 O 2.186158 -2.927078 1.257765 0
M  V30 9 O 2.057776 -0.989391 0.033264 0
M  V30 10 C 1.736806 0.004292 0.960352 0
M  V30 11 C 0.381280 -0.241055 1.535998 0
M  V30 12 C -0.594424 -0.247637 0.369857 0
M  V30 13 O -0.199127 -1.248619 -0.488939 0
M  V30 14 C -0.063584 0.774897 2.568362 0
M  V30 15 C -1.139942 -0.016019 3.245532 0
M  V30 16 C -2.304739 0.303233 3.720838 0
M  V30 17 C -2.833489 1.657318 3.679357 0
M  V30 18 C -4.135855 1.845936 3.223374 0
M  V30 19 C -4.603407 3.139411 3.247294 0
M  V30 20 C -3.781179 4.137070 3.706870 0
M  V30 21 N -4.313453 5.436409 3.720148 0 CHG=1 VAL=4
M  V30 22 O -5.078014 6.390065 3.585084 0
M  V30 23 O -5.414516 6.201110 3.429896 0 CHG=-1 VAL=1
M  V30 24 C -2.498059 3.972985 4.159062 0
M  V30 25 C -2.014380 2.701840 4.143534 0
M  V30 26 C -0.562395 -1.382614 3.265135 0
M  V30 27 O -0.852743 -2.309303 4.083029 0
M  V30 28 O 0.376953 -1.479909 2.207033 0
M  V30 29 C 2.667583 -2.670491 -2.263680 0
M  V30 30 C 2.946649 -3.477588 -3.372400 0
M  V30 31 H 2.693732 -4.877230 -5.971399 0
M  V30 32 H 3.534094 -6.435300 -6.078392 0
M  V30 33 H 4.450533 -4.844579 -5.778948 0
M  V30 34 H 3.181748 -6.443285 -1.718638 0
M  V30 35 H 2.689214 -5.005797 0.204359 0
M  V30 36 H 1.730700 0.968192 0.391811 0
M  V30 37 H 2.542807 0.005918 1.725265 0
M  V30 38 H -1.613989 -0.388159 0.799401 0
M  V30 39 H -0.529817 0.731007 -0.133221 0
M  V30 40 H -0.483953 -1.089511 -1.440404 0
M  V30 41 H 0.772949 0.968844 3.257263 0
M  V30 42 H -0.400431 1.708786 2.133609 0
M  V30 43 H -2.917125 -0.472227 4.169637 0
M  V30 44 H -4.670916 0.962478 2.884557 0
M  V30 45 H -5.628353 3.246340 2.879008 0
M  V30 46 H -1.949829 4.846503 4.504946 0
M  V30 47 H -1.001632 2.511298 4.494496 0
M  V30 48 H 2.515434 -1.586585 -2.384582 0
M  V30 49 H 3.022367 -3.070023 -4.370718 0
M  V30 END ATOM
M  V30 BEGIN BOND
M  V30 1 1 1 2
M  V30 2 1 2 3
M  V30 3 2 3 4
M  V30 4 1 4 5
M  V30 5 2 5 6
M  V30 6 1 6 7
M  V30 7 2 7 8
M  V30 8 1 7 9
M  V30 9 1 9 10
M  V30 10 1 10 11
M  V30 11 1 11 12
M  V30 12 1 12 13
M  V30 13 1 11 14
M  V30 14 1 14 15
M  V30 15 2 15 16
M  V30 16 1 16 17
M  V30 17 2 17 18
M  V30 18 1 18 19
M  V30 19 2 19 20
M  V30 20 1 20 21
M  V30 21 2 21 22
M  V30 22 1 21 23
M  V30 23 1 20 24
M  V30 24 2 24 25
M  V30 25 1 15 26
M  V30 26 2 26 27
M  V30 27 1 26 28
M  V30 28 1 6 29
M  V30 29 2 29 30
M  V30 30 1 30 3
M  V30 31 1 28 11
M  V30 32 1 25 17
M  V30 33 1 1 31
M  V30 34 1 1 32
M  V30 35 1 1 33
M  V30 36 1 4 34
M  V30 37 1 5 35
M  V30 38 1 10 36
M  V30 39 1 10 37
M  V30 40 1 12 38
M  V30 41 1 12 39
M  V30 42 1 13 40
M  V30 43 1 14 41
M  V30 44 1 14 42
M  V30 45 1 16 43
M  V30 46 1 18 44
M  V30 47 1 19 45
M  V30 48 1 24 46
M  V30 49 1 25 47
M  V30 50 1 29 48
M  V30 51 1 30 49
M  V30 END BOND
M  V30 END CTAB
M  END
>  <Dataset>  (221) 
ChEMBL_Kinases

>  <Ligand_Instance>  (221) 
nan

>  <PDB_ID>  (221) 
nan

>  <Standardized_SMILES>  (221) 
COc1ccc(C(=O)OCC2(CO)C/C(=C\c3ccc([N+](=O)[O-])cc3)C(=O)O2)cc1

>  <Name>  (221) 
nan

>  <Pocket>  (221) 
nan

>  <ATP_Site>  (221) 
nan

>  <Peripheral>  (221) 
nan

>  <Num_H_Atoms_ProtBoundConf>  (221) 
nan

>  <Num_Resolved_Atoms>  (221) 
nan

>  <Num_Not_Resolved_Atoms>  (221) 
nan

$$$$
CHEMBL488667
     RDKit          3D

  0  0  0  0  0  0  0  0  0  0999 V3000
M  V30 BEGIN CTAB
M  V30 COUNTS 67 69 0 0 0
M  V30 BEGIN ATOM
M  V30 1 C 2.441883 0.786794 3.518010 0
M  V30 2 C 3.640211 -0.000940 3.062347 0
M  V30 3 C 4.757562 0.283698 4.079670 0
M  V30 4 C 4.069855 0.367686 1.690736 0
M  V30 5 C 3.071488 0.161773 0.592218 0
M  V30 6 C 2.685832 -1.280766 0.577366 0
M  V30 7 C 1.704384 -1.679447 -0.476184 0
M  V30 8 C 1.453472 -3.169794 -0.301820 0
M  V30 9 C 2.300424 -1.504747 -1.861667 0
M  V30 10 C 1.991166 1.132925 0.527204 0
M  V30 11 O 1.456695 2.171067 0.974277 0
M  V30 12 O 0.907729 1.194725 -0.322331 0
M  V30 13 C -0.095906 2.183054 -0.310530 0
M  V30 14 C -1.093485 1.860818 -1.404946 0
M  V30 15 C -0.464706 1.892838 -2.790675 0
M  V30 16 O 0.592669 1.018495 -2.921109 0
M  V30 17 C -1.711905 0.510577 -1.131923 0
M  V30 18 C -3.134814 0.824404 -0.942795 0
M  V30 19 C -4.122049 0.202265 -0.295088 0
M  V30 20 C -3.914287 -1.048760 0.416614 0
M  V30 21 C -4.373680 -1.134908 1.742203 0
M  V30 22 N -4.123923 -2.340754 2.254424 0
M  V30 23 C -4.402412 -2.900221 3.562423 0
M  V30 24 C -3.507661 -3.088582 1.323098 0
M  V30 25 C -3.019147 -4.382636 1.252462 0
M  V30 26 C -2.433085 -4.807640 0.058578 0
M  V30 27 C -2.318910 -3.991672 -1.059202 0
M  V30 28 C -2.812441 -2.708141 -0.963288 0
M  V30 29 C -3.380547 -2.299081 0.200797 0
M  V30 30 C -3.304992 2.087672 -1.651229 0
M  V30 31 O -4.356137 2.417638 -2.313795 0
M  V30 32 O -2.136551 2.807376 -1.452800 0
M  V30 33 H 1.546136 0.417401 3.007858 0
M  V30 34 H 2.284272 0.657995 4.629717 0
M  V30 35 H 2.574438 1.871938 3.388677 0
M  V30 36 H 3.451854 -1.100916 3.178588 0
M  V30 37 H 5.635626 -0.355153 3.909997 0
M  V30 38 H 4.312779 0.099521 5.071109 0
M  V30 39 H 4.998945 1.347090 3.994965 0
M  V30 40 H 4.948524 -0.303523 1.435987 0
M  V30 41 H 4.508716 1.399701 1.667506 0
M  V30 42 H 3.688490 0.331756 -0.363255 0
M  V30 43 H 2.323337 -1.609342 1.582430 0
M  V30 44 H 3.634027 -1.857641 0.398426 0
M  V30 45 H 0.747691 -1.163279 -0.453042 0
M  V30 46 H 1.053726 -3.328069 0.735570 0
M  V30 47 H 2.398200 -3.714469 -0.419927 0
M  V30 48 H 0.670888 -3.521340 -0.975957 0
M  V30 49 H 1.484336 -1.672691 -2.593295 0
M  V30 50 H 3.084361 -2.280129 -2.001164 0
M  V30 51 H 2.698012 -0.500403 -2.026252 0
M  V30 52 H 0.344731 3.200142 -0.468822 0
M  V30 53 H -0.624798 2.183260 0.653975 0
M  V30 54 H -1.295744 1.680427 -3.493430 0
M  V30 55 H -0.114547 2.907654 -3.048979 0
M  V30 56 H 1.397802 1.410911 -3.342038 0
M  V30 57 H -1.500921 -0.162158 -2.004033 0
M  V30 58 H -1.255919 0.084535 -0.191295 0
M  V30 59 H -5.149716 0.610111 -0.276093 0
M  V30 60 H -4.875289 -0.395351 2.369158 0
M  V30 61 H -5.127563 -2.205061 4.068529 0
M  V30 62 H -3.517578 -2.921852 4.232957 0
M  V30 63 H -4.951709 -3.869060 3.514567 0
M  V30 64 H -3.100141 -5.031257 2.113888 0
M  V30 65 H -2.038278 -5.817117 -0.032884 0
M  V30 66 H -1.862107 -4.352411 -1.962849 0
M  V30 67 H -2.728550 -2.107151 -1.828860 0
M  V30 END ATOM
M  V30 BEGIN BOND
M  V30 1 1 1 2
M  V30 2 1 2 3
M  V30 3 1 2 4
M  V30 4 1 4 5
M  V30 5 1 5 6
M  V30 6 1 6 7
M  V30 7 1 7 8
M  V30 8 1 7 9
M  V30 9 1 5 10
M  V30 10 2 10 11
M  V30 11 1 10 12
M  V30 12 1 12 13
M  V30 13 1 13 14
M  V30 14 1 14 15
M  V30 15 1 15 16
M  V30 16 1 14 17
M  V30 17 1 17 18
M  V30 18 2 18 19
M  V30 19 1 19 20
M  V30 20 2 20 21
M  V30 21 1 21 22
M  V30 22 1 22 23
M  V30 23 1 22 24
M  V30 24 2 24 25
M  V30 25 1 25 26
M  V30 26 2 26 27
M  V30 27 1 27 28
M  V30 28 2 28 29
M  V30 29 1 18 30
M  V30 30 2 30 31
M  V30 31 1 30 32
M  V30 32 1 32 14
M  V30 33 1 29 20
M  V30 34 1 29 24
M  V30 35 1 1 33
M  V30 36 1 1 34
M  V30 37 1 1 35
M  V30 38 1 2 36
M  V30 39 1 3 37
M  V30 40 1 3 38
M  V30 41 1 3 39
M  V30 42 1 4 40
M  V30 43 1 4 41
M  V30 44 1 5 42
M  V30 45 1 6 43
M  V30 46 1 6 44
M  V30 47 1 7 45
M  V30 48 1 8 46
M  V30 49 1 8 47
M  V30 50 1 8 48
M  V30 51 1 9 49
M  V30 52 1 9 50
M  V30 53 1 9 51
M  V30 54 1 13 52
M  V30 55 1 13 53
M  V30 56 1 15 54
M  V30 57 1 15 55
M  V30 58 1 16 56
M  V30 59 1 17 57
M  V30 60 1 17 58
M  V30 61 1 19 59
M  V30 62 1 21 60
M  V30 63 1 23 61
M  V30 64 1 23 62
M  V30 65 1 23 63
M  V30 66 1 25 64
M  V30 67 1 26 65
M  V30 68 1 27 66
M  V30 69 1 28 67
M  V30 END BOND
M  V30 END CTAB
M  END
>  <Dataset>  (222) 
ChEMBL_Kinases

>  <Ligand_Instance>  (222) 
nan

>  <PDB_ID>  (222) 
nan

>  <Standardized_SMILES>  (222) 
CC(C)CC(CC(C)C)C(=O)OCC1(CO)C/C(=C\c2cn(C)c3ccccc23)C(=O)O1

>  <Name>  (222) 
nan

>  <Pocket>  (222) 
nan

>  <ATP_Site>  (222) 
nan

>  <Peripheral>  (222) 
nan

>  <Num_H_Atoms_ProtBoundConf>  (222) 
nan

>  <Num_Resolved_Atoms>  (222) 
nan

>  <Num_Not_Resolved_Atoms>  (222) 
nan

$$$$
CHEMBL1612487
     RDKit          3D

  0  0  0  0  0  0  0  0  0  0999 V3000
M  V30 BEGIN CTAB
M  V30 COUNTS 27 28 0 0 0
M  V30 BEGIN ATOM
M  V30 1 C 1.622086 -3.549627 4.222466 0
M  V30 2 O 0.614065 -2.677622 3.759663 0
M  V30 3 C 0.804115 -1.759802 2.760058 0
M  V30 4 C 1.917855 -1.458406 2.011820 0
M  V30 5 C 1.998837 -0.509550 1.018818 0
M  V30 6 C 0.827037 0.208708 0.758117 0
M  V30 7 C 0.711377 1.285515 -0.255381 0
M  V30 8 C -0.311464 1.154420 -1.058253 0
M  V30 9 C -1.417180 0.191640 -1.233146 0
M  V30 10 C -1.545184 0.152704 -2.747799 0
M  V30 11 O -1.321093 1.508688 -3.141664 0
M  V30 12 C -0.575807 2.132964 -2.117492 0
M  V30 13 O -0.256211 3.364988 -2.238240 0
M  V30 14 C -0.342820 -0.050044 1.486334 0
M  V30 15 C -0.338880 -1.020955 2.468350 0
M  V30 16 H 1.313314 -4.632553 4.099712 0
M  V30 17 H 1.949755 -3.323135 5.257847 0
M  V30 18 H 2.561173 -3.494677 3.602972 0
M  V30 19 H 2.799808 -2.044543 2.247227 0
M  V30 20 H 2.879509 -0.291223 0.443070 0
M  V30 21 H 1.409814 2.108940 -0.327604 0
M  V30 22 H -1.230598 -0.808619 -0.800092 0
M  V30 23 H -2.310515 0.656757 -0.794106 0
M  V30 24 H -0.786424 -0.515224 -3.190562 0
M  V30 25 H -2.569972 -0.120302 -3.055064 0
M  V30 26 H -1.261689 0.512743 1.299401 0
M  V30 27 H -1.295248 -1.166145 3.001780 0
M  V30 END ATOM
M  V30 BEGIN BOND
M  V30 1 1 1 2
M  V30 2 1 2 3
M  V30 3 2 3 4
M  V30 4 1 4 5
M  V30 5 2 5 6
M  V30 6 1 6 7
M  V30 7 2 7 8
M  V30 8 1 8 9
M  V30 9 1 9 10
M  V30 10 1 10 11
M  V30 11 1 11 12
M  V30 12 2 12 13
M  V30 13 1 6 14
M  V30 14 2 14 15
M  V30 15 1 15 3
M  V30 16 1 12 8
M  V30 17 1 1 16
M  V30 18 1 1 17
M  V30 19 1 1 18
M  V30 20 1 4 19
M  V30 21 1 5 20
M  V30 22 1 7 21
M  V30 23 1 9 22
M  V30 24 1 9 23
M  V30 25 1 10 24
M  V30 26 1 10 25
M  V30 27 1 14 26
M  V30 28 1 15 27
M  V30 END BOND
M  V30 END CTAB
M  END
>  <Dataset>  (223) 
ChEMBL_Kinases

>  <Ligand_Instance>  (223) 
nan

>  <PDB_ID>  (223) 
nan

>  <Standardized_SMILES>  (223) 
COc1ccc(/C=C2\CCOC2=O)cc1

>  <Name>  (223) 
nan

>  <Pocket>  (223) 
nan

>  <ATP_Site>  (223) 
nan

>  <Peripheral>  (223) 
nan

>  <Num_H_Atoms_ProtBoundConf>  (223) 
nan

>  <Num_Resolved_Atoms>  (223) 
nan

>  <Num_Not_Resolved_Atoms>  (223) 
nan

$$$$
CHEMBL4790322
     RDKit          3D

  0  0  0  0  0  0  0  0  0  0999 V3000
M  V30 BEGIN CTAB
M  V30 COUNTS 58 62 0 0 0
M  V30 BEGIN ATOM
M  V30 1 C 5.221370 -2.940859 4.148543 0
M  V30 2 C 4.881183 -1.467221 4.040436 0
M  V30 3 C 4.060512 -0.968361 5.207237 0
M  V30 4 O 6.011195 -0.665196 3.878087 0
M  V30 5 C 4.036260 -1.273784 2.811850 0
M  V30 6 C 3.598589 -0.001649 2.500644 0
M  V30 7 C 2.818642 0.258580 1.389458 0
M  V30 8 N 2.339262 1.550729 1.021533 0
M  V30 9 C 1.544840 1.704562 -0.145884 0
M  V30 10 C 0.196292 1.564166 0.088824 0
M  V30 11 C -0.721754 1.687012 -0.956116 0
M  V30 12 O -2.085550 1.601205 -1.028899 0
M  V30 13 C -2.883245 0.536739 -1.332943 0
M  V30 14 C -3.633198 0.877154 -2.470642 0
M  V30 15 N -4.450758 -0.165876 -2.809430 0
M  V30 16 C -5.438421 -0.484963 -3.818499 0
M  V30 17 C -5.263708 -0.112349 -5.237442 0
M  V30 18 C -5.019504 -1.545573 -4.827884 0
M  V30 19 N -4.235274 -1.143010 -1.922301 0
M  V30 20 C -3.305947 -0.738220 -1.040021 0
M  V30 21 C -2.713410 -1.373370 0.122339 0
M  V30 22 C -3.719098 -1.898517 0.944015 0
M  V30 23 C -3.418804 -2.576190 2.125397 0
M  V30 24 C -2.094522 -2.725095 2.480283 0
M  V30 25 C -1.675992 -3.403842 3.673300 0
M  V30 26 N -1.333227 -3.968876 4.643017 0
M  V30 27 C -1.105263 -2.207645 1.670064 0
M  V30 28 C -1.403216 -1.537850 0.501817 0
M  V30 29 C -0.204797 1.955384 -2.229390 0
M  V30 30 C 1.172021 2.093750 -2.441605 0
M  V30 31 N 1.995056 1.962098 -1.386135 0
M  V30 32 C 2.518336 -0.853646 0.625250 0
M  V30 33 C 2.939595 -2.136987 0.908456 0
M  V30 34 N 3.704230 -2.322715 2.017146 0
M  V30 35 H 5.073176 -3.458072 3.172828 0
M  V30 36 H 4.586572 -3.465455 4.892797 0
M  V30 37 H 6.282380 -3.103640 4.474668 0
M  V30 38 H 2.994960 -0.740538 4.917761 0
M  V30 39 H 4.492395 -0.038813 5.636481 0
M  V30 40 H 3.967196 -1.727263 6.018216 0
M  V30 41 H 6.851561 -1.178607 4.057954 0
M  V30 42 H 3.861964 0.854820 3.137700 0
M  V30 43 H 2.603365 2.335513 1.644297 0
M  V30 44 H -0.343954 1.357658 1.011756 0
M  V30 45 H -3.807235 1.686089 -3.200067 0
M  V30 46 H -6.473956 -0.629649 -3.404102 0
M  V30 47 H -4.431253 0.534717 -5.543454 0
M  V30 48 H -6.227313 0.038347 -5.805855 0
M  V30 49 H -5.780840 -2.317569 -5.124431 0
M  V30 50 H -3.970315 -1.935987 -4.797170 0
M  V30 51 H -4.800252 -1.852629 0.783753 0
M  V30 52 H -4.142593 -2.996170 2.788540 0
M  V30 53 H -0.033594 -2.265530 1.850114 0
M  V30 54 H -0.728180 -1.105949 -0.207405 0
M  V30 55 H -0.755916 2.085074 -3.165351 0
M  V30 56 H 1.618623 2.300490 -3.402795 0
M  V30 57 H 1.910087 -0.725465 -0.262166 0
M  V30 58 H 2.666032 -2.968809 0.262690 0
M  V30 END ATOM
M  V30 BEGIN BOND
M  V30 1 1 1 2
M  V30 2 1 2 3
M  V30 3 1 2 4
M  V30 4 1 2 5
M  V30 5 2 5 6
M  V30 6 1 6 7
M  V30 7 1 7 8
M  V30 8 1 8 9
M  V30 9 2 9 10
M  V30 10 1 10 11
M  V30 11 1 11 12
M  V30 12 1 12 13
M  V30 13 2 13 14
M  V30 14 1 14 15
M  V30 15 1 15 16
M  V30 16 1 16 17
M  V30 17 1 17 18
M  V30 18 1 15 19
M  V30 19 2 19 20
M  V30 20 1 20 21
M  V30 21 2 21 22
M  V30 22 1 22 23
M  V30 23 2 23 24
M  V30 24 1 24 25
M  V30 25 3 25 26
M  V30 26 1 24 27
M  V30 27 2 27 28
M  V30 28 2 11 29
M  V30 29 1 29 30
M  V30 30 2 30 31
M  V30 31 2 7 32
M  V30 32 1 32 33
M  V30 33 2 33 34
M  V30 34 1 34 5
M  V30 35 1 31 9
M  V30 36 1 20 13
M  V30 37 1 28 21
M  V30 38 1 18 16
M  V30 39 1 1 35
M  V30 40 1 1 36
M  V30 41 1 1 37
M  V30 42 1 3 38
M  V30 43 1 3 39
M  V30 44 1 3 40
M  V30 45 1 4 41
M  V30 46 1 6 42
M  V30 47 1 8 43
M  V30 48 1 10 44
M  V30 49 1 14 45
M  V30 50 1 16 46
M  V30 51 1 17 47
M  V30 52 1 17 48
M  V30 53 1 18 49
M  V30 54 1 18 50
M  V30 55 1 22 51
M  V30 56 1 23 52
M  V30 57 1 27 53
M  V30 58 1 28 54
M  V30 59 1 29 55
M  V30 60 1 30 56
M  V30 61 1 32 57
M  V30 62 1 33 58
M  V30 END BOND
M  V30 END CTAB
M  END
>  <Dataset>  (224) 
ChEMBL_Kinases

>  <Ligand_Instance>  (224) 
nan

>  <PDB_ID>  (224) 
nan

>  <Standardized_SMILES>  (224) 
CC(C)(O)c1cc(Nc2cc(Oc3cn(C4CC4)nc3-c3ccc(C#N)cc3)ccn2)ccn1

>  <Name>  (224) 
nan

>  <Pocket>  (224) 
nan

>  <ATP_Site>  (224) 
nan

>  <Peripheral>  (224) 
nan

>  <Num_H_Atoms_ProtBoundConf>  (224) 
nan

>  <Num_Resolved_Atoms>  (224) 
nan

>  <Num_Not_Resolved_Atoms>  (224) 
nan

$$$$
CHEMBL4879010
     RDKit          3D

  0  0  0  0  0  0  0  0  0  0999 V3000
M  V30 BEGIN CTAB
M  V30 COUNTS 54 58 0 0 0
M  V30 BEGIN ATOM
M  V30 1 N 3.505890 -5.084670 0.145976 0
M  V30 2 C 3.658993 -3.943695 0.256587 0
M  V30 3 C 3.871286 -2.532481 0.402153 0
M  V30 4 C 4.627945 -2.102905 1.462370 0
M  V30 5 C 4.887847 -0.788689 1.690752 0
M  V30 6 C 4.391111 0.184274 0.848628 0
M  V30 7 N 4.552631 1.587074 0.859815 0
M  V30 8 C 3.813809 2.781522 0.714564 0
M  V30 9 N 4.512609 3.921711 0.585307 0
M  V30 10 C 3.905068 5.100661 0.454218 0
M  V30 11 N 2.562341 5.164996 0.449804 0
M  V30 12 C 1.829149 4.066737 0.575236 0
M  V30 13 C 0.441112 4.149361 0.583181 0
M  V30 14 C -0.303984 2.998853 0.729370 0
M  V30 15 C 0.357155 1.802390 0.863247 0
M  V30 16 C -0.446100 0.597472 1.036780 0
M  V30 17 C 0.110763 -0.653476 1.205201 0
M  V30 18 C -0.562941 -1.846238 1.368764 0
M  V30 19 C -1.943110 -1.783025 1.363961 0
M  V30 20 C -2.717330 -3.007451 1.532800 0
M  V30 21 O -2.563012 -3.485283 2.698466 0
M  V30 22 N -3.508640 -3.507310 0.457588 0
M  V30 23 C -3.583671 -2.841844 -0.829086 0
M  V30 24 C -5.043008 -2.503830 -1.086272 0
M  V30 25 N -5.865309 -3.668744 -0.934019 0
M  V30 26 C -5.147032 -4.874407 -0.612768 0
M  V30 27 C -4.276231 -4.722897 0.627952 0
M  V30 28 C -2.573028 -0.566855 1.200906 0
M  V30 29 C -1.824152 0.585511 1.042232 0
M  V30 30 N 1.699170 1.733492 0.853378 0
M  V30 31 C 2.438087 2.839956 0.711838 0
M  V30 32 C 3.624520 -0.224836 -0.229716 0
M  V30 33 C 3.359399 -1.577954 -0.461008 0
M  V30 34 H 5.071099 -2.777342 2.191973 0
M  V30 35 H 5.479062 -0.344665 2.506716 0
M  V30 36 H 5.588030 1.651790 1.041404 0
M  V30 37 H 4.523433 5.991381 0.353140 0
M  V30 38 H 0.017774 5.147711 0.470122 0
M  V30 39 H -1.347562 3.180800 0.721221 0
M  V30 40 H 1.186797 -0.740194 1.220306 0
M  V30 41 H -0.037816 -2.783235 1.493995 0
M  V30 42 H -3.282348 -3.547095 -1.648711 0
M  V30 43 H -2.943670 -1.960807 -0.825757 0
M  V30 44 H -5.403684 -1.724628 -0.384528 0
M  V30 45 H -5.132759 -2.030284 -2.105950 0
M  V30 46 H -6.584356 -3.524751 -0.191633 0
M  V30 47 H -5.917836 -5.671775 -0.488213 0
M  V30 48 H -4.535301 -5.171624 -1.481246 0
M  V30 49 H -4.871742 -4.719112 1.549092 0
M  V30 50 H -3.573322 -5.589530 0.601181 0
M  V30 51 H -3.664912 -0.519620 1.197213 0
M  V30 52 H -2.377318 1.489577 0.920616 0
M  V30 53 H 3.129081 0.335881 -1.035136 0
M  V30 54 H 2.776970 -2.013352 -1.265311 0
M  V30 END ATOM
M  V30 BEGIN BOND
M  V30 1 3 1 2
M  V30 2 1 2 3
M  V30 3 2 3 4
M  V30 4 1 4 5
M  V30 5 2 5 6
M  V30 6 1 6 7
M  V30 7 1 7 8
M  V30 8 2 8 9
M  V30 9 1 9 10
M  V30 10 2 10 11
M  V30 11 1 11 12
M  V30 12 2 12 13
M  V30 13 1 13 14
M  V30 14 2 14 15
M  V30 15 1 15 16
M  V30 16 2 16 17
M  V30 17 1 17 18
M  V30 18 2 18 19
M  V30 19 1 19 20
M  V30 20 2 20 21
M  V30 21 1 20 22
M  V30 22 1 22 23
M  V30 23 1 23 24
M  V30 24 1 24 25
M  V30 25 1 25 26
M  V30 26 1 26 27
M  V30 27 1 19 28
M  V30 28 2 28 29
M  V30 29 1 15 30
M  V30 30 2 30 31
M  V30 31 1 6 32
M  V30 32 2 32 33
M  V30 33 1 33 3
M  V30 34 1 31 8
M  V30 35 1 31 12
M  V30 36 1 29 16
M  V30 37 1 27 22
M  V30 38 1 4 34
M  V30 39 1 5 35
M  V30 40 1 7 36
M  V30 41 1 10 37
M  V30 42 1 13 38
M  V30 43 1 14 39
M  V30 44 1 17 40
M  V30 45 1 18 41
M  V30 46 1 23 42
M  V30 47 1 23 43
M  V30 48 1 24 44
M  V30 49 1 24 45
M  V30 50 1 25 46
M  V30 51 1 26 47
M  V30 52 1 26 48
M  V30 53 1 27 49
M  V30 54 1 27 50
M  V30 55 1 28 51
M  V30 56 1 29 52
M  V30 57 1 32 53
M  V30 58 1 33 54
M  V30 END BOND
M  V30 END CTAB
M  END
>  <Dataset>  (225) 
ChEMBL_Kinases

>  <Ligand_Instance>  (225) 
nan

>  <PDB_ID>  (225) 
nan

>  <Standardized_SMILES>  (225) 
N#Cc1ccc(Nc2ncnc3ccc(-c4ccc(C(=O)N5CCNCC5)cc4)nc23)cc1

>  <Name>  (225) 
nan

>  <Pocket>  (225) 
nan

>  <ATP_Site>  (225) 
nan

>  <Peripheral>  (225) 
nan

>  <Num_H_Atoms_ProtBoundConf>  (225) 
nan

>  <Num_Resolved_Atoms>  (225) 
nan

>  <Num_Not_Resolved_Atoms>  (225) 
nan

$$$$
CHEMBL4790632
     RDKit          3D

  0  0  0  0  0  0  0  0  0  0999 V3000
M  V30 BEGIN CTAB
M  V30 COUNTS 42 45 0 0 0
M  V30 BEGIN ATOM
M  V30 1 N 3.176254 -6.402520 -1.251652 0
M  V30 2 C 2.238411 -5.464298 -1.708596 0
M  V30 3 O 1.230467 -5.857344 -2.383363 0
M  V30 4 C 2.477623 -4.054207 -1.376244 0
M  V30 5 C 3.578295 -3.640171 -0.639534 0
M  V30 6 C 3.714937 -2.306055 -0.380838 0
M  V30 7 C 2.803184 -1.372312 -0.824835 0
M  V30 8 C 1.698370 -1.796801 -1.565559 0
M  V30 9 C 0.812683 -0.677269 -1.971209 0
M  V30 10 N -0.185570 -0.452196 -0.943037 0
M  V30 11 C -0.023861 0.386675 0.100019 0
M  V30 12 C -1.032047 0.539066 1.035202 0
M  V30 13 C -0.886294 1.439804 2.175242 0
M  V30 14 C 0.391722 1.591474 2.676085 0
M  V30 15 C 0.571063 2.439132 3.760403 0
M  V30 16 C -0.457302 3.138906 4.366018 0
M  V30 17 C -0.548685 4.018887 5.423184 0
M  V30 18 N -1.844811 4.359198 5.521782 0
M  V30 19 N -2.549133 3.727252 4.573427 0
M  V30 20 C -1.729587 2.944710 3.814751 0
M  V30 21 C -1.956840 2.111898 2.736756 0
M  V30 22 C -2.245686 -0.150542 0.954364 0
M  V30 23 C -2.385179 -1.002191 -0.122223 0
M  V30 24 C -1.352875 -1.116904 -1.022716 0
M  V30 25 O -1.597776 -1.924060 -1.962137 0
M  V30 26 C 1.555976 -3.136007 -1.828343 0
M  V30 27 H 3.870457 -7.048358 -1.649753 0
M  V30 28 H 3.102006 -6.400512 -0.194128 0
M  V30 29 H 4.291382 -4.365877 -0.291430 0
M  V30 30 H 4.584996 -1.984423 0.201375 0
M  V30 31 H 3.006559 -0.340471 -0.563857 0
M  V30 32 H 0.300600 -1.003759 -2.904211 0
M  V30 33 H 1.383825 0.237051 -2.217498 0
M  V30 34 H 0.897453 0.922910 0.178757 0
M  V30 35 H 1.258686 1.078693 2.260045 0
M  V30 36 H 1.586712 2.541190 4.136017 0
M  V30 37 H 0.292907 4.358319 6.046789 0
M  V30 38 H -3.581566 3.826111 4.441384 0
M  V30 39 H -2.941337 1.976949 2.328849 0
M  V30 40 H -3.009078 -0.007524 1.701333 0
M  V30 41 H -3.313668 -1.537536 -0.194186 0
M  V30 42 H 0.681618 -3.389433 -2.404719 0
M  V30 END ATOM
M  V30 BEGIN BOND
M  V30 1 1 1 2
M  V30 2 2 2 3
M  V30 3 1 2 4
M  V30 4 2 4 5
M  V30 5 1 5 6
M  V30 6 2 6 7
M  V30 7 1 7 8
M  V30 8 1 8 9
M  V30 9 1 9 10
M  V30 10 1 10 11
M  V30 11 2 11 12
M  V30 12 1 12 13
M  V30 13 2 13 14
M  V30 14 1 14 15
M  V30 15 2 15 16
M  V30 16 1 16 17
M  V30 17 2 17 18
M  V30 18 1 18 19
M  V30 19 1 19 20
M  V30 20 2 20 21
M  V30 21 1 12 22
M  V30 22 2 22 23
M  V30 23 1 23 24
M  V30 24 2 24 25
M  V30 25 2 8 26
M  V30 26 1 26 4
M  V30 27 1 24 10
M  V30 28 1 21 13
M  V30 29 1 20 16
M  V30 30 1 1 27
M  V30 31 1 1 28
M  V30 32 1 5 29
M  V30 33 1 6 30
M  V30 34 1 7 31
M  V30 35 1 9 32
M  V30 36 1 9 33
M  V30 37 1 11 34
M  V30 38 1 14 35
M  V30 39 1 15 36
M  V30 40 1 17 37
M  V30 41 1 19 38
M  V30 42 1 21 39
M  V30 43 1 22 40
M  V30 44 1 23 41
M  V30 45 1 26 42
M  V30 END BOND
M  V30 END CTAB
M  END
>  <Dataset>  (226) 
ChEMBL_Kinases

>  <Ligand_Instance>  (226) 
nan

>  <PDB_ID>  (226) 
nan

>  <Standardized_SMILES>  (226) 
NC(=O)c1cccc(Cn2cc(-c3ccc4cn[nH]c4c3)ccc2=O)c1

>  <Name>  (226) 
nan

>  <Pocket>  (226) 
nan

>  <ATP_Site>  (226) 
nan

>  <Peripheral>  (226) 
nan

>  <Num_H_Atoms_ProtBoundConf>  (226) 
nan

>  <Num_Resolved_Atoms>  (226) 
nan

>  <Num_Not_Resolved_Atoms>  (226) 
nan

$$$$
CHEMBL488271
     RDKit          3D

  0  0  0  0  0  0  0  0  0  0999 V3000
M  V30 BEGIN CTAB
M  V30 COUNTS 54 59 0 0 0
M  V30 BEGIN ATOM
M  V30 1 C 3.166717 0.999067 3.834066 0
M  V30 2 N 3.279420 0.508298 2.452107 0
M  V30 3 C 2.955767 -0.858668 2.116508 0
M  V30 4 N 2.097652 -1.472456 2.843557 0
M  V30 5 S 3.805237 -1.514582 0.717586 0
M  V30 6 C 4.533141 -0.270354 -0.304921 0
M  V30 7 C 3.772175 0.360003 -1.374450 0
M  V30 8 C 2.521311 1.090301 -1.331623 0
M  V30 9 N 1.307724 0.435786 -0.917023 0
M  V30 10 C 0.743891 -0.435244 -1.838092 0
M  V30 11 O 1.276149 -0.708230 -2.976836 0
M  V30 12 C -0.447395 -0.954691 -1.359711 0
M  V30 13 C -0.635127 -0.393112 -0.125080 0
M  V30 14 C 0.420598 0.428334 0.125090 0
M  V30 15 O 0.816151 1.167935 1.019234 0
M  V30 16 N -1.629347 -0.580281 0.729461 0
M  V30 17 C -1.939348 0.285189 1.681626 0
M  V30 18 C -1.621613 1.535785 2.091089 0
M  V30 19 C -2.167918 2.233986 3.138244 0
M  V30 20 C -3.171060 1.620422 3.889440 0
M  V30 21 C -3.543856 0.344546 3.518319 0
M  V30 22 C -2.934202 -0.303831 2.431522 0
M  V30 23 C -3.241073 -1.568116 1.898473 0
M  V30 24 C -2.385903 -1.683957 0.819418 0
M  V30 25 C -2.523001 -2.746045 -0.057829 0
M  V30 26 C -3.381980 -3.693595 0.375788 0
M  V30 27 C -3.727499 -4.684939 -0.518416 0
M  V30 28 C -3.216287 -4.716737 -1.818637 0
M  V30 29 C -2.337503 -3.733131 -2.224854 0
M  V30 30 C -1.674081 -3.496708 -3.406753 0
M  V30 31 C -0.899193 -2.360520 -3.258969 0
M  V30 32 N -1.098025 -1.930088 -2.010108 0
M  V30 33 C -1.978752 -2.737219 -1.344766 0
M  V30 34 H 2.249970 1.646909 3.838185 0
M  V30 35 H 3.080121 0.160466 4.534715 0
M  V30 36 H 4.040689 1.647009 4.022820 0
M  V30 37 H 3.606358 1.231633 1.763099 0
M  V30 38 H 1.654261 -0.993713 3.646727 0
M  V30 39 H 5.525404 -0.638129 -0.761307 0
M  V30 40 H 4.921569 0.604674 0.351696 0
M  V30 41 H 4.581332 1.041047 -1.906034 0
M  V30 42 H 3.724588 -0.433890 -2.249529 0
M  V30 43 H 2.612980 2.086390 -0.780888 0
M  V30 44 H 2.325066 1.473064 -2.392677 0
M  V30 45 H -0.947765 2.172226 1.577232 0
M  V30 46 H -1.912346 3.231214 3.466046 0
M  V30 47 H -3.642932 2.108904 4.726899 0
M  V30 48 H -4.331479 -0.103042 4.126956 0
M  V30 49 H -4.004992 -2.187749 2.346657 0
M  V30 50 H -3.802110 -3.742343 1.335740 0
M  V30 51 H -4.410978 -5.489275 -0.262556 0
M  V30 52 H -3.518012 -5.514459 -2.491079 0
M  V30 53 H -1.742062 -4.095250 -4.307275 0
M  V30 54 H -0.261472 -1.896289 -3.990185 0
M  V30 END ATOM
M  V30 BEGIN BOND
M  V30 1 1 1 2
M  V30 2 1 2 3
M  V30 3 2 3 4 CFG=2
M  V30 4 1 3 5
M  V30 5 1 5 6
M  V30 6 1 6 7
M  V30 7 1 7 8
M  V30 8 1 8 9
M  V30 9 1 9 10
M  V30 10 2 10 11
M  V30 11 1 10 12
M  V30 12 2 12 13
M  V30 13 1 13 14
M  V30 14 2 14 15
M  V30 15 1 13 16
M  V30 16 1 16 17
M  V30 17 2 17 18
M  V30 18 1 18 19
M  V30 19 2 19 20
M  V30 20 1 20 21
M  V30 21 2 21 22
M  V30 22 1 22 23
M  V30 23 2 23 24
M  V30 24 1 24 25
M  V30 25 1 25 26
M  V30 26 2 26 27
M  V30 27 1 27 28
M  V30 28 2 28 29
M  V30 29 1 29 30
M  V30 30 2 30 31
M  V30 31 1 31 32
M  V30 32 1 32 33
M  V30 33 1 14 9
M  V30 34 1 24 16
M  V30 35 2 33 25
M  V30 36 1 32 12
M  V30 37 1 22 17
M  V30 38 1 33 29
M  V30 39 1 1 34
M  V30 40 1 1 35
M  V30 41 1 1 36
M  V30 42 1 2 37
M  V30 43 1 4 38
M  V30 44 1 6 39
M  V30 45 1 6 40
M  V30 46 1 7 41
M  V30 47 1 7 42
M  V30 48 1 8 43
M  V30 49 1 8 44
M  V30 50 1 18 45
M  V30 51 1 19 46
M  V30 52 1 20 47
M  V30 53 1 21 48
M  V30 54 1 23 49
M  V30 55 1 26 50
M  V30 56 1 27 51
M  V30 57 1 28 52
M  V30 58 1 30 53
M  V30 59 1 31 54
M  V30 END BOND
M  V30 END CTAB
M  END
>  <Dataset>  (227) 
ChEMBL_Kinases

>  <Ligand_Instance>  (227) 
nan

>  <PDB_ID>  (227) 
nan

>  <Standardized_SMILES>  (227) 
CNC(=N)SCCCn1c(=O)c2c(c1=O)n1c3ccccc3cc1c1cccc3ccn2c31

>  <Name>  (227) 
nan

>  <Pocket>  (227) 
nan

>  <ATP_Site>  (227) 
nan

>  <Peripheral>  (227) 
nan

>  <Num_H_Atoms_ProtBoundConf>  (227) 
nan

>  <Num_Resolved_Atoms>  (227) 
nan

>  <Num_Not_Resolved_Atoms>  (227) 
nan

$$$$
CHEMBL160937
     RDKit          3D

  0  0  0  0  0  0  0  0  0  0999 V3000
M  V30 BEGIN CTAB
M  V30 COUNTS 33 35 0 0 0
M  V30 BEGIN ATOM
M  V30 1 O 1.717100 -0.340480 4.799242 0
M  V30 2 C 1.961082 -0.627412 3.585276 0
M  V30 3 N 3.182155 -1.228309 3.140029 0
M  V30 4 C 3.019876 -1.368932 1.719328 0
M  V30 5 O 3.993962 -1.887741 1.086346 0
M  V30 6 C 1.690146 -0.844237 1.322104 0
M  V30 7 C 1.382699 -1.011064 -0.089842 0
M  V30 8 C 0.338544 -1.790620 -0.623373 0
M  V30 9 C 0.001212 -1.944288 -1.938259 0
M  V30 10 C 0.792532 -1.242662 -2.825253 0
M  V30 11 C 1.843761 -0.446266 -2.424978 0
M  V30 12 C 2.118352 -0.344493 -1.071589 0
M  V30 13 Cl 3.437959 0.684019 -0.569706 0
M  V30 14 C 1.112510 -0.426009 2.428943 0
M  V30 15 N -0.168719 0.168871 2.410833 0
M  V30 16 C -1.317343 0.017800 1.617859 0
M  V30 17 C -2.074515 -1.110267 1.915360 0
M  V30 18 C -3.222833 -1.304128 1.169364 0
M  V30 19 C -3.568419 -0.385150 0.172703 0
M  V30 20 C -2.773320 0.724831 -0.081798 0
M  V30 21 O -3.135317 1.643839 -1.085904 0
M  V30 22 C -1.597334 0.972884 0.641340 0
M  V30 23 H 4.001158 -1.491418 3.761611 0
M  V30 24 H -0.236861 -2.330308 0.125880 0
M  V30 25 H -0.826726 -2.571848 -2.219803 0
M  V30 26 H 0.525847 -1.359967 -3.879875 0
M  V30 27 H 2.409124 0.066219 -3.166060 0
M  V30 28 H -0.338760 0.896605 3.143664 0
M  V30 29 H -1.762623 -1.791517 2.686297 0
M  V30 30 H -3.814497 -2.179823 1.393877 0
M  V30 31 H -4.486403 -0.547119 -0.423642 0
M  V30 32 H -3.312891 2.594937 -0.764257 0
M  V30 33 H -0.950480 1.821981 0.479391 0
M  V30 END ATOM
M  V30 BEGIN BOND
M  V30 1 2 1 2
M  V30 2 1 2 3
M  V30 3 1 3 4
M  V30 4 2 4 5
M  V30 5 1 4 6
M  V30 6 1 6 7
M  V30 7 2 7 8
M  V30 8 1 8 9
M  V30 9 2 9 10
M  V30 10 1 10 11
M  V30 11 2 11 12
M  V30 12 1 12 13
M  V30 13 2 6 14
M  V30 14 1 14 15
M  V30 15 1 15 16
M  V30 16 2 16 17
M  V30 17 1 17 18
M  V30 18 2 18 19
M  V30 19 1 19 20
M  V30 20 1 20 21
M  V30 21 2 20 22
M  V30 22 1 14 2
M  V30 23 1 22 16
M  V30 24 1 12 7
M  V30 25 1 3 23
M  V30 26 1 8 24
M  V30 27 1 9 25
M  V30 28 1 10 26
M  V30 29 1 11 27
M  V30 30 1 15 28
M  V30 31 1 17 29
M  V30 32 1 18 30
M  V30 33 1 19 31
M  V30 34 1 21 32
M  V30 35 1 22 33
M  V30 END BOND
M  V30 END CTAB
M  END
>  <Dataset>  (228) 
ChEMBL_Kinases

>  <Ligand_Instance>  (228) 
nan

>  <PDB_ID>  (228) 
nan

>  <Standardized_SMILES>  (228) 
O=C1NC(=O)C(c2ccccc2Cl)=C1Nc1cccc(O)c1

>  <Name>  (228) 
nan

>  <Pocket>  (228) 
nan

>  <ATP_Site>  (228) 
nan

>  <Peripheral>  (228) 
nan

>  <Num_H_Atoms_ProtBoundConf>  (228) 
nan

>  <Num_Resolved_Atoms>  (228) 
nan

>  <Num_Not_Resolved_Atoms>  (228) 
nan

$$$$
CHEMBL143134
     RDKit          3D

  0  0  0  0  0  0  0  0  0  0999 V3000
M  V30 BEGIN CTAB
M  V30 COUNTS 72 76 0 0 0
M  V30 BEGIN ATOM
M  V30 1 C 4.407367 -2.038960 4.748406 0
M  V30 2 C 3.702266 -1.069891 3.887944 0
M  V30 3 C 2.545696 -1.446615 3.230012 0
M  V30 4 C 1.911268 -0.516044 2.433225 0
M  V30 5 C 2.401102 0.761676 2.283299 0
M  V30 6 N 1.838542 1.802361 1.494252 0
M  V30 7 N 1.381845 2.876019 2.117989 0
M  V30 8 C 0.887274 3.753502 1.217547 0
M  V30 9 C 0.258006 5.097822 1.331275 0
M  V30 10 C 0.194603 5.494279 2.793875 0
M  V30 11 C -1.194405 5.019186 0.849057 0
M  V30 12 C 0.977323 6.165996 0.566333 0
M  V30 13 C 1.041898 3.197568 -0.056857 0
M  V30 14 C 1.643370 1.971830 0.161931 0
M  V30 15 N 2.056641 0.935914 -0.756583 0
M  V30 16 C 1.109909 -0.072003 -1.073889 0
M  V30 17 O -0.050109 -0.020640 -0.541287 0
M  V30 18 N 1.288818 -1.191167 -1.952045 0
M  V30 19 C 0.161131 -2.057754 -2.090799 0
M  V30 20 C 0.086641 -3.100325 -1.204927 0
M  V30 21 C -1.012170 -3.907614 -1.374012 0
M  V30 22 C -2.023339 -3.801418 -2.300018 0
M  V30 23 O -3.123041 -4.466123 -2.602871 0
M  V30 24 C -3.871302 -5.524426 -2.237611 0
M  V30 25 C -4.537273 -5.550727 -0.891330 0
M  V30 26 C -3.680747 -5.462845 0.281056 0
M  V30 27 C -3.047643 -6.514914 0.923905 0
M  V30 28 C -2.288572 -6.260663 2.045669 0
M  V30 29 N -2.121674 -5.039029 2.562250 0
M  V30 30 C -2.699042 -3.971989 2.000889 0
M  V30 31 C -3.469019 -4.208804 0.867898 0
M  V30 32 C -1.863771 -2.707210 -3.163341 0
M  V30 33 C -2.732400 -2.360301 -4.191770 0
M  V30 34 C -2.582010 -1.289194 -5.041513 0
M  V30 35 C -1.476663 -0.486480 -4.863335 0
M  V30 36 C -0.565683 -0.740432 -3.884621 0
M  V30 37 C -0.777846 -1.826786 -3.071697 0
M  V30 38 C 3.566541 1.110871 2.957918 0
M  V30 39 C 4.240699 0.200409 3.774556 0
M  V30 40 H 4.611796 -1.632367 5.758835 0
M  V30 41 H 5.401208 -2.271072 4.270740 0
M  V30 42 H 3.876699 -2.989227 4.868133 0
M  V30 43 H 2.111974 -2.429911 3.306069 0
M  V30 44 H 1.006936 -0.742354 1.892565 0
M  V30 45 H -0.612110 4.963868 3.348771 0
M  V30 46 H 1.138834 5.249229 3.329648 0
M  V30 47 H 0.058752 6.603776 2.877915 0
M  V30 48 H -1.899240 4.959129 1.704880 0
M  V30 49 H -1.325329 4.064950 0.266076 0
M  V30 50 H -1.421962 5.916816 0.267497 0
M  V30 51 H 1.514009 6.828891 1.255098 0
M  V30 52 H 0.214483 6.821242 0.059116 0
M  V30 53 H 1.624772 5.748115 -0.232451 0
M  V30 54 H 0.798280 3.529038 -1.056696 0
M  V30 55 H 2.968912 0.773710 -1.262625 0
M  V30 56 H 2.244440 -1.242947 -2.397546 0
M  V30 57 H 0.781238 -3.342458 -0.414482 0
M  V30 58 H -1.131263 -4.758835 -0.720687 0
M  V30 59 H -4.650217 -5.794832 -3.041182 0
M  V30 60 H -3.217037 -6.471303 -2.295228 0
M  V30 61 H -5.096037 -6.541636 -0.842660 0
M  V30 62 H -5.353500 -4.785714 -0.864352 0
M  V30 63 H -3.195713 -7.501920 0.487992 0
M  V30 64 H -1.798700 -7.083810 2.541054 0
M  V30 65 H -2.608813 -2.956961 2.362206 0
M  V30 66 H -3.943570 -3.342101 0.404153 0
M  V30 67 H -3.599755 -2.992257 -4.329767 0
M  V30 68 H -3.323720 -1.118531 -5.805528 0
M  V30 69 H -1.328041 0.358914 -5.509364 0
M  V30 70 H 0.283099 -0.103729 -3.766348 0
M  V30 71 H 4.024091 2.107767 2.893288 0
M  V30 72 H 5.143527 0.503309 4.284733 0
M  V30 END ATOM
M  V30 BEGIN BOND
M  V30 1 1 1 2
M  V30 2 2 2 3
M  V30 3 1 3 4
M  V30 4 2 4 5
M  V30 5 1 5 6
M  V30 6 1 6 7
M  V30 7 2 7 8
M  V30 8 1 8 9
M  V30 9 1 9 10
M  V30 10 1 9 11
M  V30 11 1 9 12
M  V30 12 1 8 13
M  V30 13 2 13 14
M  V30 14 1 14 15
M  V30 15 1 15 16
M  V30 16 2 16 17
M  V30 17 1 16 18
M  V30 18 1 18 19
M  V30 19 2 19 20
M  V30 20 1 20 21
M  V30 21 2 21 22
M  V30 22 1 22 23
M  V30 23 1 23 24
M  V30 24 1 24 25
M  V30 25 1 25 26
M  V30 26 2 26 27
M  V30 27 1 27 28
M  V30 28 2 28 29
M  V30 29 1 29 30
M  V30 30 2 30 31
M  V30 31 1 22 32
M  V30 32 2 32 33
M  V30 33 1 33 34
M  V30 34 2 34 35
M  V30 35 1 35 36
M  V30 36 2 36 37
M  V30 37 1 5 38
M  V30 38 2 38 39
M  V30 39 1 39 2
M  V30 40 1 14 6
M  V30 41 1 37 19
M  V30 42 1 31 26
M  V30 43 1 37 32
M  V30 44 1 1 40
M  V30 45 1 1 41
M  V30 46 1 1 42
M  V30 47 1 3 43
M  V30 48 1 4 44
M  V30 49 1 10 45
M  V30 50 1 10 46
M  V30 51 1 10 47
M  V30 52 1 11 48
M  V30 53 1 11 49
M  V30 54 1 11 50
M  V30 55 1 12 51
M  V30 56 1 12 52
M  V30 57 1 12 53
M  V30 58 1 13 54
M  V30 59 1 15 55
M  V30 60 1 18 56
M  V30 61 1 20 57
M  V30 62 1 21 58
M  V30 63 1 24 59
M  V30 64 1 24 60
M  V30 65 1 25 61
M  V30 66 1 25 62
M  V30 67 1 27 63
M  V30 68 1 28 64
M  V30 69 1 30 65
M  V30 70 1 31 66
M  V30 71 1 33 67
M  V30 72 1 34 68
M  V30 73 1 35 69
M  V30 74 1 36 70
M  V30 75 1 38 71
M  V30 76 1 39 72
M  V30 END BOND
M  V30 END CTAB
M  END
>  <Dataset>  (229) 
ChEMBL_Kinases

>  <Ligand_Instance>  (229) 
nan

>  <PDB_ID>  (229) 
nan

>  <Standardized_SMILES>  (229) 
Cc1ccc(-n2nc(C(C)(C)C)cc2NC(=O)Nc2ccc(OCCc3ccncc3)c3ccccc23)cc1

>  <Name>  (229) 
nan

>  <Pocket>  (229) 
nan

>  <ATP_Site>  (229) 
nan

>  <Peripheral>  (229) 
nan

>  <Num_H_Atoms_ProtBoundConf>  (229) 
nan

>  <Num_Resolved_Atoms>  (229) 
nan

>  <Num_Not_Resolved_Atoms>  (229) 
nan

$$$$
CHEMBL4879311
     RDKit          3D

  0  0  0  0  0  0  0  0  0  0999 V3000
M  V30 BEGIN CTAB
M  V30 COUNTS 50 53 0 0 0
M  V30 BEGIN ATOM
M  V30 1 C 0.426746 -4.295368 -0.190029 0
M  V30 2 O 1.273705 -3.186181 -0.339841 0
M  V30 3 C 2.001141 -2.592608 0.649363 0
M  V30 4 C 2.135627 -2.869345 1.991196 0
M  V30 5 C 2.923760 -2.158341 2.860810 0
M  V30 6 C 3.627822 -1.102024 2.370892 0
M  V30 7 C 3.535591 -0.769292 1.023299 0
M  V30 8 C 2.728340 -1.504209 0.155929 0
M  V30 9 C 2.806181 -0.967085 -1.217150 0
M  V30 10 C 2.685301 0.289799 -1.562667 0
M  V30 11 N 2.459344 1.503711 -0.883407 0
M  V30 12 C 1.774701 1.696958 0.371409 0
M  V30 13 C 2.230636 2.221731 1.561783 0
M  V30 14 C 1.414272 2.285469 2.670147 0
M  V30 15 C 0.110608 1.801844 2.546008 0
M  V30 16 C -0.372213 1.265928 1.344552 0
M  V30 17 O -1.681812 0.878635 1.550082 0
M  V30 18 C -2.434533 0.316046 0.516023 0
M  V30 19 C -3.812267 -0.057275 0.978096 0
M  V30 20 C -4.946794 0.711465 1.042827 0
M  V30 21 C -6.130081 0.176410 1.494072 0
M  V30 22 C -6.262023 -1.141972 1.905110 0
M  V30 23 C -5.119485 -1.908817 1.837396 0
M  V30 24 C -3.925012 -1.391448 1.389376 0
M  V30 25 C 0.478302 1.219285 0.254893 0
M  V30 26 C 2.845131 0.322503 -3.035275 0
M  V30 27 O 2.809016 1.313784 -3.842602 0
M  V30 28 N 3.060160 -0.989995 -3.474320 0
M  V30 29 C 3.044068 -1.854745 -2.349197 0
M  V30 30 O 3.202766 -3.097953 -2.350624 0
M  V30 31 H -0.462492 -4.281685 -0.877769 0
M  V30 32 H 0.925972 -5.269534 -0.178700 0
M  V30 33 H -0.041007 -4.179156 0.822106 0
M  V30 34 H 1.527154 -3.739998 2.285358 0
M  V30 35 H 2.908349 -2.519302 3.883474 0
M  V30 36 H 4.245957 -0.555422 3.089347 0
M  V30 37 H 4.148867 0.093962 0.756164 0
M  V30 38 H 2.769378 2.439770 -1.209811 0
M  V30 39 H 3.271758 2.546354 1.468125 0
M  V30 40 H 1.851402 2.701938 3.547534 0
M  V30 41 H -0.415700 1.917032 3.506458 0
M  V30 42 H -2.630268 1.165587 -0.204580 0
M  V30 43 H -1.953777 -0.539191 0.017126 0
M  V30 44 H -4.794443 1.729905 0.717029 0
M  V30 45 H -6.999737 0.794334 1.536117 0
M  V30 46 H -7.211165 -1.521942 2.251060 0
M  V30 47 H -5.205062 -2.931647 2.150785 0
M  V30 48 H -3.099896 -2.084537 1.381366 0
M  V30 49 H -0.033236 0.783312 -0.589829 0
M  V30 50 H 3.210472 -1.308126 -4.450247 0
M  V30 END ATOM
M  V30 BEGIN BOND
M  V30 1 1 1 2
M  V30 2 1 2 3
M  V30 3 2 3 4
M  V30 4 1 4 5
M  V30 5 2 5 6
M  V30 6 1 6 7
M  V30 7 2 7 8
M  V30 8 1 8 9
M  V30 9 2 9 10
M  V30 10 1 10 11
M  V30 11 1 11 12
M  V30 12 2 12 13
M  V30 13 1 13 14
M  V30 14 2 14 15
M  V30 15 1 15 16
M  V30 16 1 16 17
M  V30 17 1 17 18
M  V30 18 1 18 19
M  V30 19 2 19 20
M  V30 20 1 20 21
M  V30 21 2 21 22
M  V30 22 1 22 23
M  V30 23 2 23 24
M  V30 24 2 16 25
M  V30 25 1 10 26
M  V30 26 2 26 27
M  V30 27 1 26 28
M  V30 28 1 28 29
M  V30 29 2 29 30
M  V30 30 1 8 3
M  V30 31 1 29 9
M  V30 32 1 25 12
M  V30 33 1 24 19
M  V30 34 1 1 31
M  V30 35 1 1 32
M  V30 36 1 1 33
M  V30 37 1 4 34
M  V30 38 1 5 35
M  V30 39 1 6 36
M  V30 40 1 7 37
M  V30 41 1 11 38
M  V30 42 1 13 39
M  V30 43 1 14 40
M  V30 44 1 15 41
M  V30 45 1 18 42
M  V30 46 1 18 43
M  V30 47 1 20 44
M  V30 48 1 21 45
M  V30 49 1 22 46
M  V30 50 1 23 47
M  V30 51 1 24 48
M  V30 52 1 25 49
M  V30 53 1 28 50
M  V30 END BOND
M  V30 END CTAB
M  END
>  <Dataset>  (230) 
ChEMBL_Kinases

>  <Ligand_Instance>  (230) 
nan

>  <PDB_ID>  (230) 
nan

>  <Standardized_SMILES>  (230) 
COc1ccccc1C1=C(Nc2cccc(OCc3ccccc3)c2)C(=O)NC1=O

>  <Name>  (230) 
nan

>  <Pocket>  (230) 
nan

>  <ATP_Site>  (230) 
nan

>  <Peripheral>  (230) 
nan

>  <Num_H_Atoms_ProtBoundConf>  (230) 
nan

>  <Num_Resolved_Atoms>  (230) 
nan

>  <Num_Not_Resolved_Atoms>  (230) 
nan

$$$$
CHEMBL4879278
     RDKit          3D

  0  0  0  0  0  0  0  0  0  0999 V3000
M  V30 BEGIN CTAB
M  V30 COUNTS 51 55 0 0 0
M  V30 BEGIN ATOM
M  V30 1 C 3.153877 1.542197 6.472684 0
M  V30 2 O 2.835597 0.194410 6.307982 0
M  V30 3 C 2.964203 -0.544473 5.150773 0
M  V30 4 C 2.560607 -1.857283 5.320619 0
M  V30 5 C 2.625518 -2.745580 4.245662 0
M  V30 6 C 3.096938 -2.272497 3.036767 0
M  V30 7 C 3.501877 -0.945049 2.876209 0
M  V30 8 C 4.013904 -0.445170 1.549784 0
M  V30 9 N 2.891065 0.062915 0.753532 0
M  V30 10 C 2.602800 1.451736 0.937869 0
M  V30 11 C 1.845385 2.090319 -0.194860 0
M  V30 12 O 0.505225 1.627968 -0.301611 0
M  V30 13 C 0.097696 0.342648 -0.667279 0
M  V30 14 C -1.189041 0.224351 -1.159291 0
M  V30 15 C -1.651459 -1.033561 -1.540728 0
M  V30 16 C -3.014937 -1.026537 -2.039357 0
M  V30 17 C -3.504732 0.059230 -2.704570 0
M  V30 18 N -4.765306 0.097239 -3.179670 0
M  V30 19 C -5.640221 -0.927586 -3.037610 0
M  V30 20 N -6.900576 -1.096695 -3.419572 0
M  V30 21 C -7.319397 -2.325892 -3.020079 0
M  V30 22 C -6.256249 -2.922441 -2.366017 0
M  V30 23 C -5.185368 -2.061678 -2.363362 0
M  V30 24 C -3.898606 -2.075375 -1.889773 0
M  V30 25 C -0.852624 -2.154058 -1.436245 0
M  V30 26 C 0.435103 -2.061866 -0.948198 0
M  V30 27 C 0.885859 -0.805328 -0.571213 0
M  V30 28 C 2.258944 -0.912956 -0.084566 0
M  V30 29 O 2.949147 -1.912903 -0.406211 0
M  V30 30 C 3.434196 -0.074760 3.943819 0
M  V30 31 H 3.891455 1.913728 5.728764 0
M  V30 32 H 2.235631 2.166681 6.368723 0
M  V30 33 H 3.566116 1.639967 7.518765 0
M  V30 34 H 2.182603 -2.287686 6.240518 0
M  V30 35 H 2.351868 -3.783613 4.221466 0
M  V30 36 H 3.177730 -2.908342 2.146906 0
M  V30 37 H 4.780339 0.321119 1.747428 0
M  V30 38 H 4.430859 -1.305957 0.986911 0
M  V30 39 H 3.579104 1.983238 0.980924 0
M  V30 40 H 2.073250 1.687588 1.881217 0
M  V30 41 H 2.329901 1.910710 -1.168376 0
M  V30 42 H 1.856414 3.180272 -0.043611 0
M  V30 43 H -1.719546 1.155600 -1.197249 0
M  V30 44 H -2.894515 0.950981 -2.882860 0
M  V30 45 H -7.533571 -0.448112 -3.940543 0
M  V30 46 H -8.277892 -2.855083 -3.130943 0
M  V30 47 H -6.242502 -3.906846 -1.918913 0
M  V30 48 H -3.566715 -2.969383 -1.368258 0
M  V30 49 H -1.266459 -3.103196 -1.748322 0
M  V30 50 H 1.084540 -2.922069 -0.855015 0
M  V30 51 H 3.729669 0.962370 3.891637 0
M  V30 END ATOM
M  V30 BEGIN BOND
M  V30 1 1 1 2
M  V30 2 1 2 3
M  V30 3 2 3 4
M  V30 4 1 4 5
M  V30 5 2 5 6
M  V30 6 1 6 7
M  V30 7 1 7 8
M  V30 8 1 8 9
M  V30 9 1 9 10
M  V30 10 1 10 11
M  V30 11 1 11 12
M  V30 12 1 12 13
M  V30 13 2 13 14
M  V30 14 1 14 15
M  V30 15 1 15 16
M  V30 16 2 16 17
M  V30 17 1 17 18
M  V30 18 2 18 19
M  V30 19 1 19 20
M  V30 20 1 20 21
M  V30 21 2 21 22
M  V30 22 1 22 23
M  V30 23 2 23 24
M  V30 24 2 15 25
M  V30 25 1 25 26
M  V30 26 2 26 27
M  V30 27 1 27 28
M  V30 28 2 28 29
M  V30 29 2 7 30
M  V30 30 1 30 3
M  V30 31 1 28 9
M  V30 32 1 27 13
M  V30 33 1 24 16
M  V30 34 1 23 19
M  V30 35 1 1 31
M  V30 36 1 1 32
M  V30 37 1 1 33
M  V30 38 1 4 34
M  V30 39 1 5 35
M  V30 40 1 6 36
M  V30 41 1 8 37
M  V30 42 1 8 38
M  V30 43 1 10 39
M  V30 44 1 10 40
M  V30 45 1 11 41
M  V30 46 1 11 42
M  V30 47 1 14 43
M  V30 48 1 17 44
M  V30 49 1 20 45
M  V30 50 1 21 46
M  V30 51 1 22 47
M  V30 52 1 24 48
M  V30 53 1 25 49
M  V30 54 1 26 50
M  V30 55 1 30 51
M  V30 END BOND
M  V30 END CTAB
M  END
>  <Dataset>  (231) 
ChEMBL_Kinases

>  <Ligand_Instance>  (231) 
nan

>  <PDB_ID>  (231) 
nan

>  <Standardized_SMILES>  (231) 
COc1cccc(CN2CCOc3cc(-c4cnc5[nH]ccc5c4)ccc3C2=O)c1

>  <Name>  (231) 
nan

>  <Pocket>  (231) 
nan

>  <ATP_Site>  (231) 
nan

>  <Peripheral>  (231) 
nan

>  <Num_H_Atoms_ProtBoundConf>  (231) 
nan

>  <Num_Resolved_Atoms>  (231) 
nan

>  <Num_Not_Resolved_Atoms>  (231) 
nan

$$$$
CHEMBL4879266
     RDKit          3D

  0  0  0  0  0  0  0  0  0  0999 V3000
M  V30 BEGIN CTAB
M  V30 COUNTS 34 36 0 0 0
M  V30 BEGIN ATOM
M  V30 1 C -0.909574 -2.218945 3.232243 0
M  V30 2 N -0.459562 -2.533669 1.835679 0
M  V30 3 C -1.312441 -3.494990 1.074846 0
M  V30 4 C 0.620362 -2.164868 1.087918 0
M  V30 5 N 1.481313 -3.226456 1.221862 0
M  V30 6 C 2.721444 -3.168570 0.652791 0
M  V30 7 C 3.206062 -2.100517 -0.071528 0
M  V30 8 C 2.333999 -1.041719 -0.201064 0
M  V30 9 C 2.743307 0.059427 -0.904697 0
M  V30 10 Br 4.476289 0.099912 -1.674784 0
M  V30 11 C 1.895612 1.136013 -1.052054 0
M  V30 12 C 0.644086 1.022779 -0.457788 0
M  V30 13 C -0.184358 2.113760 -0.646215 0
M  V30 14 C -1.443574 2.022573 -0.085596 0
M  V30 15 C -2.343669 3.183188 -0.274916 0
M  V30 16 O -1.887460 4.151027 -0.927097 0
M  V30 17 O -3.621217 3.230559 0.225594 0
M  V30 18 C -1.937513 0.936733 0.641921 0
M  V30 19 C -1.032884 -0.097081 0.772285 0
M  V30 20 C 0.220132 -0.075099 0.250613 0
M  V30 21 C 1.091733 -1.109353 0.371966 0
M  V30 22 H -2.006719 -2.186841 3.258131 0
M  V30 23 H -0.586005 -3.025957 3.921703 0
M  V30 24 H -0.453468 -1.282905 3.558184 0
M  V30 25 H -2.275831 -3.580712 1.586252 0
M  V30 26 H -1.554078 -2.995148 0.091035 0
M  V30 27 H -0.783058 -4.438326 0.892347 0
M  V30 28 H 3.454629 -3.989505 0.726160 0
M  V30 29 H 4.185502 -2.072530 -0.511174 0
M  V30 30 H 2.197234 1.999146 -1.593770 0
M  V30 31 H 0.139188 2.962794 -1.189833 0
M  V30 32 H -4.141172 4.112990 0.352745 0
M  V30 33 H -2.957375 1.033259 1.012405 0
M  V30 34 H -1.522540 -0.804453 1.282078 0
M  V30 END ATOM
M  V30 BEGIN BOND
M  V30 1 1 1 2
M  V30 2 1 2 3
M  V30 3 1 2 4
M  V30 4 2 4 5
M  V30 5 1 5 6
M  V30 6 2 6 7
M  V30 7 1 7 8
M  V30 8 2 8 9
M  V30 9 1 9 10
M  V30 10 1 9 11
M  V30 11 2 11 12
M  V30 12 1 12 13
M  V30 13 2 13 14
M  V30 14 1 14 15
M  V30 15 2 15 16
M  V30 16 1 15 17
M  V30 17 1 14 18
M  V30 18 2 18 19
M  V30 19 1 19 20
M  V30 20 2 20 21
M  V30 21 1 21 4
M  V30 22 1 21 8
M  V30 23 1 20 12
M  V30 24 1 1 22
M  V30 25 1 1 23
M  V30 26 1 1 24
M  V30 27 1 3 25
M  V30 28 1 3 26
M  V30 29 1 3 27
M  V30 30 1 6 28
M  V30 31 1 7 29
M  V30 32 1 11 30
M  V30 33 1 13 31
M  V30 34 1 17 32
M  V30 35 1 18 33
M  V30 36 1 19 34
M  V30 END BOND
M  V30 END CTAB
M  END
>  <Dataset>  (232) 
ChEMBL_Kinases

>  <Ligand_Instance>  (232) 
nan

>  <PDB_ID>  (232) 
nan

>  <Standardized_SMILES>  (232) 
CN(C)c1nccc2c(Br)cc3cc(C(=O)O)ccc3c12

>  <Name>  (232) 
nan

>  <Pocket>  (232) 
nan

>  <ATP_Site>  (232) 
nan

>  <Peripheral>  (232) 
nan

>  <Num_H_Atoms_ProtBoundConf>  (232) 
nan

>  <Num_Resolved_Atoms>  (232) 
nan

>  <Num_Not_Resolved_Atoms>  (232) 
nan

$$$$
CHEMBL4791136
     RDKit          3D

  0  0  0  0  0  0  0  0  0  0999 V3000
M  V30 BEGIN CTAB
M  V30 COUNTS 38 41 0 0 0
M  V30 BEGIN ATOM
M  V30 1 O -1.963421 -1.510680 3.931474 0
M  V30 2 C -1.010617 -1.163358 3.190552 0
M  V30 3 C 0.185880 -1.792295 3.499859 0
M  V30 4 C 1.333188 -1.504409 2.759802 0
M  V30 5 C 1.199133 -0.586576 1.738853 0
M  V30 6 C 2.375299 -0.247080 0.927778 0
M  V30 7 C 3.267947 -1.286792 0.773708 0
M  V30 8 C 4.419099 -1.056366 0.014877 0
M  V30 9 C 4.627081 0.199188 -0.554570 0
M  V30 10 C 5.652474 0.725004 -1.344785 0
M  V30 11 N 5.309456 2.005443 -1.599628 0
M  V30 12 N 4.151937 2.306099 -1.026336 0
M  V30 13 C 3.690298 1.219473 -0.367563 0
M  V30 14 C 2.547804 1.002344 0.381169 0
M  V30 15 C -0.029312 0.000958 1.488733 0
M  V30 16 N -1.130513 -0.269508 2.192530 0
M  V30 17 C -2.415446 0.348596 1.927655 0
M  V30 18 C -3.121655 -0.511792 0.943685 0
M  V30 19 C -2.932600 -0.265211 -0.420318 0
M  V30 20 C -3.495963 -0.947902 -1.478288 0
M  V30 21 C -4.335090 -1.984167 -1.128963 0
M  V30 22 C -4.566882 -2.282602 0.196068 0
M  V30 23 F -5.402947 -3.314710 0.536251 0
M  V30 24 C -3.978934 -1.569446 1.218031 0
M  V30 25 H 0.298885 -2.511405 4.297242 0
M  V30 26 H 2.261974 -1.999627 3.008538 0
M  V30 27 H 3.189775 -2.268391 1.169054 0
M  V30 28 H 5.169104 -1.827599 -0.151463 0
M  V30 29 H 6.523928 0.163113 -1.657011 0
M  V30 30 H 3.692563 3.239910 -1.089740 0
M  V30 31 H 1.800923 1.778182 0.543086 0
M  V30 32 H -0.127256 0.728271 0.675453 0
M  V30 33 H -2.982396 0.430734 2.876773 0
M  V30 34 H -2.267203 1.339695 1.444253 0
M  V30 35 H -2.260050 0.565309 -0.684082 0
M  V30 36 H -3.268359 -0.657333 -2.483034 0
M  V30 37 H -4.797887 -2.544850 -1.934321 0
M  V30 38 H -4.135497 -1.771355 2.266859 0
M  V30 END ATOM
M  V30 BEGIN BOND
M  V30 1 2 1 2
M  V30 2 1 2 3
M  V30 3 2 3 4
M  V30 4 1 4 5
M  V30 5 1 5 6
M  V30 6 2 6 7
M  V30 7 1 7 8
M  V30 8 2 8 9
M  V30 9 1 9 10
M  V30 10 2 10 11
M  V30 11 1 11 12
M  V30 12 1 12 13
M  V30 13 2 13 14
M  V30 14 2 5 15
M  V30 15 1 15 16
M  V30 16 1 16 17
M  V30 17 1 17 18
M  V30 18 2 18 19
M  V30 19 1 19 20
M  V30 20 2 20 21
M  V30 21 1 21 22
M  V30 22 1 22 23
M  V30 23 2 22 24
M  V30 24 1 16 2
M  V30 25 1 24 18
M  V30 26 1 14 6
M  V30 27 1 13 9
M  V30 28 1 3 25
M  V30 29 1 4 26
M  V30 30 1 7 27
M  V30 31 1 8 28
M  V30 32 1 10 29
M  V30 33 1 12 30
M  V30 34 1 14 31
M  V30 35 1 15 32
M  V30 36 1 17 33
M  V30 37 1 17 34
M  V30 38 1 19 35
M  V30 39 1 20 36
M  V30 40 1 21 37
M  V30 41 1 24 38
M  V30 END BOND
M  V30 END CTAB
M  END
>  <Dataset>  (233) 
ChEMBL_Kinases

>  <Ligand_Instance>  (233) 
nan

>  <PDB_ID>  (233) 
nan

>  <Standardized_SMILES>  (233) 
O=c1ccc(-c2ccc3cn[nH]c3c2)cn1Cc1cccc(F)c1

>  <Name>  (233) 
nan

>  <Pocket>  (233) 
nan

>  <ATP_Site>  (233) 
nan

>  <Peripheral>  (233) 
nan

>  <Num_H_Atoms_ProtBoundConf>  (233) 
nan

>  <Num_Resolved_Atoms>  (233) 
nan

>  <Num_Not_Resolved_Atoms>  (233) 
nan

$$$$
CHEMBL4879113
     RDKit          3D

  0  0  0  0  0  0  0  0  0  0999 V3000
M  V30 BEGIN CTAB
M  V30 COUNTS 58 63 0 0 0
M  V30 BEGIN ATOM
M  V30 1 N 5.868508 -2.819702 0.005627 0
M  V30 2 C 6.461041 -1.598214 0.531707 0 CFG=2
M  V30 3 C 6.047453 -1.519115 2.003239 0
M  V30 4 C 4.535828 -1.294383 1.960451 0
M  V30 5 C 4.381123 0.128725 1.405380 0
M  V30 6 N 4.745490 0.106933 0.001358 0
M  V30 7 C 3.840845 0.530688 -1.048292 0
M  V30 8 O 4.304918 0.460194 -2.222499 0
M  V30 9 C 2.518917 0.975266 -0.550747 0
M  V30 10 C 2.239129 2.148148 0.120444 0
M  V30 11 C 0.947106 2.423319 0.544438 0
M  V30 12 C -0.077568 1.528237 0.300908 0
M  V30 13 C -1.430121 1.820917 0.761546 0
M  V30 14 C -2.505732 0.977166 0.614631 0
M  V30 15 N -3.765936 1.156950 1.037954 0
M  V30 16 C -4.839686 0.359761 0.928795 0
M  V30 17 C -5.029771 -0.951112 0.327205 0
M  V30 18 C -6.130448 -1.266280 -0.475600 0
M  V30 19 C -6.307476 -2.511605 -1.040245 0
M  V30 20 C -5.346830 -3.492391 -0.797276 0
M  V30 21 C -5.460406 -4.773799 -1.332259 0
M  V30 22 N -4.551595 -5.730777 -1.110872 0
M  V30 23 C -3.451987 -5.495831 -0.339598 0
M  V30 24 C -3.285584 -4.232893 0.222749 0
M  V30 25 C -4.223217 -3.263953 -0.011496 0
M  V30 26 C -4.120850 -1.995549 0.515152 0
M  V30 27 C -5.851480 1.099763 1.578347 0
M  V30 28 N -5.298774 2.262795 2.015731 0
M  V30 29 C -3.999112 2.306733 1.684068 0
M  V30 30 C -2.986002 3.227844 1.885707 0
M  V30 31 N -1.724651 2.957541 1.416571 0
M  V30 32 C 0.212177 0.358863 -0.371457 0
M  V30 33 C 1.505274 0.043474 -0.816378 0
M  V30 34 C 6.084469 -0.379468 -0.245885 0
M  V30 35 H 4.968251 -2.603911 -0.498482 0
M  V30 36 H 5.651684 -3.510916 0.783106 0
M  V30 37 H 7.571282 -1.653804 0.539408 0
M  V30 38 H 6.461342 -0.653850 2.522989 0
M  V30 39 H 6.265850 -2.484661 2.472493 0
M  V30 40 H 4.075317 -1.312989 2.954972 0
M  V30 41 H 4.052636 -1.937456 1.207386 0
M  V30 42 H 5.046782 0.794702 1.990426 0
M  V30 43 H 3.343142 0.408765 1.587207 0
M  V30 44 H 3.081171 2.792162 0.276864 0
M  V30 45 H 0.782250 3.358907 1.068958 0
M  V30 46 H -2.306664 0.056127 0.080345 0
M  V30 47 H -6.839010 -0.435650 -0.618014 0
M  V30 48 H -7.161587 -2.711662 -1.643846 0
M  V30 49 H -6.323918 -4.998734 -1.950489 0
M  V30 50 H -2.733106 -6.313915 -0.188303 0
M  V30 51 H -2.416468 -4.039146 0.836234 0
M  V30 52 H -3.223113 -1.844810 1.136266 0
M  V30 53 H -6.897150 0.837677 1.729890 0
M  V30 54 H -3.167366 4.154450 2.406951 0
M  V30 55 H -0.523006 -0.395302 -0.607201 0
M  V30 56 H 1.691467 -0.894567 -1.348516 0
M  V30 57 H 6.232479 -0.638293 -1.325244 0
M  V30 58 H 6.807292 0.440780 -0.025541 0
M  V30 END ATOM
M  V30 BEGIN BOND
M  V30 1 1 1 2
M  V30 2 1 2 3
M  V30 3 1 3 4
M  V30 4 1 4 5
M  V30 5 1 5 6
M  V30 6 1 6 7
M  V30 7 2 7 8
M  V30 8 1 7 9
M  V30 9 2 9 10
M  V30 10 1 10 11
M  V30 11 2 11 12
M  V30 12 1 12 13
M  V30 13 2 13 14
M  V30 14 1 14 15
M  V30 15 1 15 16
M  V30 16 1 16 17
M  V30 17 2 17 18
M  V30 18 1 18 19
M  V30 19 2 19 20
M  V30 20 1 20 21
M  V30 21 2 21 22
M  V30 22 1 22 23
M  V30 23 2 23 24
M  V30 24 1 24 25
M  V30 25 2 25 26
M  V30 26 2 16 27
M  V30 27 1 27 28
M  V30 28 2 28 29
M  V30 29 1 29 30
M  V30 30 2 30 31
M  V30 31 1 12 32
M  V30 32 2 32 33
M  V30 33 1 6 34
M  V30 34 1 34 2
M  V30 35 1 33 9
M  V30 36 1 31 13
M  V30 37 1 29 15
M  V30 38 1 26 17
M  V30 39 1 25 20
M  V30 40 1 1 35
M  V30 41 1 1 36
M  V30 42 1 2 37 CFG=1
M  V30 43 1 3 38
M  V30 44 1 3 39
M  V30 45 1 4 40
M  V30 46 1 4 41
M  V30 47 1 5 42
M  V30 48 1 5 43
M  V30 49 1 10 44
M  V30 50 1 11 45
M  V30 51 1 14 46
M  V30 52 1 18 47
M  V30 53 1 19 48
M  V30 54 1 21 49
M  V30 55 1 23 50
M  V30 56 1 24 51
M  V30 57 1 26 52
M  V30 58 1 27 53
M  V30 59 1 30 54
M  V30 60 1 32 55
M  V30 61 1 33 56
M  V30 62 1 34 57
M  V30 63 1 34 58
M  V30 END BOND
M  V30 END CTAB
M  END
>  <Dataset>  (234) 
ChEMBL_Kinases

>  <Ligand_Instance>  (234) 
nan

>  <PDB_ID>  (234) 
nan

>  <Standardized_SMILES>  (234) 
N[C@@H]1CCCN(C(=O)c2ccc(-c3cn4c(-c5ccc6cnccc6c5)cnc4cn3)cc2)C1

>  <Name>  (234) 
nan

>  <Pocket>  (234) 
nan

>  <ATP_Site>  (234) 
nan

>  <Peripheral>  (234) 
nan

>  <Num_H_Atoms_ProtBoundConf>  (234) 
nan

>  <Num_Resolved_Atoms>  (234) 
nan

>  <Num_Not_Resolved_Atoms>  (234) 
nan

$$$$
CHEMBL4879048
     RDKit          3D

  0  0  0  0  0  0  0  0  0  0999 V3000
M  V30 BEGIN CTAB
M  V30 COUNTS 30 32 0 0 0
M  V30 BEGIN ATOM
M  V30 1 N -0.014125 -3.733093 5.230045 0
M  V30 2 S 0.683715 -4.305058 3.764443 0
M  V30 3 O 0.059832 -5.617807 3.430746 0
M  V30 4 O 2.170991 -4.425589 3.940019 0
M  V30 5 C 0.415930 -3.201321 2.424828 0
M  V30 6 C 1.356225 -2.201083 2.184461 0
M  V30 7 C 1.222187 -1.280206 1.140402 0
M  V30 8 C 0.121778 -1.354783 0.310401 0
M  V30 9 C -0.025769 -0.396134 -0.783058 0
M  V30 10 N -0.385052 -0.704884 -2.048966 0
M  V30 11 N -0.423781 0.410873 -2.792657 0
M  V30 12 C -0.089865 1.488888 -2.034172 0
M  V30 13 C 0.020581 2.837493 -2.307553 0
M  V30 14 C 0.392994 3.642001 -1.251387 0
M  V30 15 F 0.519983 4.994788 -1.461185 0
M  V30 16 C 0.658779 3.212448 0.032814 0
M  V30 17 C 0.528515 1.841359 0.239242 0
M  V30 18 C 0.161545 0.971266 -0.760615 0
M  V30 19 C -0.814753 -2.342483 0.541152 0
M  V30 20 C -0.670107 -3.244502 1.574816 0
M  V30 21 H 0.407607 -2.840309 5.557684 0
M  V30 22 H -1.048613 -3.643990 5.128425 0
M  V30 23 H 2.224552 -2.151566 2.848888 0
M  V30 24 H 1.995981 -0.556149 1.043010 0
M  V30 25 H -0.674773 0.432006 -3.802148 0
M  V30 26 H -0.174649 3.233896 -3.293559 0
M  V30 27 H 0.946193 3.909688 0.807585 0
M  V30 28 H 0.729973 1.473563 1.235015 0
M  V30 29 H -1.694963 -2.430671 -0.093830 0
M  V30 30 H -1.398038 -4.035782 1.778064 0
M  V30 END ATOM
M  V30 BEGIN BOND
M  V30 1 1 1 2
M  V30 2 2 2 3
M  V30 3 2 2 4
M  V30 4 1 2 5
M  V30 5 2 5 6
M  V30 6 1 6 7
M  V30 7 2 7 8
M  V30 8 1 8 9
M  V30 9 2 9 10
M  V30 10 1 10 11
M  V30 11 1 11 12
M  V30 12 2 12 13
M  V30 13 1 13 14
M  V30 14 1 14 15
M  V30 15 2 14 16
M  V30 16 1 16 17
M  V30 17 2 17 18
M  V30 18 1 8 19
M  V30 19 2 19 20
M  V30 20 1 20 5
M  V30 21 1 18 9
M  V30 22 1 18 12
M  V30 23 1 1 21
M  V30 24 1 1 22
M  V30 25 1 6 23
M  V30 26 1 7 24
M  V30 27 1 11 25
M  V30 28 1 13 26
M  V30 29 1 16 27
M  V30 30 1 17 28
M  V30 31 1 19 29
M  V30 32 1 20 30
M  V30 END BOND
M  V30 END CTAB
M  END
>  <Dataset>  (235) 
ChEMBL_Kinases

>  <Ligand_Instance>  (235) 
nan

>  <PDB_ID>  (235) 
nan

>  <Standardized_SMILES>  (235) 
NS(=O)(=O)c1ccc(-c2n[nH]c3cc(F)ccc23)cc1

>  <Name>  (235) 
nan

>  <Pocket>  (235) 
nan

>  <ATP_Site>  (235) 
nan

>  <Peripheral>  (235) 
nan

>  <Num_H_Atoms_ProtBoundConf>  (235) 
nan

>  <Num_Resolved_Atoms>  (235) 
nan

>  <Num_Not_Resolved_Atoms>  (235) 
nan

$$$$
CHEMBL4790421
     RDKit          3D

  0  0  0  0  0  0  0  0  0  0999 V3000
M  V30 BEGIN CTAB
M  V30 COUNTS 50 53 0 0 0
M  V30 BEGIN ATOM
M  V30 1 C 4.952739 -3.414478 4.243446 0
M  V30 2 C 5.608831 -3.012929 2.937265 0
M  V30 3 N 4.931429 -1.918452 2.277629 0
M  V30 4 C 4.754223 -0.630783 2.836366 0
M  V30 5 O 5.214128 -0.392494 4.003219 0
M  V30 6 C 4.077770 0.498079 2.201829 0
M  V30 7 C 3.968888 1.679251 2.895858 0
M  V30 8 C 3.318090 2.728293 2.242217 0
M  V30 9 C 2.813327 2.584748 0.970627 0
M  V30 10 C 2.940494 1.373247 0.294264 0
M  V30 11 C 2.339608 1.417909 -1.063711 0
M  V30 12 N 0.943075 1.033466 -1.012411 0
M  V30 13 C 0.422496 -0.257397 -0.890663 0
M  V30 14 O 1.229513 -1.217878 -0.814995 0
M  V30 15 C -0.996402 -0.584356 -0.844241 0
M  V30 16 C -1.394131 -1.901182 -0.758348 0
M  V30 17 C -2.736807 -2.249538 -0.713534 0
M  V30 18 C -3.703163 -1.268392 -0.755027 0
M  V30 19 C -3.349828 0.061533 -0.840419 0
M  V30 20 C -2.005437 0.367564 -0.882840 0
M  V30 21 C -4.296306 1.200664 -0.888028 0
M  V30 22 O -5.640120 0.775561 -0.852470 0
M  V30 23 C -6.025903 -0.554573 -0.765974 0
M  V30 24 C -7.377728 -0.840469 -0.729963 0
M  V30 25 N -7.772610 -2.130350 -0.646050 0
M  V30 26 C -6.861708 -3.145554 -0.596817 0
M  V30 27 C -5.502556 -2.897628 -0.630723 0
M  V30 28 C -5.120825 -1.592651 -0.715397 0
M  V30 29 C 3.581238 0.332309 0.931382 0
M  V30 30 H 5.606851 -4.051428 4.843472 0
M  V30 31 H 4.017455 -4.007991 4.028317 0
M  V30 32 H 4.616107 -2.499057 4.760637 0
M  V30 33 H 6.690313 -2.755720 3.134297 0
M  V30 34 H 5.609375 -3.894266 2.270317 0
M  V30 35 H 4.537291 -2.062589 1.323361 0
M  V30 36 H 4.351783 1.825053 3.889909 0
M  V30 37 H 3.243782 3.657863 2.813526 0
M  V30 38 H 2.340403 3.476772 0.598905 0
M  V30 39 H 2.494367 2.390555 -1.544980 0
M  V30 40 H 2.932657 0.692075 -1.683591 0
M  V30 41 H 0.280791 1.834806 -1.075163 0
M  V30 42 H -0.634983 -2.691749 -0.724986 0
M  V30 43 H -2.948623 -3.293628 -0.647168 0
M  V30 44 H -1.693030 1.402341 -0.949712 0
M  V30 45 H -4.093007 1.883814 -1.751426 0
M  V30 46 H -4.166919 1.865570 0.009078 0
M  V30 47 H -8.093555 -0.016345 -0.770007 0
M  V30 48 H -7.269977 -4.139175 -0.531384 0
M  V30 49 H -4.863295 -3.742207 -0.588560 0
M  V30 50 H 3.631409 -0.559653 0.331930 0
M  V30 END ATOM
M  V30 BEGIN BOND
M  V30 1 1 1 2
M  V30 2 1 2 3
M  V30 3 1 3 4
M  V30 4 2 4 5
M  V30 5 1 4 6
M  V30 6 2 6 7
M  V30 7 1 7 8
M  V30 8 2 8 9
M  V30 9 1 9 10
M  V30 10 1 10 11
M  V30 11 1 11 12
M  V30 12 1 12 13
M  V30 13 2 13 14
M  V30 14 1 13 15
M  V30 15 2 15 16
M  V30 16 1 16 17
M  V30 17 2 17 18
M  V30 18 1 18 19
M  V30 19 2 19 20
M  V30 20 1 19 21
M  V30 21 1 21 22
M  V30 22 1 22 23
M  V30 23 2 23 24
M  V30 24 1 24 25
M  V30 25 2 25 26
M  V30 26 1 26 27
M  V30 27 2 27 28
M  V30 28 2 10 29
M  V30 29 1 29 6
M  V30 30 1 20 15
M  V30 31 1 28 23
M  V30 32 1 28 18
M  V30 33 1 1 30
M  V30 34 1 1 31
M  V30 35 1 1 32
M  V30 36 1 2 33
M  V30 37 1 2 34
M  V30 38 1 3 35
M  V30 39 1 7 36
M  V30 40 1 8 37
M  V30 41 1 9 38
M  V30 42 1 11 39
M  V30 43 1 11 40
M  V30 44 1 12 41
M  V30 45 1 16 42
M  V30 46 1 17 43
M  V30 47 1 20 44
M  V30 48 1 21 45
M  V30 49 1 21 46
M  V30 50 1 24 47
M  V30 51 1 26 48
M  V30 52 1 27 49
M  V30 53 1 29 50
M  V30 END BOND
M  V30 END CTAB
M  END
>  <Dataset>  (236) 
ChEMBL_Kinases

>  <Ligand_Instance>  (236) 
nan

>  <PDB_ID>  (236) 
nan

>  <Standardized_SMILES>  (236) 
CCNC(=O)c1cccc(CNC(=O)c2ccc3c(c2)COc2cnccc2-3)c1

>  <Name>  (236) 
nan

>  <Pocket>  (236) 
nan

>  <ATP_Site>  (236) 
nan

>  <Peripheral>  (236) 
nan

>  <Num_H_Atoms_ProtBoundConf>  (236) 
nan

>  <Num_Resolved_Atoms>  (236) 
nan

>  <Num_Not_Resolved_Atoms>  (236) 
nan

$$$$
CHEMBL4878043
     RDKit          3D

  0  0  0  0  0  0  0  0  0  0999 V3000
M  V30 BEGIN CTAB
M  V30 COUNTS 40 42 0 0 0
M  V30 BEGIN ATOM
M  V30 1 C -0.615362 -4.451646 2.177356 0
M  V30 2 O -0.357224 -3.430672 1.271526 0
M  V30 3 C 0.862098 -2.953180 0.866017 0
M  V30 4 C 2.082069 -3.444651 1.324599 0
M  V30 5 C 3.299131 -2.969734 0.921727 0
M  V30 6 C 3.311047 -1.936560 0.001483 0
M  V30 7 C 2.126485 -1.401467 -0.495454 0
M  V30 8 C 0.895505 -1.908326 -0.064551 0
M  V30 9 C -0.308561 -1.285863 -0.648048 0
M  V30 10 C -0.542573 0.008977 -0.930847 0
M  V30 11 N 0.259248 1.142531 -0.765676 0
M  V30 12 C 0.699195 1.960958 0.296567 0
M  V30 13 C 1.536109 3.039907 0.061969 0
M  V30 14 C 1.918015 3.778104 1.160282 0
M  V30 15 C 1.541933 3.537033 2.468634 0
M  V30 16 C 0.704000 2.448887 2.663083 0
M  V30 17 C 0.289970 1.673274 1.587753 0
M  V30 18 S -0.767051 0.340812 2.024394 0
M  V30 19 C -2.505822 0.741207 2.055435 0
M  V30 20 C -1.901889 0.100799 -1.505005 0
M  V30 21 O -2.488947 1.152217 -1.898968 0
M  V30 22 N -2.500700 -1.199331 -1.564831 0
M  V30 23 C -1.494450 -2.049114 -1.027489 0
M  V30 24 O -1.746727 -3.301497 -0.951644 0
M  V30 25 H 0.285277 -4.968956 2.541402 0
M  V30 26 H -1.215456 -4.143215 3.055717 0
M  V30 27 H -1.238075 -5.218301 1.630960 0
M  V30 28 H 2.107153 -4.246308 2.038634 0
M  V30 29 H 4.227286 -3.385907 1.311162 0
M  V30 30 H 4.298962 -1.563034 -0.314896 0
M  V30 31 H 2.237661 -0.595906 -1.209997 0
M  V30 32 H 0.591629 1.395837 -1.739830 0
M  V30 33 H 1.875257 3.292524 -0.934516 0
M  V30 34 H 2.576536 4.621030 0.935674 0
M  V30 35 H 1.900447 4.177913 3.252609 0
M  V30 36 H 0.417555 2.274097 3.697024 0
M  V30 37 H -2.965660 0.144492 2.898734 0
M  V30 38 H -2.731344 1.796869 2.306213 0
M  V30 39 H -3.000906 0.374039 1.139291 0
M  V30 40 H -3.458341 -1.396284 -1.930669 0
M  V30 END ATOM
M  V30 BEGIN BOND
M  V30 1 1 1 2
M  V30 2 1 2 3
M  V30 3 2 3 4
M  V30 4 1 4 5
M  V30 5 2 5 6
M  V30 6 1 6 7
M  V30 7 2 7 8
M  V30 8 1 8 9
M  V30 9 2 9 10
M  V30 10 1 10 11
M  V30 11 1 11 12
M  V30 12 2 12 13
M  V30 13 1 13 14
M  V30 14 2 14 15
M  V30 15 1 15 16
M  V30 16 2 16 17
M  V30 17 1 17 18
M  V30 18 1 18 19
M  V30 19 1 10 20
M  V30 20 2 20 21
M  V30 21 1 20 22
M  V30 22 1 22 23
M  V30 23 2 23 24
M  V30 24 1 8 3
M  V30 25 1 23 9
M  V30 26 1 17 12
M  V30 27 1 1 25
M  V30 28 1 1 26
M  V30 29 1 1 27
M  V30 30 1 4 28
M  V30 31 1 5 29
M  V30 32 1 6 30
M  V30 33 1 7 31
M  V30 34 1 11 32
M  V30 35 1 13 33
M  V30 36 1 14 34
M  V30 37 1 15 35
M  V30 38 1 16 36
M  V30 39 1 19 37
M  V30 40 1 19 38
M  V30 41 1 19 39
M  V30 42 1 22 40
M  V30 END BOND
M  V30 END CTAB
M  END
>  <Dataset>  (237) 
ChEMBL_Kinases

>  <Ligand_Instance>  (237) 
nan

>  <PDB_ID>  (237) 
nan

>  <Standardized_SMILES>  (237) 
COc1ccccc1C1=C(Nc2ccccc2SC)C(=O)NC1=O

>  <Name>  (237) 
nan

>  <Pocket>  (237) 
nan

>  <ATP_Site>  (237) 
nan

>  <Peripheral>  (237) 
nan

>  <Num_H_Atoms_ProtBoundConf>  (237) 
nan

>  <Num_Resolved_Atoms>  (237) 
nan

>  <Num_Not_Resolved_Atoms>  (237) 
nan

$$$$
CHEMBL4877947
     RDKit          3D

  0  0  0  0  0  0  0  0  0  0999 V3000
M  V30 BEGIN CTAB
M  V30 COUNTS 59 63 0 0 0
M  V30 BEGIN ATOM
M  V30 1 C 0.961770 6.739573 3.327752 0
M  V30 2 N 1.848167 6.060750 2.399404 0
M  V30 3 C 3.036147 6.842569 2.257697 0
M  V30 4 C 2.053550 4.725126 2.861818 0
M  V30 5 C 2.961882 3.894017 1.986622 0
M  V30 6 N 2.436684 3.767005 0.641166 0
M  V30 7 C 1.619457 2.790492 0.241461 0
M  V30 8 C 1.310825 2.974047 -1.107235 0
M  V30 9 C 0.437558 2.079176 -1.857672 0
M  V30 10 C 0.448193 0.733562 -1.480889 0
M  V30 11 C -0.374348 -0.123832 -2.182937 0
M  V30 12 C -1.174274 0.325827 -3.213134 0
M  V30 13 C -1.941796 -0.639251 -3.829029 0
M  V30 14 N -2.012711 -2.025457 -3.536480 0
M  V30 15 C -2.423357 -2.691910 -2.350761 0
M  V30 16 C -2.968083 -2.081595 -1.241282 0
M  V30 17 C -3.349632 -2.778083 -0.114109 0
M  V30 18 N -3.167561 -4.094624 -0.138487 0
M  V30 19 C -2.642024 -4.756805 -1.186105 0
M  V30 20 C -2.505866 -6.201807 -1.061739 0
M  V30 21 C -2.904894 -6.825806 0.083148 0
M  V30 22 C -2.812378 -8.190138 0.287057 0
M  V30 23 C -2.293944 -9.001656 -0.695670 0
M  V30 24 C -1.874096 -8.398343 -1.883791 0
M  V30 25 C -1.987100 -7.020530 -2.043123 0
M  V30 26 C -2.261327 -4.059532 -2.311502 0
M  V30 27 C -2.742051 -0.162377 -4.875346 0
M  V30 28 C -2.759816 1.165595 -5.256636 0
M  V30 29 N -1.985137 2.039079 -4.606636 0
M  V30 30 C -1.193913 1.646408 -3.593947 0
M  V30 31 C -0.370195 2.510289 -2.892343 0
M  V30 32 C 2.013289 4.128492 -1.447134 0
M  V30 33 N 2.682612 4.583602 -0.372450 0
M  V30 34 H 0.915264 7.841874 3.126903 0
M  V30 35 H -0.030524 6.267458 3.262034 0
M  V30 36 H 1.303743 6.627474 4.379523 0
M  V30 37 H 2.764585 7.911760 2.420931 0
M  V30 38 H 3.428576 6.830800 1.201816 0
M  V30 39 H 3.824608 6.621589 2.990507 0
M  V30 40 H 2.378491 4.665038 3.919138 0
M  V30 41 H 1.059305 4.218381 2.815520 0
M  V30 42 H 3.985190 4.286182 2.002230 0
M  V30 43 H 2.996876 2.884490 2.457429 0
M  V30 44 H 1.258433 1.979046 0.889505 0
M  V30 45 H 1.070091 0.388182 -0.680753 0
M  V30 46 H -0.338954 -1.154081 -1.873648 0
M  V30 47 H -1.699651 -2.533287 -4.369381 0
M  V30 48 H -3.086439 -1.002324 -1.294667 0
M  V30 49 H -3.769059 -2.249748 0.722453 0
M  V30 50 H -3.323742 -6.259195 0.904784 0
M  V30 51 H -3.145563 -8.641664 1.221584 0
M  V30 52 H -2.220000 -10.066715 -0.540381 0
M  V30 53 H -1.466046 -9.032630 -2.658663 0
M  V30 54 H -1.654181 -6.581683 -2.972914 0
M  V30 55 H -1.844740 -4.568583 -3.147239 0
M  V30 56 H -3.385646 -0.827429 -5.431976 0
M  V30 57 H -3.392198 1.507090 -6.074025 0
M  V30 58 H -0.372849 3.543918 -3.175783 0
M  V30 59 H 1.964731 4.524299 -2.454848 0
M  V30 END ATOM
M  V30 BEGIN BOND
M  V30 1 1 1 2
M  V30 2 1 2 3
M  V30 3 1 2 4
M  V30 4 1 4 5
M  V30 5 1 5 6
M  V30 6 1 6 7
M  V30 7 2 7 8
M  V30 8 1 8 9
M  V30 9 2 9 10
M  V30 10 1 10 11
M  V30 11 2 11 12
M  V30 12 1 12 13
M  V30 13 1 13 14
M  V30 14 1 14 15
M  V30 15 2 15 16
M  V30 16 1 16 17
M  V30 17 2 17 18
M  V30 18 1 18 19
M  V30 19 1 19 20
M  V30 20 2 20 21
M  V30 21 1 21 22
M  V30 22 2 22 23
M  V30 23 1 23 24
M  V30 24 2 24 25
M  V30 25 2 19 26
M  V30 26 2 13 27
M  V30 27 1 27 28
M  V30 28 2 28 29
M  V30 29 1 29 30
M  V30 30 2 30 31
M  V30 31 1 8 32
M  V30 32 2 32 33
M  V30 33 1 33 6
M  V30 34 1 31 9
M  V30 35 1 30 12
M  V30 36 1 26 15
M  V30 37 1 25 20
M  V30 38 1 1 34
M  V30 39 1 1 35
M  V30 40 1 1 36
M  V30 41 1 3 37
M  V30 42 1 3 38
M  V30 43 1 3 39
M  V30 44 1 4 40
M  V30 45 1 4 41
M  V30 46 1 5 42
M  V30 47 1 5 43
M  V30 48 1 7 44
M  V30 49 1 10 45
M  V30 50 1 11 46
M  V30 51 1 14 47
M  V30 52 1 16 48
M  V30 53 1 17 49
M  V30 54 1 21 50
M  V30 55 1 22 51
M  V30 56 1 23 52
M  V30 57 1 24 53
M  V30 58 1 25 54
M  V30 59 1 26 55
M  V30 60 1 27 56
M  V30 61 1 28 57
M  V30 62 1 31 58
M  V30 63 1 32 59
M  V30 END BOND
M  V30 END CTAB
M  END
>  <Dataset>  (238) 
ChEMBL_Kinases

>  <Ligand_Instance>  (238) 
nan

>  <PDB_ID>  (238) 
nan

>  <Standardized_SMILES>  (238) 
CN(C)CCn1cc(-c2ccc3c(Nc4ccnc(-c5ccccc5)c4)ccnc3c2)cn1

>  <Name>  (238) 
nan

>  <Pocket>  (238) 
nan

>  <ATP_Site>  (238) 
nan

>  <Peripheral>  (238) 
nan

>  <Num_H_Atoms_ProtBoundConf>  (238) 
nan

>  <Num_Resolved_Atoms>  (238) 
nan

>  <Num_Not_Resolved_Atoms>  (238) 
nan

$$$$
CHEMBL4794718
     RDKit          3D

  0  0  0  0  0  0  0  0  0  0999 V3000
M  V30 BEGIN CTAB
M  V30 COUNTS 55 58 0 0 0
M  V30 BEGIN ATOM
M  V30 1 C 4.427342 -4.602632 -0.417388 0
M  V30 2 C 5.185309 -3.377588 -0.065619 0
M  V30 3 C 5.786252 -2.375486 0.229949 0
M  V30 4 C 6.484429 -1.163063 0.579453 0
M  V30 5 O 7.642534 -1.139170 1.053415 0
M  V30 6 N 5.841302 0.081224 0.383178 0
M  V30 7 C 6.620103 1.249219 0.763490 0
M  V30 8 C 5.711205 2.427684 0.708502 0
M  V30 9 C 4.319015 2.179902 1.084881 0
M  V30 10 C 3.669188 1.098218 0.684014 0
M  V30 11 C 2.281048 0.827583 1.045160 0
M  V30 12 C 1.536775 -0.272681 0.668045 0
M  V30 13 C 0.224953 -0.425569 1.070895 0
M  V30 14 C -0.380728 0.523970 1.866491 0
M  V30 15 C -1.784033 0.442903 2.346662 0
M  V30 16 C -1.987730 -0.827115 3.185000 0
M  V30 17 C -2.716745 0.270630 1.180167 0
M  V30 18 O -2.282727 0.213801 -0.002704 0
M  V30 19 N -4.100174 0.178052 1.502892 0
M  V30 20 C -5.072748 0.013421 0.476190 0
M  V30 21 C -5.476231 -1.241062 0.037026 0
M  V30 22 C -6.426305 -1.101940 -0.962515 0
M  V30 23 C -7.124738 -2.172695 -1.710440 0
M  V30 24 C -6.287924 -3.363158 -2.117243 0
M  V30 25 C -7.353223 -3.491442 -1.067881 0
M  V30 26 N -6.572929 0.243295 -1.102002 0
M  V30 27 N -5.786444 0.895404 -0.266015 0
M  V30 28 C 0.388169 1.624389 2.234420 0
M  V30 29 N 1.664237 1.738282 1.821740 0
M  V30 30 C 4.485114 0.190367 -0.164808 0
M  V30 31 H 3.811126 -4.362394 -1.308953 0
M  V30 32 H 5.075313 -5.454411 -0.623935 0
M  V30 33 H 3.774584 -4.846003 0.465816 0
M  V30 34 H 7.420095 1.350712 0.007672 0
M  V30 35 H 7.015680 1.151770 1.797247 0
M  V30 36 H 5.766326 2.949093 -0.283088 0
M  V30 37 H 6.125996 3.191104 1.423368 0
M  V30 38 H 3.765229 2.884758 1.714016 0
M  V30 39 H 2.034632 -0.995780 0.048295 0
M  V30 40 H -0.351464 -1.275945 0.779922 0
M  V30 41 H -2.063486 1.312843 2.970517 0
M  V30 42 H -1.778639 -1.729590 2.580467 0
M  V30 43 H -3.045879 -0.874391 3.492895 0
M  V30 44 H -1.317852 -0.831802 4.069812 0
M  V30 45 H -4.474667 0.223633 2.479958 0
M  V30 46 H -5.118017 -2.195147 0.403742 0
M  V30 47 H -7.845947 -1.809528 -2.464780 0
M  V30 48 H -6.440890 -3.800920 -3.124325 0
M  V30 49 H -5.267239 -3.492169 -1.730445 0
M  V30 50 H -7.067964 -3.633952 -0.014807 0
M  V30 51 H -8.261352 -4.069002 -1.357556 0
M  V30 52 H -7.238965 0.665118 -1.799074 0
M  V30 53 H -0.061166 2.373236 2.851169 0
M  V30 54 H 4.514549 0.513021 -1.223307 0
M  V30 55 H 4.060783 -0.829930 -0.092333 0
M  V30 END ATOM
M  V30 BEGIN BOND
M  V30 1 1 1 2
M  V30 2 3 2 3
M  V30 3 1 3 4
M  V30 4 2 4 5
M  V30 5 1 4 6
M  V30 6 1 6 7
M  V30 7 1 7 8
M  V30 8 1 8 9
M  V30 9 2 9 10
M  V30 10 1 10 11
M  V30 11 2 11 12
M  V30 12 1 12 13
M  V30 13 2 13 14
M  V30 14 1 14 15
M  V30 15 1 15 16
M  V30 16 1 15 17
M  V30 17 2 17 18
M  V30 18 1 17 19
M  V30 19 1 19 20
M  V30 20 1 20 21
M  V30 21 2 21 22
M  V30 22 1 22 23
M  V30 23 1 23 24
M  V30 24 1 24 25
M  V30 25 1 22 26
M  V30 26 1 26 27
M  V30 27 1 14 28
M  V30 28 2 28 29
M  V30 29 1 10 30
M  V30 30 1 30 6
M  V30 31 1 29 11
M  V30 32 2 27 20
M  V30 33 1 25 23
M  V30 34 1 1 31
M  V30 35 1 1 32
M  V30 36 1 1 33
M  V30 37 1 7 34
M  V30 38 1 7 35
M  V30 39 1 8 36
M  V30 40 1 8 37
M  V30 41 1 9 38
M  V30 42 1 12 39
M  V30 43 1 13 40
M  V30 44 1 15 41
M  V30 45 1 16 42
M  V30 46 1 16 43
M  V30 47 1 16 44
M  V30 48 1 19 45
M  V30 49 1 21 46
M  V30 50 1 23 47
M  V30 51 1 24 48
M  V30 52 1 24 49
M  V30 53 1 25 50
M  V30 54 1 25 51
M  V30 55 1 26 52
M  V30 56 1 28 53
M  V30 57 1 30 54
M  V30 58 1 30 55
M  V30 END BOND
M  V30 END CTAB
M  END
>  <Dataset>  (239) 
ChEMBL_Kinases

>  <Ligand_Instance>  (239) 
nan

>  <PDB_ID>  (239) 
nan

>  <Standardized_SMILES>  (239) 
CC#CC(=O)N1CCC=C(c2ccc(C(C)C(=O)Nc3cc(C4CC4)[nH]n3)cn2)C1

>  <Name>  (239) 
nan

>  <Pocket>  (239) 
nan

>  <ATP_Site>  (239) 
nan

>  <Peripheral>  (239) 
nan

>  <Num_H_Atoms_ProtBoundConf>  (239) 
nan

>  <Num_Resolved_Atoms>  (239) 
nan

>  <Num_Not_Resolved_Atoms>  (239) 
nan

$$$$
CHEMBL4877889
     RDKit          3D

  0  0  0  0  0  0  0  0  0  0999 V3000
M  V30 BEGIN CTAB
M  V30 COUNTS 42 45 0 0 0
M  V30 BEGIN ATOM
M  V30 1 C 0.586622 -3.497585 2.914087 0
M  V30 2 O 0.730462 -2.874596 1.630437 0
M  V30 3 C 1.668492 -1.870856 1.426003 0
M  V30 4 C 2.488090 -1.455291 2.456780 0
M  V30 5 C 3.412984 -0.466222 2.262724 0
M  V30 6 C 3.530538 0.125517 1.023577 0
M  V30 7 C 2.687808 -0.327841 0.032418 0
M  V30 8 C 1.731294 -1.321970 0.155731 0
M  V30 9 C 0.910259 -1.756904 -0.965906 0
M  V30 10 C 0.129915 -1.007869 -1.755272 0
M  V30 11 N -0.129378 0.397983 -1.737042 0
M  V30 12 C -0.111777 1.149916 -0.516569 0
M  V30 13 C 0.665948 2.310079 -0.415152 0
M  V30 14 C 0.714242 3.035184 0.769771 0
M  V30 15 C -0.023551 2.595346 1.867262 0
M  V30 16 C -0.802313 1.455753 1.804259 0
M  V30 17 C -1.530746 1.036249 2.897008 0
M  V30 18 C -2.318926 -0.097075 2.847565 0
M  V30 19 C -2.362857 -0.816199 1.652990 0
M  V30 20 C -1.615350 -0.354540 0.587808 0
M  V30 21 C -0.822280 0.760109 0.597532 0
M  V30 22 C -0.481620 -1.923263 -2.739795 0
M  V30 23 O -1.293933 -1.592924 -3.669423 0
M  V30 24 N -0.048939 -3.253308 -2.525712 0
M  V30 25 C 0.824577 -3.146575 -1.410477 0
M  V30 26 O 1.431739 -4.124654 -0.891287 0
M  V30 27 H 1.537734 -3.717938 3.400378 0
M  V30 28 H -0.000616 -4.413156 2.823403 0
M  V30 29 H 0.049104 -2.742482 3.561854 0
M  V30 30 H 2.440011 -1.882530 3.447556 0
M  V30 31 H 4.073825 -0.109846 3.039325 0
M  V30 32 H 4.244049 0.909700 0.818619 0
M  V30 33 H 2.796832 0.149615 -0.934359 0
M  V30 34 H -0.336746 0.886695 -2.636719 0
M  V30 35 H 1.251921 2.662054 -1.279713 0
M  V30 36 H 1.316098 3.947335 0.872786 0
M  V30 37 H -0.004304 3.143888 2.811776 0
M  V30 38 H -1.501775 1.584999 3.824567 0
M  V30 39 H -2.896978 -0.436734 3.706415 0
M  V30 40 H -2.989234 -1.692109 1.648999 0
M  V30 41 H -1.737956 -0.972932 -0.269775 0
M  V30 42 H -0.348372 -4.087567 -3.102713 0
M  V30 END ATOM
M  V30 BEGIN BOND
M  V30 1 1 1 2
M  V30 2 1 2 3
M  V30 3 2 3 4
M  V30 4 1 4 5
M  V30 5 2 5 6
M  V30 6 1 6 7
M  V30 7 2 7 8
M  V30 8 1 8 9
M  V30 9 2 9 10
M  V30 10 1 10 11
M  V30 11 1 11 12
M  V30 12 2 12 13
M  V30 13 1 13 14
M  V30 14 2 14 15
M  V30 15 1 15 16
M  V30 16 2 16 17
M  V30 17 1 17 18
M  V30 18 2 18 19
M  V30 19 1 19 20
M  V30 20 2 20 21
M  V30 21 1 10 22
M  V30 22 2 22 23
M  V30 23 1 22 24
M  V30 24 1 24 25
M  V30 25 2 25 26
M  V30 26 1 8 3
M  V30 27 1 25 9
M  V30 28 1 21 12
M  V30 29 1 21 16
M  V30 30 1 1 27
M  V30 31 1 1 28
M  V30 32 1 1 29
M  V30 33 1 4 30
M  V30 34 1 5 31
M  V30 35 1 6 32
M  V30 36 1 7 33
M  V30 37 1 11 34
M  V30 38 1 13 35
M  V30 39 1 14 36
M  V30 40 1 15 37
M  V30 41 1 17 38
M  V30 42 1 18 39
M  V30 43 1 19 40
M  V30 44 1 20 41
M  V30 45 1 24 42
M  V30 END BOND
M  V30 END CTAB
M  END
>  <Dataset>  (240) 
ChEMBL_Kinases

>  <Ligand_Instance>  (240) 
nan

>  <PDB_ID>  (240) 
nan

>  <Standardized_SMILES>  (240) 
COc1ccccc1C1=C(Nc2cccc3ccccc23)C(=O)NC1=O

>  <Name>  (240) 
nan

>  <Pocket>  (240) 
nan

>  <ATP_Site>  (240) 
nan

>  <Peripheral>  (240) 
nan

>  <Num_H_Atoms_ProtBoundConf>  (240) 
nan

>  <Num_Resolved_Atoms>  (240) 
nan

>  <Num_Not_Resolved_Atoms>  (240) 
nan

$$$$
CHEMBL4877883
     RDKit          3D

  0  0  0  0  0  0  0  0  0  0999 V3000
M  V30 BEGIN CTAB
M  V30 COUNTS 53 58 0 0 0
M  V30 BEGIN ATOM
M  V30 1 C 1.422143 -1.343925 6.373734 0
M  V30 2 N 2.210025 -1.065515 5.178449 0
M  V30 3 N 3.530327 -1.177038 5.129978 0
M  V30 4 C 3.994959 -0.857872 3.901440 0
M  V30 5 C 2.851517 -0.542203 3.203012 0
M  V30 6 C 2.637292 -0.136605 1.900145 0
M  V30 7 C 1.378413 0.152211 1.327700 0
M  V30 8 C 1.259865 0.637270 -0.018508 0
M  V30 9 C 1.858943 1.887009 0.092380 0
M  V30 10 N 1.900599 2.760656 -0.929083 0
M  V30 11 C 1.352918 2.449883 -2.113802 0
M  V30 12 N 1.258026 3.159564 -3.245664 0
M  V30 13 N 0.598835 2.360590 -4.067709 0
M  V30 14 C 0.307085 1.215190 -3.459752 0
M  V30 15 Cl -0.590294 0.060898 -4.369386 0
M  V30 16 C 0.775943 1.202407 -2.168647 0
M  V30 17 C 0.688056 0.250192 -1.192139 0
M  V30 18 N 0.177658 -1.044923 -1.281997 0
M  V30 19 C -0.509943 -1.923693 -2.191340 0
M  V30 20 C -1.997221 -1.778049 -1.907729 0
M  V30 21 C -2.238106 -2.000052 -0.427943 0
M  V30 22 C -2.840040 -0.842018 0.283827 0
M  V30 23 C -4.335842 -0.871028 -0.005642 0
M  V30 24 N -4.518403 -2.280824 -0.287629 0
M  V30 25 C -3.294505 -3.031984 -0.297940 0
M  V30 26 O -3.205291 -4.283780 -0.212384 0
M  V30 27 C -1.015634 -2.485673 0.288652 0
M  V30 28 C 0.303839 -2.039878 -0.228611 0
M  V30 29 C 0.361140 -0.021891 2.245731 0
M  V30 30 C 0.437907 -0.416033 3.554495 0
M  V30 31 C 1.717334 -0.662363 3.974692 0
M  V30 32 H 0.389366 -1.612554 6.107844 0
M  V30 33 H 1.851055 -2.171241 6.966889 0
M  V30 34 H 1.366856 -0.459955 7.055747 0
M  V30 35 H 4.994916 -0.837329 3.509809 0
M  V30 36 H 3.515903 -0.030901 1.260469 0
M  V30 37 H 2.371704 2.382245 0.932660 0
M  V30 38 H 1.644899 4.113749 -3.359950 0
M  V30 39 H -0.158920 -2.039620 -3.174833 0
M  V30 40 H -0.369312 -3.053731 -1.895337 0
M  V30 41 H -2.397112 -0.780162 -2.148536 0
M  V30 42 H -2.564492 -2.503063 -2.513438 0
M  V30 43 H -2.703602 -0.895767 1.378985 0
M  V30 44 H -2.498075 0.142523 -0.048712 0
M  V30 45 H -4.886471 -0.519035 0.882591 0
M  V30 46 H -4.591376 -0.286327 -0.913516 0
M  V30 47 H -5.468500 -2.677929 -0.462340 0
M  V30 48 H -1.075526 -3.626788 0.333745 0
M  V30 49 H -1.097851 -2.216164 1.358945 0
M  V30 50 H 0.732499 -3.046624 -0.694398 0
M  V30 51 H 1.114534 -1.911538 0.447266 0
M  V30 52 H -0.632314 0.199444 1.830126 0
M  V30 53 H -0.429657 -0.513741 4.165258 0
M  V30 END ATOM
M  V30 BEGIN BOND
M  V30 1 1 1 2
M  V30 2 1 2 3
M  V30 3 2 3 4
M  V30 4 1 4 5
M  V30 5 2 5 6
M  V30 6 1 6 7
M  V30 7 1 7 8
M  V30 8 2 8 9
M  V30 9 1 9 10
M  V30 10 2 10 11
M  V30 11 1 11 12
M  V30 12 1 12 13
M  V30 13 2 13 14
M  V30 14 1 14 15
M  V30 15 1 14 16
M  V30 16 2 16 17
M  V30 17 1 17 18
M  V30 18 1 18 19
M  V30 19 1 19 20
M  V30 20 1 20 21
M  V30 21 1 21 22
M  V30 22 1 22 23
M  V30 23 1 23 24
M  V30 24 1 24 25
M  V30 25 2 25 26
M  V30 26 1 21 27
M  V30 27 1 27 28
M  V30 28 2 7 29
M  V30 29 1 29 30
M  V30 30 2 30 31
M  V30 31 1 31 2
M  V30 32 1 31 5
M  V30 33 1 17 8
M  V30 34 1 28 18
M  V30 35 1 16 11
M  V30 36 1 25 21
M  V30 37 1 1 32
M  V30 38 1 1 33
M  V30 39 1 1 34
M  V30 40 1 4 35
M  V30 41 1 6 36
M  V30 42 1 9 37
M  V30 43 1 12 38
M  V30 44 1 19 39
M  V30 45 1 19 40
M  V30 46 1 20 41
M  V30 47 1 20 42
M  V30 48 1 22 43
M  V30 49 1 22 44
M  V30 50 1 23 45
M  V30 51 1 23 46
M  V30 52 1 24 47
M  V30 53 1 27 48
M  V30 54 1 27 49
M  V30 55 1 28 50
M  V30 56 1 28 51
M  V30 57 1 29 52
M  V30 58 1 30 53
M  V30 END BOND
M  V30 END CTAB
M  END
>  <Dataset>  (241) 
ChEMBL_Kinases

>  <Ligand_Instance>  (241) 
nan

>  <PDB_ID>  (241) 
nan

>  <Standardized_SMILES>  (241) 
Cn1ncc2cc(-c3cnc4[nH]nc(Cl)c4c3N3CCC4(CCNC4=O)CC3)ccc21

>  <Name>  (241) 
nan

>  <Pocket>  (241) 
nan

>  <ATP_Site>  (241) 
nan

>  <Peripheral>  (241) 
nan

>  <Num_H_Atoms_ProtBoundConf>  (241) 
nan

>  <Num_Resolved_Atoms>  (241) 
nan

>  <Num_Not_Resolved_Atoms>  (241) 
nan

$$$$
CHEMBL4877846
     RDKit          3D

  0  0  0  0  0  0  0  0  0  0999 V3000
M  V30 BEGIN CTAB
M  V30 COUNTS 80 85 0 0 0
M  V30 BEGIN ATOM
M  V30 1 C -0.576398 -0.191544 -1.736141 0
M  V30 2 C -0.855464 0.897398 -2.710852 0
M  V30 3 N -0.799816 0.712272 -4.017879 0
M  V30 4 N -1.087670 1.831691 -4.660469 0
M  V30 5 C -1.120838 1.985533 -6.110022 0
M  V30 6 C -0.696697 0.674940 -6.754782 0
M  V30 7 C -0.308058 3.124785 -6.612699 0
M  V30 8 C -1.331377 2.746709 -3.706292 0
M  V30 9 C -1.698113 4.157563 -4.000405 0
M  V30 10 C -1.201060 2.218208 -2.440882 0
M  V30 11 C -1.367827 2.818936 -1.122777 0
M  V30 12 N -1.214620 2.133593 0.025487 0
M  V30 13 C -1.422602 2.907686 1.076364 0
M  V30 14 C -1.373346 2.630447 2.436033 0
M  V30 15 C -1.044009 1.251018 2.835739 0
M  V30 16 C -0.017059 0.494895 2.257207 0
M  V30 17 C 0.182989 -0.775323 2.719546 0
M  V30 18 C -0.540586 -1.381438 3.710243 0
M  V30 19 C -1.549353 -0.651870 4.286308 0
M  V30 20 C -1.789115 0.656322 3.841809 0
M  V30 21 C -2.518883 -0.943641 5.358893 0
M  V30 22 C -3.145441 -2.300754 5.121602 0
M  V30 23 C -2.132099 -3.414229 5.248932 0
M  V30 24 C -1.382032 -3.627050 3.954032 0
M  V30 25 C -0.121270 -2.772759 4.024018 0 CFG=1
M  V30 26 N 0.911601 -3.275394 3.172716 0
M  V30 27 C 2.219049 -3.764414 3.459489 0
M  V30 28 O 2.608047 -3.787290 4.677823 0
M  V30 29 C 3.033545 -4.212896 2.318755 0
M  V30 30 N 2.697279 -4.211523 1.017998 0
M  V30 31 C 3.737736 -4.703262 0.348602 0
M  V30 32 C 3.668164 -4.827040 -1.128237 0
M  V30 33 C 2.356919 -4.331348 -1.674032 0
M  V30 34 C 3.828812 -6.286382 -1.543187 0
M  V30 35 C 4.831817 -4.047513 -1.704689 0
M  V30 36 N 4.699763 -5.001877 1.236306 0
M  V30 37 O 4.248133 -4.696382 2.410700 0
M  V30 38 C -1.639173 3.653462 3.334291 0
M  V30 39 C -1.944892 4.917337 2.821199 0
M  V30 40 N -1.982709 5.145075 1.497634 0
M  V30 41 C -1.728021 4.165822 0.617524 0
M  V30 42 N -1.682337 4.061932 -0.722225 0
M  V30 43 H 0.078611 -0.974092 -2.177863 0
M  V30 44 H -1.522937 -0.747831 -1.478516 0
M  V30 45 H -0.161569 0.164701 -0.778443 0
M  V30 46 H -2.191213 2.146244 -6.437792 0
M  V30 47 H -0.670520 -0.123161 -5.967874 0
M  V30 48 H -1.358640 0.392926 -7.569350 0
M  V30 49 H 0.379572 0.751324 -7.078721 0
M  V30 50 H -0.928963 3.823579 -7.246592 0
M  V30 51 H 0.318432 3.641053 -5.875485 0
M  V30 52 H 0.428760 2.716819 -7.367720 0
M  V30 53 H -1.839888 4.324425 -5.091530 0
M  V30 54 H -2.687229 4.397908 -3.555481 0
M  V30 55 H -0.972180 4.874356 -3.564070 0
M  V30 56 H 0.533269 0.990368 1.486987 0
M  V30 57 H 0.987543 -1.286716 2.229049 0
M  V30 58 H -2.580675 1.247054 4.284593 0
M  V30 59 H -3.332428 -0.193554 5.411105 0
M  V30 60 H -2.015985 -0.978848 6.368694 0
M  V30 61 H -3.947455 -2.458563 5.895440 0
M  V30 62 H -3.629313 -2.262305 4.134343 0
M  V30 63 H -1.407042 -3.154211 6.035307 0
M  V30 64 H -2.607172 -4.378380 5.493739 0
M  V30 65 H -1.094216 -4.678686 3.814554 0
M  V30 66 H -1.974561 -3.229687 3.093228 0
M  V30 67 H 0.234029 -2.847064 5.080130 0
M  V30 68 H 0.586050 -3.261273 2.159404 0
M  V30 69 H 1.615322 -4.073383 -0.899945 0
M  V30 70 H 2.546707 -3.392917 -2.253481 0
M  V30 71 H 1.906010 -5.050214 -2.380008 0
M  V30 72 H 2.812797 -6.706360 -1.636010 0
M  V30 73 H 4.406951 -6.865674 -0.811489 0
M  V30 74 H 4.312101 -6.302003 -2.550936 0
M  V30 75 H 5.616874 -3.817049 -0.946980 0
M  V30 76 H 4.432103 -3.071647 -2.070164 0
M  V30 77 H 5.360904 -4.609475 -2.501747 0
M  V30 78 H -1.596046 3.419607 4.394249 0
M  V30 79 H -2.151023 5.712800 3.522653 0
M  V30 80 H -1.868558 4.849687 -1.363150 0
M  V30 END ATOM
M  V30 BEGIN BOND
M  V30 1 1 1 2
M  V30 2 2 2 3
M  V30 3 1 3 4
M  V30 4 1 4 5
M  V30 5 1 5 6
M  V30 6 1 5 7
M  V30 7 1 4 8
M  V30 8 1 8 9
M  V30 9 2 8 10
M  V30 10 1 10 11
M  V30 11 2 11 12
M  V30 12 1 12 13
M  V30 13 2 13 14
M  V30 14 1 14 15
M  V30 15 2 15 16
M  V30 16 1 16 17
M  V30 17 2 17 18
M  V30 18 1 18 19
M  V30 19 2 19 20
M  V30 20 1 19 21
M  V30 21 1 21 22
M  V30 22 1 22 23
M  V30 23 1 23 24
M  V30 24 1 24 25
M  V30 25 1 25 26
M  V30 26 1 26 27
M  V30 27 2 27 28
M  V30 28 1 27 29
M  V30 29 2 29 30
M  V30 30 1 30 31
M  V30 31 1 31 32
M  V30 32 1 32 33
M  V30 33 1 32 34
M  V30 34 1 32 35
M  V30 35 2 31 36
M  V30 36 1 36 37
M  V30 37 1 14 38
M  V30 38 2 38 39
M  V30 39 1 39 40
M  V30 40 2 40 41
M  V30 41 1 41 42
M  V30 42 1 10 2
M  V30 43 1 42 11
M  V30 44 1 41 13
M  V30 45 1 20 15
M  V30 46 1 37 29
M  V30 47 1 25 18
M  V30 48 1 1 43
M  V30 49 1 1 44
M  V30 50 1 1 45
M  V30 51 1 5 46
M  V30 52 1 6 47
M  V30 53 1 6 48
M  V30 54 1 6 49
M  V30 55 1 7 50
M  V30 56 1 7 51
M  V30 57 1 7 52
M  V30 58 1 9 53
M  V30 59 1 9 54
M  V30 60 1 9 55
M  V30 61 1 16 56
M  V30 62 1 17 57
M  V30 63 1 20 58
M  V30 64 1 21 59
M  V30 65 1 21 60
M  V30 66 1 22 61
M  V30 67 1 22 62
M  V30 68 1 23 63
M  V30 69 1 23 64
M  V30 70 1 24 65
M  V30 71 1 24 66
M  V30 72 1 25 67 CFG=1
M  V30 73 1 26 68
M  V30 74 1 33 69
M  V30 75 1 33 70
M  V30 76 1 33 71
M  V30 77 1 34 72
M  V30 78 1 34 73
M  V30 79 1 34 74
M  V30 80 1 35 75
M  V30 81 1 35 76
M  V30 82 1 35 77
M  V30 83 1 38 78
M  V30 84 1 39 79
M  V30 85 1 42 80
M  V30 END BOND
M  V30 END CTAB
M  END
>  <Dataset>  (242) 
ChEMBL_Kinases

>  <Ligand_Instance>  (242) 
nan

>  <PDB_ID>  (242) 
nan

>  <Standardized_SMILES>  (242) 
Cc1nn(C(C)C)c(C)c1-c1nc2c(-c3ccc4c(c3)CCCC[C@H]4NC(=O)c3nc(C(C)(C)C)no3)ccnc2[nH]1

>  <Name>  (242) 
nan

>  <Pocket>  (242) 
nan

>  <ATP_Site>  (242) 
nan

>  <Peripheral>  (242) 
nan

>  <Num_H_Atoms_ProtBoundConf>  (242) 
nan

>  <Num_Resolved_Atoms>  (242) 
nan

>  <Num_Not_Resolved_Atoms>  (242) 
nan

$$$$
CHEMBL4794934
     RDKit          3D

  0  0  0  0  0  0  0  0  0  0999 V3000
M  V30 BEGIN CTAB
M  V30 COUNTS 48 50 0 0 0
M  V30 BEGIN ATOM
M  V30 1 C -0.587000 -2.821948 2.571878 0
M  V30 2 C 0.689326 -3.065059 3.293581 0
M  V30 3 N 1.865604 -2.424990 2.625015 0
M  V30 4 C 1.643559 -0.988962 2.802920 0
M  V30 5 C 1.790736 -0.709894 4.300177 0
M  V30 6 C 1.919160 -2.857758 1.273647 0
M  V30 7 C 3.169167 -2.660373 0.533056 0
M  V30 8 C 3.750671 -1.331449 0.301271 0
M  V30 9 N 2.915057 -0.386491 -0.427869 0
M  V30 10 C 1.704408 0.353035 -0.414377 0
M  V30 11 N 1.777855 1.622021 0.090763 0
M  V30 12 C 0.697570 2.412522 0.168565 0
M  V30 13 C -0.479640 1.858053 -0.293622 0
M  V30 14 C -1.621336 2.637649 -0.223475 0
M  V30 15 C -2.879589 2.185278 -0.652719 0
M  V30 16 C -4.027292 2.929043 -0.594284 0
M  V30 17 N -5.206761 2.433615 -1.020758 0
M  V30 18 C -5.271866 1.172341 -1.521037 0
M  V30 19 C -4.140811 0.371405 -1.604721 0
M  V30 20 C -2.920011 0.882366 -1.164050 0
M  V30 21 C -1.805350 0.066097 -1.254237 0
M  V30 22 N -1.879338 -1.252005 -1.775537 0
M  V30 23 C -0.611188 0.590264 -0.810724 0
M  V30 24 N 0.513519 -0.119095 -0.848353 0
M  V30 25 H -1.310844 -3.601595 2.969350 0
M  V30 26 H -1.078979 -1.865417 2.817210 0
M  V30 27 H -0.556318 -3.047670 1.480151 0
M  V30 28 H 0.876931 -4.125776 3.444448 0
M  V30 29 H 0.639300 -2.570654 4.282684 0
M  V30 30 H 2.378012 -0.422917 2.282682 0
M  V30 31 H 0.591875 -0.778851 2.493718 0
M  V30 32 H 2.299579 0.247627 4.412025 0
M  V30 33 H 2.365005 -1.515198 4.758438 0
M  V30 34 H 0.786293 -0.601666 4.768707 0
M  V30 35 H 1.126755 -2.261958 0.729376 0
M  V30 36 H 1.509102 -3.913574 1.156840 0
M  V30 37 H 3.091305 -3.184981 -0.487478 0
M  V30 38 H 4.003872 -3.280594 1.019134 0
M  V30 39 H 4.224953 -0.885103 1.174432 0
M  V30 40 H 4.649568 -1.522706 -0.390172 0
M  V30 41 H 3.224125 -0.021812 -1.381172 0
M  V30 42 H 0.706003 3.424396 0.560939 0
M  V30 43 H -1.680096 3.657508 0.157593 0
M  V30 44 H -3.952370 3.922242 -0.196721 0
M  V30 45 H -6.165924 0.693537 -1.884418 0
M  V30 46 H -4.176905 -0.647599 -2.005662 0
M  V30 47 H -1.468804 -2.119697 -1.383282 0
M  V30 48 H -2.344861 -1.640421 -2.639207 0
M  V30 END ATOM
M  V30 BEGIN BOND
M  V30 1 1 1 2
M  V30 2 1 2 3
M  V30 3 1 3 4
M  V30 4 1 4 5
M  V30 5 1 3 6
M  V30 6 1 6 7
M  V30 7 1 7 8
M  V30 8 1 8 9
M  V30 9 1 9 10
M  V30 10 2 10 11
M  V30 11 1 11 12
M  V30 12 2 12 13
M  V30 13 1 13 14
M  V30 14 2 14 15
M  V30 15 1 15 16
M  V30 16 2 16 17
M  V30 17 1 17 18
M  V30 18 2 18 19
M  V30 19 1 19 20
M  V30 20 2 20 21
M  V30 21 1 21 22
M  V30 22 1 21 23
M  V30 23 2 23 24
M  V30 24 1 24 10
M  V30 25 1 23 13
M  V30 26 1 20 15
M  V30 27 1 1 25
M  V30 28 1 1 26
M  V30 29 1 1 27
M  V30 30 1 2 28
M  V30 31 1 2 29
M  V30 32 1 4 30
M  V30 33 1 4 31
M  V30 34 1 5 32
M  V30 35 1 5 33
M  V30 36 1 5 34
M  V30 37 1 6 35
M  V30 38 1 6 36
M  V30 39 1 7 37
M  V30 40 1 7 38
M  V30 41 1 8 39
M  V30 42 1 8 40
M  V30 43 1 9 41
M  V30 44 1 12 42
M  V30 45 1 14 43
M  V30 46 1 16 44
M  V30 47 1 18 45
M  V30 48 1 19 46
M  V30 49 1 22 47
M  V30 50 1 22 48
M  V30 END BOND
M  V30 END CTAB
M  END
>  <Dataset>  (243) 
ChEMBL_Kinases

>  <Ligand_Instance>  (243) 
nan

>  <PDB_ID>  (243) 
nan

>  <Standardized_SMILES>  (243) 
CCN(CC)CCCNc1ncc2cc3cnccc3c(N)c2n1

>  <Name>  (243) 
nan

>  <Pocket>  (243) 
nan

>  <ATP_Site>  (243) 
nan

>  <Peripheral>  (243) 
nan

>  <Num_H_Atoms_ProtBoundConf>  (243) 
nan

>  <Num_Resolved_Atoms>  (243) 
nan

>  <Num_Not_Resolved_Atoms>  (243) 
nan

$$$$
CHEMBL4877795
     RDKit          3D

  0  0  0  0  0  0  0  0  0  0999 V3000
M  V30 BEGIN CTAB
M  V30 COUNTS 42 44 0 0 0
M  V30 BEGIN ATOM
M  V30 1 C -0.040760 -3.846737 2.673420 0
M  V30 2 O 0.476394 -3.168993 1.559149 0
M  V30 3 C 1.673560 -2.526118 1.453471 0
M  V30 4 C 2.553856 -2.475996 2.501475 0
M  V30 5 C 3.750043 -1.823086 2.372135 0
M  V30 6 C 4.028820 -1.232804 1.179097 0
M  V30 7 C 3.192415 -1.238425 0.071640 0
M  V30 8 C 1.979726 -1.913368 0.235960 0
M  V30 9 C 1.021291 -2.003595 -0.861845 0
M  V30 10 C 0.773854 -0.941143 -1.608316 0
M  V30 11 N 1.223324 0.431375 -1.658517 0
M  V30 12 C 0.505818 1.300392 -0.755414 0
M  V30 13 C 0.751720 2.640907 -0.674317 0
M  V30 14 C 0.105651 3.515387 0.162076 0
M  V30 15 C -0.870365 3.018210 0.991523 0
M  V30 16 C -1.162747 1.679310 0.956293 0
M  V30 17 S -2.420407 1.102048 2.040448 0
M  V30 18 C -1.724826 0.661285 3.615571 0
M  V30 19 O -2.960607 -0.184642 1.446490 0
M  V30 20 O -3.559033 2.059239 2.156801 0
M  V30 21 C -0.493513 0.830772 0.103775 0
M  V30 22 C -0.219912 -1.263422 -2.650054 0
M  V30 23 O -0.792150 -0.663100 -3.585240 0
M  V30 24 N -0.538598 -2.639396 -2.442735 0
M  V30 25 C 0.218018 -3.122318 -1.338703 0
M  V30 26 O 0.244050 -4.246109 -0.829228 0
M  V30 27 H -0.841307 -4.527975 2.301373 0
M  V30 28 H 0.682004 -4.354202 3.305800 0
M  V30 29 H -0.573198 -3.089679 3.309701 0
M  V30 30 H 2.278694 -2.967407 3.436129 0
M  V30 31 H 4.465549 -1.763869 3.171430 0
M  V30 32 H 4.959665 -0.684525 0.970366 0
M  V30 33 H 3.425978 -0.765066 -0.872452 0
M  V30 34 H 1.965986 0.887715 -2.227199 0
M  V30 35 H 1.512401 3.071071 -1.310890 0
M  V30 36 H 0.332705 4.572875 0.194016 0
M  V30 37 H -1.381080 3.698910 1.650112 0
M  V30 38 H -1.286735 1.543193 4.132417 0
M  V30 39 H -0.936498 -0.100132 3.466221 0
M  V30 40 H -2.529722 0.245553 4.245636 0
M  V30 41 H -0.733282 -0.222965 0.085993 0
M  V30 42 H -1.191891 -3.285717 -2.941895 0
M  V30 END ATOM
M  V30 BEGIN BOND
M  V30 1 1 1 2
M  V30 2 1 2 3
M  V30 3 2 3 4
M  V30 4 1 4 5
M  V30 5 2 5 6
M  V30 6 1 6 7
M  V30 7 2 7 8
M  V30 8 1 8 9
M  V30 9 2 9 10
M  V30 10 1 10 11
M  V30 11 1 11 12
M  V30 12 2 12 13
M  V30 13 1 13 14
M  V30 14 2 14 15
M  V30 15 1 15 16
M  V30 16 1 16 17
M  V30 17 1 17 18
M  V30 18 2 17 19
M  V30 19 2 17 20
M  V30 20 2 16 21
M  V30 21 1 10 22
M  V30 22 2 22 23
M  V30 23 1 22 24
M  V30 24 1 24 25
M  V30 25 2 25 26
M  V30 26 1 8 3
M  V30 27 1 25 9
M  V30 28 1 21 12
M  V30 29 1 1 27
M  V30 30 1 1 28
M  V30 31 1 1 29
M  V30 32 1 4 30
M  V30 33 1 5 31
M  V30 34 1 6 32
M  V30 35 1 7 33
M  V30 36 1 11 34
M  V30 37 1 13 35
M  V30 38 1 14 36
M  V30 39 1 15 37
M  V30 40 1 18 38
M  V30 41 1 18 39
M  V30 42 1 18 40
M  V30 43 1 21 41
M  V30 44 1 24 42
M  V30 END BOND
M  V30 END CTAB
M  END
>  <Dataset>  (244) 
ChEMBL_Kinases

>  <Ligand_Instance>  (244) 
nan

>  <PDB_ID>  (244) 
nan

>  <Standardized_SMILES>  (244) 
COc1ccccc1C1=C(Nc2cccc(S(C)(=O)=O)c2)C(=O)NC1=O

>  <Name>  (244) 
nan

>  <Pocket>  (244) 
nan

>  <ATP_Site>  (244) 
nan

>  <Peripheral>  (244) 
nan

>  <Num_H_Atoms_ProtBoundConf>  (244) 
nan

>  <Num_Resolved_Atoms>  (244) 
nan

>  <Num_Not_Resolved_Atoms>  (244) 
nan

$$$$
CHEMBL4792974
     RDKit          3D

  0  0  0  0  0  0  0  0  0  0999 V3000
M  V30 BEGIN CTAB
M  V30 COUNTS 52 56 0 0 0
M  V30 BEGIN ATOM
M  V30 1 O 0.305324 -2.829722 -0.457229 0
M  V30 2 C 0.811639 -3.660515 0.372020 0
M  V30 3 N 0.974415 -3.158234 1.708044 0
M  V30 4 C 0.551917 -1.797104 1.944407 0
M  V30 5 C -0.776141 -1.642219 2.336564 0
M  V30 6 C -1.189344 -0.335725 2.565629 0
M  V30 7 C -0.320782 0.726021 2.408102 0
M  V30 8 C 0.990125 0.531399 2.017459 0
M  V30 9 C 1.440695 -0.753389 1.779578 0
M  V30 10 O 1.963109 1.516678 1.823627 0
M  V30 11 C 1.848444 2.881749 1.565541 0
M  V30 12 N 2.871613 3.435586 0.935078 0
M  V30 13 C 2.866692 4.745507 0.635758 0
M  V30 14 C 1.788666 5.535715 0.983586 0
M  V30 15 C 0.671348 5.047270 1.645260 0
M  V30 16 C 0.764471 3.679409 1.914574 0
M  V30 17 C -0.467499 3.273423 2.613594 0
M  V30 18 O -1.156140 4.143456 3.206157 0
M  V30 19 N -1.007608 1.939054 2.707293 0
M  V30 20 C -2.358965 1.834828 3.141838 0
M  V30 21 C -2.671280 1.713506 4.476878 0
M  V30 22 C -4.024734 1.620605 4.766118 0
M  V30 23 N -4.961282 1.648120 3.800642 0
M  V30 24 C -4.663608 1.765346 2.507990 0
M  V30 25 C -3.315515 1.863343 2.150510 0
M  V30 26 N 1.139619 -4.946931 -0.130877 0
M  V30 27 C 0.862134 -5.168880 -1.526746 0
M  V30 28 C -0.390758 -5.667381 -1.848789 0
M  V30 29 C -0.608220 -5.862966 -3.199686 0
M  V30 30 C 0.319611 -5.594973 -4.162532 0
M  V30 31 Cl -0.057360 -5.878881 -5.849736 0
M  V30 32 C 1.553444 -5.099196 -3.787698 0
M  V30 33 C 2.554287 -4.811750 -4.845512 0
M  V30 34 F 2.800008 -6.017303 -5.510001 0
M  V30 35 F 2.144588 -3.880283 -5.759942 0
M  V30 36 F 3.750700 -4.464124 -4.252584 0
M  V30 37 C 1.854269 -4.872890 -2.444426 0
M  V30 38 H 1.398636 -3.892348 2.349978 0
M  V30 39 H -1.425613 -2.500317 2.448898 0
M  V30 40 H -2.232045 -0.250069 2.870468 0
M  V30 41 H 2.461235 -0.921224 1.474072 0
M  V30 42 H 3.681221 5.236072 0.122414 0
M  V30 43 H 1.797623 6.593651 0.735491 0
M  V30 44 H -0.186304 5.607525 1.937745 0
M  V30 45 H -1.894544 1.693815 5.237857 0
M  V30 46 H -4.319523 1.523233 5.808592 0
M  V30 47 H -5.404118 1.790076 1.706815 0
M  V30 48 H -3.038008 1.960613 1.097967 0
M  V30 49 H 1.553704 -5.585805 0.603754 0
M  V30 50 H -1.097028 -5.866206 -1.054420 0
M  V30 51 H -1.601853 -6.258310 -3.455051 0
M  V30 52 H 2.813072 -4.485796 -2.131382 0
M  V30 END ATOM
M  V30 BEGIN BOND
M  V30 1 2 1 2
M  V30 2 1 2 3
M  V30 3 1 3 4
M  V30 4 2 4 5
M  V30 5 1 5 6
M  V30 6 2 6 7
M  V30 7 1 7 8
M  V30 8 2 8 9
M  V30 9 1 8 10
M  V30 10 1 10 11
M  V30 11 2 11 12
M  V30 12 1 12 13
M  V30 13 2 13 14
M  V30 14 1 14 15
M  V30 15 2 15 16
M  V30 16 1 16 17
M  V30 17 2 17 18
M  V30 18 1 17 19
M  V30 19 1 19 20
M  V30 20 2 20 21
M  V30 21 1 21 22
M  V30 22 2 22 23
M  V30 23 1 23 24
M  V30 24 2 24 25
M  V30 25 1 2 26
M  V30 26 1 26 27
M  V30 27 2 27 28
M  V30 28 1 28 29
M  V30 29 2 29 30
M  V30 30 1 30 31
M  V30 31 1 30 32
M  V30 32 1 32 33
M  V30 33 1 33 34
M  V30 34 1 33 35
M  V30 35 1 33 36
M  V30 36 2 32 37
M  V30 37 1 9 4
M  V30 38 1 16 11
M  V30 39 1 25 20
M  V30 40 1 37 27
M  V30 41 1 19 7
M  V30 42 1 3 38
M  V30 43 1 5 39
M  V30 44 1 6 40
M  V30 45 1 9 41
M  V30 46 1 13 42
M  V30 47 1 14 43
M  V30 48 1 15 44
M  V30 49 1 21 45
M  V30 50 1 22 46
M  V30 51 1 24 47
M  V30 52 1 25 48
M  V30 53 1 26 49
M  V30 54 1 28 50
M  V30 55 1 29 51
M  V30 56 1 37 52
M  V30 END BOND
M  V30 END CTAB
M  END
>  <Dataset>  (245) 
ChEMBL_Kinases

>  <Ligand_Instance>  (245) 
nan

>  <PDB_ID>  (245) 
nan

>  <Standardized_SMILES>  (245) 
O=C(Nc1ccc2c(c1)Oc1ncccc1C(=O)N2c1ccncc1)Nc1ccc(Cl)c(C(F)(F)F)c1

>  <Name>  (245) 
nan

>  <Pocket>  (245) 
nan

>  <ATP_Site>  (245) 
nan

>  <Peripheral>  (245) 
nan

>  <Num_H_Atoms_ProtBoundConf>  (245) 
nan

>  <Num_Resolved_Atoms>  (245) 
nan

>  <Num_Not_Resolved_Atoms>  (245) 
nan

$$$$
CHEMBL4795226
     RDKit          3D

  0  0  0  0  0  0  0  0  0  0999 V3000
M  V30 BEGIN CTAB
M  V30 COUNTS 41 44 0 0 0
M  V30 BEGIN ATOM
M  V30 1 O 3.407227 -4.212438 -1.522725 0
M  V30 2 C 2.421771 -3.432862 -1.514963 0
M  V30 3 O 2.109489 -3.028777 -2.809253 0
M  V30 4 C 1.623079 -2.939214 -0.367652 0
M  V30 5 C 2.060753 -3.435532 0.868147 0
M  V30 6 C 1.398210 -3.053110 2.046531 0
M  V30 7 C 0.341576 -2.192553 1.859195 0
M  V30 8 C -0.089473 -1.705040 0.650110 0
M  V30 9 C 0.539118 -2.062473 -0.517979 0
M  V30 10 O 0.315273 -1.732690 -1.811014 0
M  V30 11 C -0.243045 -0.660429 -2.447757 0
M  V30 12 C 0.478908 0.639493 -2.196995 0
M  V30 13 O 0.471799 0.917387 -0.867007 0
M  V30 14 C 1.100113 2.114503 -0.494846 0
M  V30 15 C 0.970443 2.159905 1.036176 0
M  V30 16 N -0.464332 2.158487 1.296969 0
M  V30 17 C -0.886553 1.675511 2.542563 0
M  V30 18 C -1.473977 1.960230 3.745599 0
M  V30 19 C -1.635845 0.970843 4.674828 0
M  V30 20 N -1.250130 -0.288293 4.483045 0
M  V30 21 N -1.246034 -1.436569 5.119861 0
M  V30 22 C -0.671744 -2.390251 4.321024 0
M  V30 23 C -0.290724 -1.832565 3.120312 0
M  V30 24 C -0.684985 -0.534373 3.307634 0
M  V30 25 N -0.493630 0.370432 2.358529 0
M  V30 26 H 2.047136 -3.684506 -3.585071 0
M  V30 27 H 2.906325 -4.113727 0.935615 0
M  V30 28 H 1.706058 -3.419638 3.037045 0
M  V30 29 H -0.915078 -1.039254 0.521368 0
M  V30 30 H -0.258510 -0.808121 -3.573458 0
M  V30 31 H -1.324308 -0.558872 -2.162920 0
M  V30 32 H 1.536404 0.550954 -2.582442 0
M  V30 33 H 0.029811 1.431324 -2.834095 0
M  V30 34 H 0.686428 3.007192 -0.954954 0
M  V30 35 H 2.177636 1.987579 -0.721206 0
M  V30 36 H 1.418862 1.258766 1.458137 0
M  V30 37 H 1.466989 3.083042 1.383759 0
M  V30 38 H -1.463098 2.341523 1.059569 0
M  V30 39 H -1.681234 3.001792 3.621449 0
M  V30 40 H -2.101166 1.278823 5.583242 0
M  V30 41 H -0.486708 -3.442550 4.488709 0
M  V30 END ATOM
M  V30 BEGIN BOND
M  V30 1 2 1 2
M  V30 2 1 2 3
M  V30 3 1 2 4
M  V30 4 2 4 5
M  V30 5 1 5 6
M  V30 6 2 6 7
M  V30 7 1 7 8
M  V30 8 2 8 9
M  V30 9 1 9 10
M  V30 10 1 10 11
M  V30 11 1 11 12
M  V30 12 1 12 13
M  V30 13 1 13 14
M  V30 14 1 14 15
M  V30 15 1 15 16
M  V30 16 1 16 17
M  V30 17 1 17 18
M  V30 18 2 18 19
M  V30 19 1 19 20
M  V30 20 1 20 21
M  V30 21 2 21 22
M  V30 22 1 22 23
M  V30 23 2 23 24
M  V30 24 1 24 25
M  V30 25 1 9 4
M  V30 26 2 25 17
M  V30 27 1 23 7
M  V30 28 1 24 20
M  V30 29 1 3 26
M  V30 30 1 5 27
M  V30 31 1 6 28
M  V30 32 1 8 29
M  V30 33 1 11 30
M  V30 34 1 11 31
M  V30 35 1 12 32
M  V30 36 1 12 33
M  V30 37 1 14 34
M  V30 38 1 14 35
M  V30 39 1 15 36
M  V30 40 1 15 37
M  V30 41 1 16 38
M  V30 42 1 18 39
M  V30 43 1 19 40
M  V30 44 1 22 41
M  V30 END BOND
M  V30 END CTAB
M  END
>  <Dataset>  (246) 
ChEMBL_Kinases

>  <Ligand_Instance>  (246) 
nan

>  <PDB_ID>  (246) 
nan

>  <Standardized_SMILES>  (246) 
O=C(O)c1ccc2cc1OCCOCCNc1ccn3ncc-2c3n1

>  <Name>  (246) 
nan

>  <Pocket>  (246) 
nan

>  <ATP_Site>  (246) 
nan

>  <Peripheral>  (246) 
nan

>  <Num_H_Atoms_ProtBoundConf>  (246) 
nan

>  <Num_Resolved_Atoms>  (246) 
nan

>  <Num_Not_Resolved_Atoms>  (246) 
nan

$$$$
CHEMBL4795309
     RDKit          3D

  0  0  0  0  0  0  0  0  0  0999 V3000
M  V30 BEGIN CTAB
M  V30 COUNTS 37 41 0 0 0
M  V30 BEGIN ATOM
M  V30 1 C -0.515690 -5.209562 3.863792 0
M  V30 2 N 0.642811 -4.782658 3.097345 0
M  V30 3 C 0.705363 -3.485454 2.699157 0
M  V30 4 C 1.889202 -3.323784 1.992661 0
M  V30 5 C 2.462061 -2.127423 1.337241 0
M  V30 6 C 3.844203 -1.938257 1.238669 0
M  V30 7 N 4.306637 -0.815275 0.622878 0
M  V30 8 C 3.470581 0.094477 0.119239 0
M  V30 9 N 3.643078 1.263156 -0.523140 0
M  V30 10 N 2.480187 1.800653 -0.823469 0
M  V30 11 C 1.448824 1.032078 -0.404635 0
M  V30 12 C 0.044310 1.327834 -0.573152 0
M  V30 13 C -0.384640 2.493526 -1.217862 0
M  V30 14 C -1.753974 2.583882 -1.273744 0
M  V30 15 C -2.631783 3.507816 -1.787373 0
M  V30 16 C -3.977576 3.266833 -1.660644 0
M  V30 17 C -4.400768 2.118778 -1.029381 0
M  V30 18 N -3.518378 1.233538 -0.537036 0
M  V30 19 C -2.206261 1.450224 -0.650552 0
M  V30 20 N -1.116393 0.769639 -0.270438 0
M  V30 21 C 2.091383 -0.030509 0.182533 0
M  V30 22 C 1.643904 -1.156269 0.799918 0
M  V30 23 C 2.517955 -4.554739 1.986103 0
M  V30 24 N 1.731263 -5.421143 2.668151 0
M  V30 25 H -0.519262 -6.281067 4.083141 0
M  V30 26 H -0.591139 -4.551743 4.769891 0
M  V30 27 H -1.471124 -4.989999 3.307754 0
M  V30 28 H 0.011637 -2.660382 2.855694 0
M  V30 29 H 4.491595 -2.694507 1.657092 0
M  V30 30 H 4.535699 1.736832 -0.779943 0
M  V30 31 H 0.230035 3.292848 -1.655936 0
M  V30 32 H -2.253504 4.380911 -2.267156 0
M  V30 33 H -4.644117 3.998222 -2.067216 0
M  V30 34 H -5.454661 1.984526 -0.960307 0
M  V30 35 H -1.210029 -0.130947 0.225821 0
M  V30 36 H 0.588686 -1.329831 0.891200 0
M  V30 37 H 3.467531 -4.808646 1.526676 0
M  V30 END ATOM
M  V30 BEGIN BOND
M  V30 1 1 1 2
M  V30 2 1 2 3
M  V30 3 2 3 4
M  V30 4 1 4 5
M  V30 5 2 5 6
M  V30 6 1 6 7
M  V30 7 2 7 8
M  V30 8 1 8 9
M  V30 9 1 9 10
M  V30 10 2 10 11
M  V30 11 1 11 12
M  V30 12 2 12 13
M  V30 13 1 13 14
M  V30 14 2 14 15
M  V30 15 1 15 16
M  V30 16 2 16 17
M  V30 17 1 17 18
M  V30 18 2 18 19
M  V30 19 1 19 20
M  V30 20 1 11 21
M  V30 21 2 21 22
M  V30 22 1 4 23
M  V30 23 2 23 24
M  V30 24 1 24 2
M  V30 25 1 22 5
M  V30 26 1 21 8
M  V30 27 1 20 12
M  V30 28 1 19 14
M  V30 29 1 1 25
M  V30 30 1 1 26
M  V30 31 1 1 27
M  V30 32 1 3 28
M  V30 33 1 6 29
M  V30 34 1 9 30
M  V30 35 1 13 31
M  V30 36 1 15 32
M  V30 37 1 16 33
M  V30 38 1 17 34
M  V30 39 1 20 35
M  V30 40 1 22 36
M  V30 41 1 23 37
M  V30 END BOND
M  V30 END CTAB
M  END
>  <Dataset>  (247) 
ChEMBL_Kinases

>  <Ligand_Instance>  (247) 
nan

>  <PDB_ID>  (247) 
nan

>  <Standardized_SMILES>  (247) 
Cn1cc(-c2cnc3[nH]nc(-c4cc5cccnc5[nH]4)c3c2)cn1

>  <Name>  (247) 
nan

>  <Pocket>  (247) 
nan

>  <ATP_Site>  (247) 
nan

>  <Peripheral>  (247) 
nan

>  <Num_H_Atoms_ProtBoundConf>  (247) 
nan

>  <Num_Resolved_Atoms>  (247) 
nan

>  <Num_Not_Resolved_Atoms>  (247) 
nan

$$$$
CHEMBL4795330
     RDKit          3D

  0  0  0  0  0  0  0  0  0  0999 V3000
M  V30 BEGIN CTAB
M  V30 COUNTS 69 71 0 0 0
M  V30 BEGIN ATOM
M  V30 1 C 7.225390 -2.897801 1.575041 0
M  V30 2 C 5.762546 -2.596439 1.611176 0
M  V30 3 N 5.327922 -1.553839 0.717506 0
M  V30 4 C 5.854735 -0.302010 1.150151 0
M  V30 5 C 5.225761 0.126983 2.470459 0
M  V30 6 C 5.568468 -1.776535 -0.662839 0
M  V30 7 C 4.993080 -0.714118 -1.576378 0
M  V30 8 N 3.542915 -0.700254 -1.329117 0
M  V30 9 C 2.663910 0.182439 -2.005486 0
M  V30 10 O 3.288896 0.914365 -2.813977 0
M  V30 11 C 1.223273 0.303019 -1.857518 0
M  V30 12 C 0.528161 1.210185 -2.631241 0
M  V30 13 C 1.040982 2.162072 -3.671558 0
M  V30 14 N -0.772858 1.109817 -2.285545 0
M  V30 15 C -0.998767 0.209505 -1.345912 0
M  V30 16 C -2.176986 -0.289235 -0.659596 0
M  V30 17 C -3.339476 -0.703060 -1.106843 0
M  V30 18 C -3.663254 -0.733350 -2.523633 0
M  V30 19 O -2.927115 -0.408901 -3.460844 0
M  V30 20 N -4.994304 -1.212442 -2.610644 0
M  V30 21 C -5.456146 -1.463011 -1.288287 0
M  V30 22 C -6.671383 -1.935245 -0.802907 0
M  V30 23 C -6.904831 -2.103764 0.545310 0
M  V30 24 C -5.928330 -1.806003 1.476146 0
M  V30 25 C -6.113055 -1.964625 2.945092 0
M  V30 26 C -6.662734 -0.728384 3.594842 0
M  V30 27 N -5.867084 0.435172 3.458459 0
M  V30 28 C -4.542077 0.621800 3.904395 0
M  V30 29 C -3.831632 1.917666 3.681981 0
M  V30 30 O -4.017319 -0.360024 4.488623 0
M  V30 31 C -4.714328 -1.335489 1.015806 0
M  V30 32 C -4.492208 -1.170469 -0.345714 0
M  V30 33 C 0.276169 -0.308794 -1.068571 0
M  V30 34 C 0.610827 -1.350506 -0.084831 0
M  V30 35 H 7.781812 -2.328892 2.372562 0
M  V30 36 H 7.676484 -2.668053 0.611569 0
M  V30 37 H 7.453675 -3.962613 1.802574 0
M  V30 38 H 5.182118 -3.530315 1.446370 0
M  V30 39 H 5.494536 -2.259680 2.648561 0
M  V30 40 H 5.730478 0.486692 0.408700 0
M  V30 41 H 6.956035 -0.406195 1.360517 0
M  V30 42 H 4.139009 -0.059626 2.455660 0
M  V30 43 H 5.778577 -0.351572 3.281522 0
M  V30 44 H 5.371540 1.237034 2.572001 0
M  V30 45 H 5.180214 -2.788471 -0.933779 0
M  V30 46 H 6.666008 -1.835636 -0.921390 0
M  V30 47 H 5.459294 0.261498 -1.515085 0
M  V30 48 H 5.101957 -1.147603 -2.623917 0
M  V30 49 H 3.112997 -1.351816 -0.637441 0
M  V30 50 H 0.233916 2.795579 -4.037357 0
M  V30 51 H 1.768808 2.846218 -3.175132 0
M  V30 52 H 1.524958 1.622677 -4.502501 0
M  V30 53 H -1.517355 1.697234 -2.711958 0
M  V30 54 H -2.078795 -0.327918 0.438201 0
M  V30 55 H -5.483785 -1.333791 -3.524261 0
M  V30 56 H -7.448573 -2.172776 -1.528676 0
M  V30 57 H -7.861039 -2.475346 0.934485 0
M  V30 58 H -5.183691 -2.330013 3.376330 0
M  V30 59 H -6.874879 -2.760674 3.086454 0
M  V30 60 H -7.683312 -0.572133 3.241106 0
M  V30 61 H -6.755459 -0.963868 4.687605 0
M  V30 62 H -6.292397 1.279595 2.966438 0
M  V30 63 H -3.711815 2.106177 2.578787 0
M  V30 64 H -2.809700 1.884693 4.108549 0
M  V30 65 H -4.337717 2.768938 4.168790 0
M  V30 66 H -3.896836 -1.077360 1.648526 0
M  V30 67 H -0.338362 -1.612789 0.479743 0
M  V30 68 H 0.946102 -2.296478 -0.510483 0
M  V30 69 H 1.264882 -0.957221 0.747711 0
M  V30 END ATOM
M  V30 BEGIN BOND
M  V30 1 1 1 2
M  V30 2 1 2 3
M  V30 3 1 3 4
M  V30 4 1 4 5
M  V30 5 1 3 6
M  V30 6 1 6 7
M  V30 7 1 7 8
M  V30 8 1 8 9
M  V30 9 2 9 10
M  V30 10 1 9 11
M  V30 11 2 11 12
M  V30 12 1 12 13
M  V30 13 1 12 14
M  V30 14 1 14 15
M  V30 15 1 15 16
M  V30 16 2 16 17
M  V30 17 1 17 18
M  V30 18 2 18 19
M  V30 19 1 18 20
M  V30 20 1 20 21
M  V30 21 2 21 22
M  V30 22 1 22 23
M  V30 23 2 23 24
M  V30 24 1 24 25
M  V30 25 1 25 26
M  V30 26 1 26 27
M  V30 27 1 27 28
M  V30 28 1 28 29
M  V30 29 2 28 30
M  V30 30 1 24 31
M  V30 31 2 31 32
M  V30 32 2 15 33
M  V30 33 1 33 34
M  V30 34 1 33 11
M  V30 35 1 32 17
M  V30 36 1 32 21
M  V30 37 1 1 35
M  V30 38 1 1 36
M  V30 39 1 1 37
M  V30 40 1 2 38
M  V30 41 1 2 39
M  V30 42 1 4 40
M  V30 43 1 4 41
M  V30 44 1 5 42
M  V30 45 1 5 43
M  V30 46 1 5 44
M  V30 47 1 6 45
M  V30 48 1 6 46
M  V30 49 1 7 47
M  V30 50 1 7 48
M  V30 51 1 8 49
M  V30 52 1 13 50
M  V30 53 1 13 51
M  V30 54 1 13 52
M  V30 55 1 14 53
M  V30 56 1 16 54
M  V30 57 1 20 55
M  V30 58 1 22 56
M  V30 59 1 23 57
M  V30 60 1 25 58
M  V30 61 1 25 59
M  V30 62 1 26 60
M  V30 63 1 26 61
M  V30 64 1 27 62
M  V30 65 1 29 63
M  V30 66 1 29 64
M  V30 67 1 29 65
M  V30 68 1 31 66
M  V30 69 1 34 67
M  V30 70 1 34 68
M  V30 71 1 34 69
M  V30 END BOND
M  V30 END CTAB
M  END
>  <Dataset>  (248) 
ChEMBL_Kinases

>  <Ligand_Instance>  (248) 
nan

>  <PDB_ID>  (248) 
nan

>  <Standardized_SMILES>  (248) 
CCN(CC)CCNC(=O)c1c(C)[nH]c(/C=C2\C(=O)Nc3ccc(CCNC(C)=O)cc32)c1C

>  <Name>  (248) 
nan

>  <Pocket>  (248) 
nan

>  <ATP_Site>  (248) 
nan

>  <Peripheral>  (248) 
nan

>  <Num_H_Atoms_ProtBoundConf>  (248) 
nan

>  <Num_Resolved_Atoms>  (248) 
nan

>  <Num_Not_Resolved_Atoms>  (248) 
nan

$$$$
CHEMBL4795745
     RDKit          3D

  0  0  0  0  0  0  0  0  0  0999 V3000
M  V30 BEGIN CTAB
M  V30 COUNTS 69 74 0 0 0
M  V30 BEGIN ATOM
M  V30 1 C 2.958840 -1.405409 3.117716 0
M  V30 2 C 3.778971 -1.868004 1.934240 0
M  V30 3 C 4.099138 -3.322250 1.969738 0
M  V30 4 O 3.235550 -4.153555 1.311573 0
M  V30 5 C 2.748619 -3.706239 0.110749 0
M  V30 6 C 3.349757 -2.423927 -0.362373 0
M  V30 7 C 4.744869 -2.616322 -0.857343 0
M  V30 8 N 3.240705 -1.424496 0.667768 0
M  V30 9 C 3.748873 -0.133013 0.281433 0
M  V30 10 C 3.027582 0.399327 -0.883126 0
M  V30 11 C 1.908901 1.176608 -0.811584 0
M  V30 12 C 1.194921 1.702074 -1.870950 0
M  V30 13 N 0.031467 2.507490 -1.688307 0
M  V30 14 C -0.341055 2.711524 -0.331207 0
M  V30 15 C -1.211949 1.726038 0.083420 0
M  V30 16 C -1.719136 1.714740 1.387891 0
M  V30 17 O -2.593141 0.793780 1.932265 0
M  V30 18 C -3.177087 -0.272187 1.340957 0
M  V30 19 C -2.895161 -1.562157 1.801870 0
M  V30 20 N -3.604700 -2.387611 1.036208 0
M  V30 21 C -3.594051 -3.847514 1.188726 0
M  V30 22 C -2.879850 -4.694912 0.182808 0
M  V30 23 C -2.309577 -4.507015 1.580096 0
M  V30 24 N -4.287320 -1.721754 0.159049 0
M  V30 25 C -4.061163 -0.380703 0.300263 0
M  V30 26 C -4.794318 0.504111 -0.588168 0
M  V30 27 C -6.290958 0.525704 -0.171009 0
M  V30 28 C -5.957510 1.787818 0.596742 0
M  V30 29 F -6.900734 2.789956 0.481319 0
M  V30 30 F -5.534437 1.558227 1.881054 0
M  V30 31 C -4.814304 1.962680 -0.393091 0
M  V30 32 C -1.315261 2.733977 2.257971 0
M  V30 33 C -0.430271 3.706360 1.781611 0
M  V30 34 N 0.035050 3.682435 0.519975 0
M  V30 35 C 1.708468 1.377082 -3.103931 0
M  V30 36 C 2.847918 0.586819 -3.233585 0
M  V30 37 N 3.459670 0.131695 -2.140305 0
M  V30 38 H 2.908117 -2.235935 3.860860 0
M  V30 39 H 3.397871 -0.520805 3.632273 0
M  V30 40 H 1.952107 -1.099346 2.761139 0
M  V30 41 H 4.765479 -1.324602 2.029335 0
M  V30 42 H 5.128801 -3.509047 1.606827 0
M  V30 43 H 4.104257 -3.615710 3.060354 0
M  V30 44 H 1.644696 -3.717583 0.092511 0
M  V30 45 H 3.048434 -4.484485 -0.651386 0
M  V30 46 H 2.737560 -2.072041 -1.224374 0
M  V30 47 H 5.005023 -3.687123 -0.783607 0
M  V30 48 H 4.852881 -2.372214 -1.947125 0
M  V30 49 H 5.503763 -2.044465 -0.276427 0
M  V30 50 H 3.497716 0.550644 1.144580 0
M  V30 51 H 4.832754 -0.083952 0.137092 0
M  V30 52 H 1.557085 1.394563 0.209207 0
M  V30 53 H -0.420654 2.859809 -2.566487 0
M  V30 54 H -1.614407 0.878952 -0.465040 0
M  V30 55 H -2.234442 -1.877746 2.619779 0
M  V30 56 H -4.505786 -4.317092 1.610228 0
M  V30 57 H -3.299353 -5.682806 -0.101056 0
M  V30 58 H -2.302124 -4.195032 -0.628779 0
M  V30 59 H -2.357863 -5.382259 2.256355 0
M  V30 60 H -1.362115 -3.934352 1.659239 0
M  V30 61 H -4.741290 0.148504 -1.651805 0
M  V30 62 H -6.597944 -0.345970 0.424955 0
M  V30 63 H -6.906376 0.772060 -1.041963 0
M  V30 64 H -3.974171 2.533769 -0.055982 0
M  V30 65 H -5.258125 2.450190 -1.321822 0
M  V30 66 H -1.619463 2.852080 3.276585 0
M  V30 67 H -0.034148 4.548552 2.337796 0
M  V30 68 H 1.214311 1.744991 -3.998270 0
M  V30 69 H 3.278927 0.311295 -4.171128 0
M  V30 END ATOM
M  V30 BEGIN BOND
M  V30 1 1 1 2
M  V30 2 1 2 3
M  V30 3 1 3 4
M  V30 4 1 4 5
M  V30 5 1 5 6
M  V30 6 1 6 7
M  V30 7 1 6 8
M  V30 8 1 8 9
M  V30 9 1 9 10
M  V30 10 2 10 11
M  V30 11 1 11 12
M  V30 12 1 12 13
M  V30 13 1 13 14
M  V30 14 2 14 15
M  V30 15 1 15 16
M  V30 16 1 16 17
M  V30 17 1 17 18
M  V30 18 2 18 19
M  V30 19 1 19 20
M  V30 20 1 20 21
M  V30 21 1 21 22
M  V30 22 1 22 23
M  V30 23 1 20 24
M  V30 24 2 24 25
M  V30 25 1 25 26
M  V30 26 1 26 27
M  V30 27 1 27 28
M  V30 28 1 28 29
M  V30 29 1 28 30
M  V30 30 1 28 31
M  V30 31 2 16 32
M  V30 32 1 32 33
M  V30 33 2 33 34
M  V30 34 2 12 35
M  V30 35 1 35 36
M  V30 36 2 36 37
M  V30 37 1 8 2
M  V30 38 1 37 10
M  V30 39 1 34 14
M  V30 40 1 25 18
M  V30 41 1 31 26
M  V30 42 1 23 21
M  V30 43 1 1 38
M  V30 44 1 1 39
M  V30 45 1 1 40
M  V30 46 1 2 41
M  V30 47 1 3 42
M  V30 48 1 3 43
M  V30 49 1 5 44
M  V30 50 1 5 45
M  V30 51 1 6 46
M  V30 52 1 7 47
M  V30 53 1 7 48
M  V30 54 1 7 49
M  V30 55 1 9 50
M  V30 56 1 9 51
M  V30 57 1 11 52
M  V30 58 1 13 53
M  V30 59 1 15 54
M  V30 60 1 19 55
M  V30 61 1 21 56
M  V30 62 1 22 57
M  V30 63 1 22 58
M  V30 64 1 23 59
M  V30 65 1 23 60
M  V30 66 1 26 61
M  V30 67 1 27 62
M  V30 68 1 27 63
M  V30 69 1 31 64
M  V30 70 1 31 65
M  V30 71 1 32 66
M  V30 72 1 33 67
M  V30 73 1 35 68
M  V30 74 1 36 69
M  V30 END BOND
M  V30 END CTAB
M  END
>  <Dataset>  (249) 
ChEMBL_Kinases

>  <Ligand_Instance>  (249) 
nan

>  <PDB_ID>  (249) 
nan

>  <Standardized_SMILES>  (249) 
CC1COCC(C)N1Cc1cc(Nc2cc(Oc3cn(C4CC4)nc3C3CC(F)(F)C3)ccn2)ccn1

>  <Name>  (249) 
nan

>  <Pocket>  (249) 
nan

>  <ATP_Site>  (249) 
nan

>  <Peripheral>  (249) 
nan

>  <Num_H_Atoms_ProtBoundConf>  (249) 
nan

>  <Num_Resolved_Atoms>  (249) 
nan

>  <Num_Not_Resolved_Atoms>  (249) 
nan

$$$$
CHEMBL4795823
     RDKit          3D

  0  0  0  0  0  0  0  0  0  0999 V3000
M  V30 BEGIN CTAB
M  V30 COUNTS 59 64 0 0 0
M  V30 BEGIN ATOM
M  V30 1 C 1.333254 1.408063 4.547505 0
M  V30 2 C 2.180859 0.141457 4.725472 0
M  V30 3 C 1.652765 -0.592311 5.946909 0
M  V30 4 O 3.503857 0.534336 4.988480 0
M  V30 5 C 2.133598 -0.696516 3.518873 0
M  V30 6 C 3.014633 -0.669903 2.439372 0
M  V30 7 C 2.838745 -1.522080 1.339412 0
M  V30 8 N 3.842415 -1.342921 0.346412 0
M  V30 9 C 3.195479 -1.522561 -0.908541 0
M  V30 10 C 2.259800 -0.520191 -1.243161 0
M  V30 11 C 1.495044 -0.431948 -2.428446 0
M  V30 12 O 0.658052 0.714792 -2.413648 0
M  V30 13 C -0.634221 0.571932 -1.861659 0
M  V30 14 C -0.894384 1.318793 -0.719710 0
M  V30 15 N -2.171572 1.066224 -0.316944 0
M  V30 16 C -2.826993 1.648097 0.856656 0
M  V30 17 C -2.987344 0.837717 2.088113 0
M  V30 18 C -4.169631 0.974242 1.199780 0
M  V30 19 N -2.682345 0.203864 -1.168445 0
M  V30 20 C -1.780784 -0.115510 -2.115071 0
M  V30 21 C -1.852574 -1.032430 -3.303600 0
M  V30 22 C -1.520743 -2.449424 -3.107410 0
M  V30 23 C -1.565428 -2.942443 -1.677624 0
M  V30 24 O -2.737038 -2.470565 -1.129169 0
M  V30 25 C -3.660808 -2.503377 -2.160594 0
M  V30 26 C -2.968357 -2.002295 -3.394119 0
M  V30 27 C 1.704910 -1.445653 -3.337715 0
M  V30 28 C 2.616343 -2.419626 -3.007460 0
M  V30 29 N 3.319886 -2.471169 -1.879915 0
M  V30 30 C 1.771189 -2.389652 1.354456 0
M  V30 31 C 0.911908 -2.395471 2.437711 0
M  V30 32 N 1.100009 -1.569307 3.479419 0
M  V30 33 H 1.714777 2.202735 5.223193 0
M  V30 34 H 1.386926 1.788295 3.524241 0
M  V30 35 H 0.303743 1.150267 4.863129 0
M  V30 36 H 2.127402 -1.610074 5.919544 0
M  V30 37 H 1.915733 -0.056391 6.881398 0
M  V30 38 H 0.558216 -0.718028 5.793091 0
M  V30 39 H 4.124402 -0.124451 4.596481 0
M  V30 40 H 3.811291 0.073922 2.566459 0
M  V30 41 H 4.825448 -1.130613 0.525161 0
M  V30 42 H 2.130462 0.258405 -0.472519 0
M  V30 43 H -0.264314 2.024541 -0.149524 0
M  V30 44 H -2.813149 2.733999 0.962748 0
M  V30 45 H -3.051012 1.379189 3.051922 0
M  V30 46 H -2.531071 -0.162450 2.158535 0
M  V30 47 H -4.468758 0.083890 0.627279 0
M  V30 48 H -5.021960 1.643105 1.427968 0
M  V30 49 H -1.569058 -0.580981 -4.274317 0
M  V30 50 H -1.103416 -3.078300 -3.910034 0
M  V30 51 H -0.720179 -2.438501 -1.161519 0
M  V30 52 H -1.424747 -4.021516 -1.581196 0
M  V30 53 H -4.587933 -1.957648 -1.928133 0
M  V30 54 H -3.934669 -3.562207 -2.329520 0
M  V30 55 H -3.431392 -2.244458 -4.346859 0
M  V30 56 H 1.091371 -1.297158 -4.197535 0
M  V30 57 H 2.735365 -3.184739 -3.759089 0
M  V30 58 H 1.700412 -3.012640 0.475887 0
M  V30 59 H 0.084455 -3.087295 2.427416 0
M  V30 END ATOM
M  V30 BEGIN BOND
M  V30 1 1 1 2
M  V30 2 1 2 3
M  V30 3 1 2 4
M  V30 4 1 2 5
M  V30 5 2 5 6
M  V30 6 1 6 7
M  V30 7 1 7 8
M  V30 8 1 8 9
M  V30 9 2 9 10
M  V30 10 1 10 11
M  V30 11 1 11 12
M  V30 12 1 12 13
M  V30 13 2 13 14
M  V30 14 1 14 15
M  V30 15 1 15 16
M  V30 16 1 16 17
M  V30 17 1 17 18
M  V30 18 1 15 19
M  V30 19 2 19 20
M  V30 20 1 20 21
M  V30 21 1 21 22
M  V30 22 1 22 23
M  V30 23 1 23 24
M  V30 24 1 24 25
M  V30 25 1 25 26
M  V30 26 2 11 27
M  V30 27 1 27 28
M  V30 28 2 28 29
M  V30 29 2 7 30
M  V30 30 1 30 31
M  V30 31 2 31 32
M  V30 32 1 32 5
M  V30 33 1 29 9
M  V30 34 1 20 13
M  V30 35 1 26 21
M  V30 36 1 18 16
M  V30 37 1 26 22
M  V30 38 1 1 33
M  V30 39 1 1 34
M  V30 40 1 1 35
M  V30 41 1 3 36
M  V30 42 1 3 37
M  V30 43 1 3 38
M  V30 44 1 4 39
M  V30 45 1 6 40
M  V30 46 1 8 41
M  V30 47 1 10 42
M  V30 48 1 14 43
M  V30 49 1 16 44
M  V30 50 1 17 45
M  V30 51 1 17 46
M  V30 52 1 18 47
M  V30 53 1 18 48
M  V30 54 1 21 49
M  V30 55 1 22 50
M  V30 56 1 23 51
M  V30 57 1 23 52
M  V30 58 1 25 53
M  V30 59 1 25 54
M  V30 60 1 26 55
M  V30 61 1 27 56
M  V30 62 1 28 57
M  V30 63 1 30 58
M  V30 64 1 31 59
M  V30 END BOND
M  V30 END CTAB
M  END
>  <Dataset>  (250) 
ChEMBL_Kinases

>  <Ligand_Instance>  (250) 
nan

>  <PDB_ID>  (250) 
nan

>  <Standardized_SMILES>  (250) 
CC(C)(O)c1cc(Nc2cc(Oc3cn(C4CC4)nc3C3C4COCC43)ccn2)ccn1

>  <Name>  (250) 
nan

>  <Pocket>  (250) 
nan

>  <ATP_Site>  (250) 
nan

>  <Peripheral>  (250) 
nan

>  <Num_H_Atoms_ProtBoundConf>  (250) 
nan

>  <Num_Resolved_Atoms>  (250) 
nan

>  <Num_Not_Resolved_Atoms>  (250) 
nan

$$$$
CHEMBL4795918
     RDKit          3D

  0  0  0  0  0  0  0  0  0  0999 V3000
M  V30 BEGIN CTAB
M  V30 COUNTS 37 39 0 0 0
M  V30 BEGIN ATOM
M  V30 1 C -0.573463 -3.967079 0.968080 0
M  V30 2 O 0.307323 -4.533768 1.902428 0
M  V30 3 C 1.263842 -3.749539 2.528633 0
M  V30 4 C 2.127026 -4.299816 3.442903 0
M  V30 5 N 3.048102 -3.527434 4.041132 0
M  V30 6 C 3.153598 -2.226928 3.773237 0
M  V30 7 C 2.326469 -1.585711 2.865532 0
M  V30 8 N 2.480908 -0.200597 2.617339 0
M  V30 9 C 1.784905 0.685527 1.757053 0
M  V30 10 N 2.063910 1.982493 1.643567 0
M  V30 11 C 1.395123 2.790603 0.829552 0
M  V30 12 C 0.365876 2.311333 0.054479 0
M  V30 13 C -0.326277 3.312430 -0.783258 0
M  V30 14 F -1.627789 3.403356 -0.331148 0
M  V30 15 F -0.290677 2.984928 -2.125685 0
M  V30 16 F 0.269700 4.554170 -0.686652 0
M  V30 17 C 0.067871 0.980552 0.158805 0
M  V30 18 N -0.952949 0.406717 -0.635114 0
M  V30 19 C -1.969458 0.434612 -1.609361 0
M  V30 20 C -2.755089 -0.710931 -2.112706 0
M  V30 21 C -1.611461 -0.311270 -2.928219 0
M  V30 22 N 0.788737 0.239278 1.001136 0
M  V30 23 C 1.399819 -2.404264 2.275202 0
M  V30 24 H -0.047402 -3.355865 0.223292 0
M  V30 25 H -1.056989 -4.832669 0.431342 0
M  V30 26 H -1.410131 -3.414067 1.471344 0
M  V30 27 H 2.078795 -5.341710 3.689549 0
M  V30 28 H 3.934821 -1.670666 4.308067 0
M  V30 29 H 3.242589 0.280682 3.155968 0
M  V30 30 H 1.760517 3.825703 0.864905 0
M  V30 31 H -1.040470 -0.619044 -0.380233 0
M  V30 32 H -2.435576 1.450848 -1.776284 0
M  V30 33 H -2.728340 -1.684551 -1.579629 0
M  V30 34 H -3.773432 -0.471256 -2.464062 0
M  V30 35 H -1.642623 0.303623 -3.823393 0
M  V30 36 H -0.732060 -0.983077 -2.884534 0
M  V30 37 H 0.711903 -2.013042 1.559704 0
M  V30 END ATOM
M  V30 BEGIN BOND
M  V30 1 1 1 2
M  V30 2 1 2 3
M  V30 3 2 3 4
M  V30 4 1 4 5
M  V30 5 2 5 6
M  V30 6 1 6 7
M  V30 7 1 7 8
M  V30 8 1 8 9
M  V30 9 2 9 10
M  V30 10 1 10 11
M  V30 11 2 11 12
M  V30 12 1 12 13
M  V30 13 1 13 14
M  V30 14 1 13 15
M  V30 15 1 13 16
M  V30 16 1 12 17
M  V30 17 1 17 18
M  V30 18 1 18 19
M  V30 19 1 19 20
M  V30 20 1 20 21
M  V30 21 2 17 22
M  V30 22 2 7 23
M  V30 23 1 23 3
M  V30 24 1 22 9
M  V30 25 1 21 19
M  V30 26 1 1 24
M  V30 27 1 1 25
M  V30 28 1 1 26
M  V30 29 1 4 27
M  V30 30 1 6 28
M  V30 31 1 8 29
M  V30 32 1 11 30
M  V30 33 1 18 31
M  V30 34 1 19 32
M  V30 35 1 20 33
M  V30 36 1 20 34
M  V30 37 1 21 35
M  V30 38 1 21 36
M  V30 39 1 23 37
M  V30 END BOND
M  V30 END CTAB
M  END
>  <Dataset>  (251) 
ChEMBL_Kinases

>  <Ligand_Instance>  (251) 
nan

>  <PDB_ID>  (251) 
nan

>  <Standardized_SMILES>  (251) 
COc1cncc(Nc2ncc(C(F)(F)F)c(NC3CC3)n2)c1

>  <Name>  (251) 
nan

>  <Pocket>  (251) 
nan

>  <ATP_Site>  (251) 
nan

>  <Peripheral>  (251) 
nan

>  <Num_H_Atoms_ProtBoundConf>  (251) 
nan

>  <Num_Resolved_Atoms>  (251) 
nan

>  <Num_Not_Resolved_Atoms>  (251) 
nan

$$$$
CHEMBL4795965
     RDKit          3D

  0  0  0  0  0  0  0  0  0  0999 V3000
M  V30 BEGIN CTAB
M  V30 COUNTS 47 50 0 0 0
M  V30 BEGIN ATOM
M  V30 1 C 2.435357 -3.597267 0.164317 0
M  V30 2 C 2.614259 -2.147128 -0.212406 0
M  V30 3 C 2.122338 -1.967907 -1.621006 0
M  V30 4 N 4.038105 -1.798015 -0.135246 0
M  V30 5 C 5.009153 -2.724452 -0.376561 0
M  V30 6 N 6.215224 -2.128454 -0.235409 0
M  V30 7 N 5.991635 -0.860548 0.086342 0
M  V30 8 C 4.679936 -0.630856 0.154415 0
M  V30 9 C 3.889119 0.568544 0.463243 0
M  V30 10 C 4.126187 1.756924 -0.196170 0
M  V30 11 C 3.427998 2.932164 0.033878 0
M  V30 12 C 2.434492 2.862148 0.999263 0
M  V30 13 C 2.181235 1.676697 1.672916 0
M  V30 14 N 1.141081 1.619491 2.677719 0
M  V30 15 C -0.110579 1.257003 2.098128 0
M  V30 16 O -0.322383 1.012184 0.882405 0
M  V30 17 N -1.281800 1.132800 2.865380 0
M  V30 18 C -2.571825 0.776338 2.372458 0
M  V30 19 C -3.531471 1.659380 1.916250 0
M  V30 20 C -4.754382 1.189667 1.459242 0
M  V30 21 C -4.940895 -0.181964 1.490892 0
M  V30 22 C -6.170747 -0.628806 1.029298 0
M  V30 23 C -6.400644 -2.001826 1.043544 0
M  V30 24 C -5.478245 -2.938338 1.488885 0
M  V30 25 C -4.270904 -2.422682 1.936028 0
M  V30 26 C -3.987425 -1.072041 1.945155 0
M  V30 27 N -2.833989 -0.541296 2.369362 0
M  V30 28 N 2.899036 0.562204 1.402073 0
M  V30 29 H 1.475869 -3.733059 0.681831 0
M  V30 30 H 3.256738 -3.914449 0.861141 0
M  V30 31 H 2.432162 -4.262103 -0.709497 0
M  V30 32 H 2.048058 -1.551665 0.530661 0
M  V30 33 H 1.517032 -2.838309 -1.941845 0
M  V30 34 H 1.449878 -1.088040 -1.675884 0
M  V30 35 H 2.954098 -1.774727 -2.329604 0
M  V30 36 H 4.862336 -3.774555 -0.640486 0
M  V30 37 H 4.932104 1.722699 -0.945952 0
M  V30 38 H 3.656839 3.838058 -0.514312 0
M  V30 39 H 1.841427 3.758430 1.232025 0
M  V30 40 H 1.113639 1.782577 3.706849 0
M  V30 41 H -1.242984 1.313087 3.913076 0
M  V30 42 H -3.261796 2.707207 1.943417 0
M  V30 43 H -5.493025 1.890336 1.106467 0
M  V30 44 H -6.936209 0.050132 0.667380 0
M  V30 45 H -7.365962 -2.332517 0.679669 0
M  V30 46 H -5.681912 -3.989827 1.488653 0
M  V30 47 H -3.518072 -3.111511 2.293611 0
M  V30 END ATOM
M  V30 BEGIN BOND
M  V30 1 1 1 2
M  V30 2 1 2 3
M  V30 3 1 2 4
M  V30 4 1 4 5
M  V30 5 2 5 6
M  V30 6 1 6 7
M  V30 7 2 7 8
M  V30 8 1 8 9
M  V30 9 2 9 10
M  V30 10 1 10 11
M  V30 11 2 11 12
M  V30 12 1 12 13
M  V30 13 1 13 14
M  V30 14 1 14 15
M  V30 15 2 15 16
M  V30 16 1 15 17
M  V30 17 1 17 18
M  V30 18 2 18 19
M  V30 19 1 19 20
M  V30 20 2 20 21
M  V30 21 1 21 22
M  V30 22 2 22 23
M  V30 23 1 23 24
M  V30 24 2 24 25
M  V30 25 1 25 26
M  V30 26 2 26 27
M  V30 27 2 13 28
M  V30 28 1 8 4
M  V30 29 1 28 9
M  V30 30 1 27 18
M  V30 31 1 26 21
M  V30 32 1 1 29
M  V30 33 1 1 30
M  V30 34 1 1 31
M  V30 35 1 2 32
M  V30 36 1 3 33
M  V30 37 1 3 34
M  V30 38 1 3 35
M  V30 39 1 5 36
M  V30 40 1 10 37
M  V30 41 1 11 38
M  V30 42 1 12 39
M  V30 43 1 14 40
M  V30 44 1 17 41
M  V30 45 1 19 42
M  V30 46 1 20 43
M  V30 47 1 22 44
M  V30 48 1 23 45
M  V30 49 1 24 46
M  V30 50 1 25 47
M  V30 END BOND
M  V30 END CTAB
M  END
>  <Dataset>  (252) 
ChEMBL_Kinases

>  <Ligand_Instance>  (252) 
nan

>  <PDB_ID>  (252) 
nan

>  <Standardized_SMILES>  (252) 
CC(C)n1cnnc1-c1cccc(NC(=O)Nc2ccc3ccccc3n2)n1

>  <Name>  (252) 
nan

>  <Pocket>  (252) 
nan

>  <ATP_Site>  (252) 
nan

>  <Peripheral>  (252) 
nan

>  <Num_H_Atoms_ProtBoundConf>  (252) 
nan

>  <Num_Resolved_Atoms>  (252) 
nan

>  <Num_Not_Resolved_Atoms>  (252) 
nan

$$$$
CHEMBL4795993
     RDKit          3D

  0  0  0  0  0  0  0  0  0  0999 V3000
M  V30 BEGIN CTAB
M  V30 COUNTS 38 41 0 0 0
M  V30 BEGIN ATOM
M  V30 1 O -1.688941 -1.062523 4.388475 0
M  V30 2 C -0.762014 -0.796171 3.587531 0
M  V30 3 C 0.552673 -1.014990 3.915017 0
M  V30 4 C 1.584731 -0.726757 3.052090 0
M  V30 5 C 1.234964 -0.201800 1.827303 0
M  V30 6 C 2.284700 0.123699 0.869349 0
M  V30 7 C 3.439715 -0.652109 0.867913 0
M  V30 8 C 4.441787 -0.330008 -0.053236 0
M  V30 9 C 4.237304 0.734039 -0.909803 0
M  V30 10 C 5.026690 1.287300 -1.913056 0
M  V30 11 N 4.348750 2.318953 -2.445484 0
M  V30 12 N 3.171504 2.461323 -1.844339 0
M  V30 13 C 3.083594 1.502830 -0.903059 0
M  V30 14 C 2.072578 1.196479 0.009422 0
M  V30 15 C -0.104791 -0.013424 1.577249 0
M  V30 16 N -1.137168 -0.288560 2.407723 0
M  V30 17 C -2.449130 -0.005794 1.865820 0
M  V30 18 C -2.960747 -1.143304 1.069436 0
M  V30 19 C -2.822293 -0.988814 -0.309935 0
M  V30 20 C -3.206778 -1.908933 -1.279132 0
M  V30 21 C -3.776834 -3.081756 -0.834965 0
M  V30 22 C -3.927644 -3.264844 0.522193 0
M  V30 23 C -3.534185 -2.328948 1.447008 0
M  V30 24 F -3.697960 -2.511332 2.770346 0
M  V30 25 H 0.724526 -1.432260 4.905862 0
M  V30 26 H 2.608426 -0.909669 3.339904 0
M  V30 27 H 3.541597 -1.473317 1.563078 0
M  V30 28 H 5.336482 -0.927358 -0.058435 0
M  V30 29 H 6.022273 0.916696 -2.190470 0
M  V30 30 H 2.417488 3.176423 -2.035607 0
M  V30 31 H 1.163083 1.771645 0.041601 0
M  V30 32 H -0.281523 0.409294 0.576178 0
M  V30 33 H -3.171364 0.262314 2.678579 0
M  V30 34 H -2.368593 0.921600 1.262512 0
M  V30 35 H -2.379472 -0.087037 -0.750089 0
M  V30 36 H -3.078184 -1.740316 -2.328322 0
M  V30 37 H -4.095719 -3.833654 -1.541213 0
M  V30 38 H -4.374808 -4.180048 0.934736 0
M  V30 END ATOM
M  V30 BEGIN BOND
M  V30 1 2 1 2
M  V30 2 1 2 3
M  V30 3 2 3 4
M  V30 4 1 4 5
M  V30 5 1 5 6
M  V30 6 2 6 7
M  V30 7 1 7 8
M  V30 8 2 8 9
M  V30 9 1 9 10
M  V30 10 2 10 11
M  V30 11 1 11 12
M  V30 12 1 12 13
M  V30 13 2 13 14
M  V30 14 2 5 15
M  V30 15 1 15 16
M  V30 16 1 16 17
M  V30 17 1 17 18
M  V30 18 2 18 19
M  V30 19 1 19 20
M  V30 20 2 20 21
M  V30 21 1 21 22
M  V30 22 2 22 23
M  V30 23 1 23 24
M  V30 24 1 16 2
M  V30 25 1 23 18
M  V30 26 1 14 6
M  V30 27 1 13 9
M  V30 28 1 3 25
M  V30 29 1 4 26
M  V30 30 1 7 27
M  V30 31 1 8 28
M  V30 32 1 10 29
M  V30 33 1 12 30
M  V30 34 1 14 31
M  V30 35 1 15 32
M  V30 36 1 17 33
M  V30 37 1 17 34
M  V30 38 1 19 35
M  V30 39 1 20 36
M  V30 40 1 21 37
M  V30 41 1 22 38
M  V30 END BOND
M  V30 END CTAB
M  END
>  <Dataset>  (253) 
ChEMBL_Kinases

>  <Ligand_Instance>  (253) 
nan

>  <PDB_ID>  (253) 
nan

>  <Standardized_SMILES>  (253) 
O=c1ccc(-c2ccc3cn[nH]c3c2)cn1Cc1ccccc1F

>  <Name>  (253) 
nan

>  <Pocket>  (253) 
nan

>  <ATP_Site>  (253) 
nan

>  <Peripheral>  (253) 
nan

>  <Num_H_Atoms_ProtBoundConf>  (253) 
nan

>  <Num_Resolved_Atoms>  (253) 
nan

>  <Num_Not_Resolved_Atoms>  (253) 
nan

$$$$
CHEMBL4796087
     RDKit          3D

  0  0  0  0  0  0  0  0  0  0999 V3000
M  V30 BEGIN CTAB
M  V30 COUNTS 71 75 0 0 0
M  V30 BEGIN ATOM
M  V30 1 C 0.487557 -4.536832 6.218438 0
M  V30 2 C 0.374178 -3.870878 4.883588 0
M  V30 3 C 1.483851 -3.636463 4.101988 0
M  V30 4 C 1.325081 -3.015158 2.878307 0
M  V30 5 N 2.446727 -2.738685 2.018047 0
M  V30 6 C 2.967628 -1.534732 1.462300 0
M  V30 7 C 2.550793 -1.355410 0.139054 0
M  V30 8 C 2.952174 -0.242088 -0.556902 0
M  V30 9 N 2.653611 0.128107 -1.895750 0
M  V30 10 C 3.145262 1.322317 -2.547439 0
M  V30 11 C 2.377561 1.557880 -3.822381 0
M  V30 12 N 0.954614 1.548825 -3.502357 0
M  V30 13 C 0.172056 2.052733 -4.608970 0
M  V30 14 C -1.273097 2.145693 -4.216838 0
M  V30 15 N -1.555406 3.030587 -3.132076 0
M  V30 16 C -1.110511 2.661204 -1.840693 0
M  V30 17 C -2.959673 3.349399 -3.109466 0
M  V30 18 C 0.605019 0.133341 -3.284406 0
M  V30 19 C 1.824915 -0.591683 -2.839437 0
M  V30 20 N 3.748296 0.638983 0.097800 0
M  V30 21 C 4.156437 0.480202 1.367468 0
M  V30 22 N 3.752955 -0.631574 2.054320 0
M  V30 23 C 0.035326 -2.674622 2.541648 0
M  V30 24 O -0.090697 -2.112864 1.430059 0
M  V30 25 N -1.038668 -2.904851 3.308725 0
M  V30 26 C -0.921592 -3.513439 4.511095 0
M  V30 27 C -2.234598 -3.690845 5.134234 0
M  V30 28 O -2.472715 -4.217569 6.250233 0
M  V30 29 N -3.142609 -3.126787 4.172222 0
M  V30 30 C -2.435113 -2.536518 3.053258 0
M  V30 31 C -2.620634 -1.045044 3.207588 0
M  V30 32 C -2.497045 -0.243081 1.966926 0
M  V30 33 C -3.008785 -0.879969 0.719690 0
M  V30 34 C -3.784064 -2.164539 0.974316 0
M  V30 35 C -2.952609 -3.108064 1.784892 0
M  V30 36 H 0.179399 -3.806720 7.011463 0
M  V30 37 H -0.199793 -5.406508 6.311660 0
M  V30 38 H 1.510731 -4.874449 6.383415 0
M  V30 39 H 2.473082 -3.925464 4.419996 0
M  V30 40 H 2.867954 -3.691769 1.848330 0
M  V30 41 H 1.918815 -2.027347 -0.428055 0
M  V30 42 H 3.058738 2.224878 -1.903882 0
M  V30 43 H 4.210515 1.113288 -2.848023 0
M  V30 44 H 2.558752 0.832533 -4.613759 0
M  V30 45 H 2.633096 2.570049 -4.255703 0
M  V30 46 H 0.562254 2.984517 -5.026470 0
M  V30 47 H 0.254300 1.298314 -5.447894 0
M  V30 48 H -1.692952 1.121228 -4.003058 0
M  V30 49 H -1.886554 2.507241 -5.092811 0
M  V30 50 H -0.036889 2.561040 -1.677196 0
M  V30 51 H -1.483059 3.422654 -1.090845 0
M  V30 52 H -1.584423 1.701044 -1.473284 0
M  V30 53 H -3.525970 2.703853 -3.795456 0
M  V30 54 H -3.362746 3.172283 -2.086620 0
M  V30 55 H -3.054376 4.435965 -3.359086 0
M  V30 56 H -0.252703 0.026969 -2.625581 0
M  V30 57 H 0.307494 -0.326355 -4.272969 0
M  V30 58 H 2.494926 -0.932424 -3.672026 0
M  V30 59 H 1.454401 -1.537664 -2.335356 0
M  V30 60 H 4.794445 1.189288 1.889557 0
M  V30 61 H -4.165026 -3.180296 4.339098 0
M  V30 62 H -3.609770 -0.860784 3.678174 0
M  V30 63 H -1.778862 -0.718773 3.886800 0
M  V30 64 H -3.131663 0.683904 2.122391 0
M  V30 65 H -1.468639 0.208416 1.833230 0
M  V30 66 H -3.748417 -0.222249 0.167307 0
M  V30 67 H -2.190299 -1.041533 -0.041623 0
M  V30 68 H -3.965364 -2.621921 -0.023300 0
M  V30 69 H -4.705035 -1.880431 1.492159 0
M  V30 70 H -2.123560 -3.481382 1.113154 0
M  V30 71 H -3.591751 -4.028404 1.926380 0
M  V30 END ATOM
M  V30 BEGIN BOND
M  V30 1 1 1 2
M  V30 2 1 2 3
M  V30 3 2 3 4
M  V30 4 1 4 5
M  V30 5 1 5 6
M  V30 6 2 6 7
M  V30 7 1 7 8
M  V30 8 1 8 9
M  V30 9 1 9 10
M  V30 10 1 10 11
M  V30 11 1 11 12
M  V30 12 1 12 13
M  V30 13 1 13 14
M  V30 14 1 14 15
M  V30 15 1 15 16
M  V30 16 1 15 17
M  V30 17 1 12 18
M  V30 18 1 18 19
M  V30 19 2 8 20
M  V30 20 1 20 21
M  V30 21 2 21 22
M  V30 22 1 4 23
M  V30 23 2 23 24
M  V30 24 1 23 25
M  V30 25 1 25 26
M  V30 26 1 26 27
M  V30 27 2 27 28
M  V30 28 1 27 29
M  V30 29 1 29 30
M  V30 30 1 30 31
M  V30 31 1 31 32
M  V30 32 1 32 33
M  V30 33 1 33 34
M  V30 34 1 34 35
M  V30 35 2 26 2
M  V30 36 1 35 30
M  V30 37 1 22 6
M  V30 38 1 30 25
M  V30 39 1 19 9
M  V30 40 1 1 36
M  V30 41 1 1 37
M  V30 42 1 1 38
M  V30 43 1 3 39
M  V30 44 1 5 40
M  V30 45 1 7 41
M  V30 46 1 10 42
M  V30 47 1 10 43
M  V30 48 1 11 44
M  V30 49 1 11 45
M  V30 50 1 13 46
M  V30 51 1 13 47
M  V30 52 1 14 48
M  V30 53 1 14 49
M  V30 54 1 16 50
M  V30 55 1 16 51
M  V30 56 1 16 52
M  V30 57 1 17 53
M  V30 58 1 17 54
M  V30 59 1 17 55
M  V30 60 1 18 56
M  V30 61 1 18 57
M  V30 62 1 19 58
M  V30 63 1 19 59
M  V30 64 1 21 60
M  V30 65 1 29 61
M  V30 66 1 31 62
M  V30 67 1 31 63
M  V30 68 1 32 64
M  V30 69 1 32 65
M  V30 70 1 33 66
M  V30 71 1 33 67
M  V30 72 1 34 68
M  V30 73 1 34 69
M  V30 74 1 35 70
M  V30 75 1 35 71
M  V30 END BOND
M  V30 END CTAB
M  END
>  <Dataset>  (254) 
ChEMBL_Kinases

>  <Ligand_Instance>  (254) 
nan

>  <PDB_ID>  (254) 
nan

>  <Standardized_SMILES>  (254) 
Cc1cc(Nc2cc(N3CCN(CCN(C)C)CC3)ncn2)c(=O)n2c1C(=O)NC21CCCCC1

>  <Name>  (254) 
nan

>  <Pocket>  (254) 
nan

>  <ATP_Site>  (254) 
nan

>  <Peripheral>  (254) 
nan

>  <Num_H_Atoms_ProtBoundConf>  (254) 
nan

>  <Num_Resolved_Atoms>  (254) 
nan

>  <Num_Not_Resolved_Atoms>  (254) 
nan

$$$$
CHEMBL4795223
     RDKit          3D

  0  0  0  0  0  0  0  0  0  0999 V3000
M  V30 BEGIN CTAB
M  V30 COUNTS 32 34 0 0 0
M  V30 BEGIN ATOM
M  V30 1 C -0.701152 -3.479201 2.968879 0
M  V30 2 N -0.078058 -4.255782 1.923274 0
M  V30 3 C 0.515637 -3.640452 0.767962 0
M  V30 4 C 1.110677 -4.425047 -0.225692 0
M  V30 5 C 1.660205 -3.759333 -1.306268 0
M  V30 6 N 1.616306 -2.416624 -1.383518 0
M  V30 7 N 2.070442 -1.584753 -2.309457 0
M  V30 8 C 1.780821 -0.305841 -1.930872 0
M  V30 9 C 1.113884 -0.374021 -0.706155 0
M  V30 10 C 0.659660 0.832700 -0.018858 0
M  V30 11 C 1.544165 1.905315 0.058829 0
M  V30 12 C 1.083952 3.043850 0.720462 0
M  V30 13 N -0.140841 3.138415 1.266618 0
M  V30 14 C -1.000934 2.105619 1.195300 0
M  V30 15 O -2.293207 2.029658 1.698830 0
M  V30 16 C -2.859217 3.128939 2.388053 0
M  V30 17 C -0.595736 0.941605 0.545895 0
M  V30 18 C 1.028871 -1.717109 -0.393760 0
M  V30 19 N 0.471220 -2.283660 0.690007 0
M  V30 20 H 0.134614 -3.056934 3.581166 0
M  V30 21 H -1.316959 -2.637136 2.564313 0
M  V30 22 H -1.358838 -4.146871 3.543013 0
M  V30 23 H -0.045006 -5.312934 1.987027 0
M  V30 24 H 1.137597 -5.504061 -0.148339 0
M  V30 25 H 2.139740 -4.298069 -2.118003 0
M  V30 26 H 2.041256 0.563228 -2.507798 0
M  V30 27 H 2.547425 1.918923 -0.350864 0
M  V30 28 H 1.737767 3.892060 0.800782 0
M  V30 29 H -3.571698 2.795489 3.184673 0
M  V30 30 H -2.105260 3.760231 2.858277 0
M  V30 31 H -3.418327 3.731387 1.625223 0
M  V30 32 H -1.211118 0.066112 0.438371 0
M  V30 END ATOM
M  V30 BEGIN BOND
M  V30 1 1 1 2
M  V30 2 1 2 3
M  V30 3 1 3 4
M  V30 4 2 4 5
M  V30 5 1 5 6
M  V30 6 1 6 7
M  V30 7 2 7 8
M  V30 8 1 8 9
M  V30 9 1 9 10
M  V30 10 2 10 11
M  V30 11 1 11 12
M  V30 12 2 12 13
M  V30 13 1 13 14
M  V30 14 1 14 15
M  V30 15 1 15 16
M  V30 16 2 14 17
M  V30 17 2 9 18
M  V30 18 1 18 19
M  V30 19 2 19 3
M  V30 20 1 18 6
M  V30 21 1 17 10
M  V30 22 1 1 20
M  V30 23 1 1 21
M  V30 24 1 1 22
M  V30 25 1 2 23
M  V30 26 1 4 24
M  V30 27 1 5 25
M  V30 28 1 8 26
M  V30 29 1 11 27
M  V30 30 1 12 28
M  V30 31 1 16 29
M  V30 32 1 16 30
M  V30 33 1 16 31
M  V30 34 1 17 32
M  V30 END BOND
M  V30 END CTAB
M  END
>  <Dataset>  (255) 
ChEMBL_Kinases

>  <Ligand_Instance>  (255) 
nan

>  <PDB_ID>  (255) 
nan

>  <Standardized_SMILES>  (255) 
CNc1ccn2ncc(-c3ccnc(OC)c3)c2n1

>  <Name>  (255) 
nan

>  <Pocket>  (255) 
nan

>  <ATP_Site>  (255) 
nan

>  <Peripheral>  (255) 
nan

>  <Num_H_Atoms_ProtBoundConf>  (255) 
nan

>  <Num_Resolved_Atoms>  (255) 
nan

>  <Num_Not_Resolved_Atoms>  (255) 
nan

$$$$
CHEMBL160231
     RDKit          3D

  0  0  0  0  0  0  0  0  0  0999 V3000
M  V30 BEGIN CTAB
M  V30 COUNTS 37 39 0 0 0
M  V30 BEGIN ATOM
M  V30 1 C -1.565412 -5.308888 0.651388 0
M  V30 2 O -1.220748 -3.953215 0.780660 0
M  V30 3 C 0.042795 -3.478466 1.081508 0
M  V30 4 C 1.138494 -4.289943 1.284975 0
M  V30 5 C 2.378102 -3.780604 1.578214 0
M  V30 6 C 2.557448 -2.425127 1.677225 0
M  V30 7 C 1.460151 -1.637031 1.473101 0
M  V30 8 C 0.178688 -2.087458 1.173296 0
M  V30 9 C -0.961241 -1.215627 0.989749 0
M  V30 10 C -1.084463 -0.109288 0.294264 0
M  V30 11 N -0.253497 0.696438 -0.535310 0
M  V30 12 C 0.617030 1.817237 -0.420332 0
M  V30 13 C -0.064388 3.011933 -0.520389 0
M  V30 14 C 0.661712 4.204059 -0.430842 0
M  V30 15 C 2.040093 4.193773 -0.244812 0
M  V30 16 C 2.664136 2.966154 -0.151929 0
M  V30 17 O 4.039667 2.955682 0.033668 0
M  V30 18 C 1.980833 1.771773 -0.235955 0
M  V30 19 C -2.453557 0.426952 0.428960 0
M  V30 20 O -3.063566 1.445265 -0.033003 0
M  V30 21 N -3.193992 -0.458192 1.288580 0
M  V30 22 C -2.256312 -1.448165 1.613420 0
M  V30 23 O -2.569248 -2.426652 2.382178 0
M  V30 24 H -0.951683 -5.960348 1.302698 0
M  V30 25 H -2.628163 -5.495704 0.985109 0
M  V30 26 H -1.481440 -5.593523 -0.436960 0
M  V30 27 H 0.988216 -5.369478 1.204381 0
M  V30 28 H 3.161139 -4.500003 1.718021 0
M  V30 29 H 3.525437 -2.023739 1.905481 0
M  V30 30 H 1.557450 -0.570868 1.547400 0
M  V30 31 H -0.171328 0.506253 -1.560097 0
M  V30 32 H -1.100119 3.248277 -0.661964 0
M  V30 33 H 0.249187 5.224750 -0.494331 0
M  V30 34 H 2.624094 5.100004 -0.171843 0
M  V30 35 H 4.504615 2.210920 0.505285 0
M  V30 36 H 2.444274 0.799311 -0.171268 0
M  V30 37 H -4.196757 -0.402887 1.612445 0
M  V30 END ATOM
M  V30 BEGIN BOND
M  V30 1 1 1 2
M  V30 2 1 2 3
M  V30 3 2 3 4
M  V30 4 1 4 5
M  V30 5 2 5 6
M  V30 6 1 6 7
M  V30 7 2 7 8
M  V30 8 1 8 9
M  V30 9 2 9 10
M  V30 10 1 10 11
M  V30 11 1 11 12
M  V30 12 2 12 13
M  V30 13 1 13 14
M  V30 14 2 14 15
M  V30 15 1 15 16
M  V30 16 1 16 17
M  V30 17 2 16 18
M  V30 18 1 10 19
M  V30 19 2 19 20
M  V30 20 1 19 21
M  V30 21 1 21 22
M  V30 22 2 22 23
M  V30 23 1 8 3
M  V30 24 1 22 9
M  V30 25 1 18 12
M  V30 26 1 1 24
M  V30 27 1 1 25
M  V30 28 1 1 26
M  V30 29 1 4 27
M  V30 30 1 5 28
M  V30 31 1 6 29
M  V30 32 1 7 30
M  V30 33 1 11 31
M  V30 34 1 13 32
M  V30 35 1 14 33
M  V30 36 1 15 34
M  V30 37 1 17 35
M  V30 38 1 18 36
M  V30 39 1 21 37
M  V30 END BOND
M  V30 END CTAB
M  END
>  <Dataset>  (256) 
ChEMBL_Kinases

>  <Ligand_Instance>  (256) 
nan

>  <PDB_ID>  (256) 
nan

>  <Standardized_SMILES>  (256) 
COc1ccccc1C1=C(Nc2cccc(O)c2)C(=O)NC1=O

>  <Name>  (256) 
nan

>  <Pocket>  (256) 
nan

>  <ATP_Site>  (256) 
nan

>  <Peripheral>  (256) 
nan

>  <Num_H_Atoms_ProtBoundConf>  (256) 
nan

>  <Num_Resolved_Atoms>  (256) 
nan

>  <Num_Not_Resolved_Atoms>  (256) 
nan

$$$$
CHEMBL4878438
     RDKit          3D

  0  0  0  0  0  0  0  0  0  0999 V3000
M  V30 BEGIN CTAB
M  V30 COUNTS 45 47 0 0 0
M  V30 BEGIN ATOM
M  V30 1 N 2.351320 -3.772353 5.020795 0
M  V30 2 C 2.420600 -2.981693 4.168610 0
M  V30 3 C 2.504312 -1.990423 3.131577 0
M  V30 4 C 3.773755 -1.543185 2.874221 0
M  V30 5 N 3.882546 -0.623666 1.905119 0
M  V30 6 C 2.790410 -0.182335 1.236673 0
M  V30 7 N 2.970128 0.798445 0.240375 0
M  V30 8 C 2.875690 2.082678 -0.406030 0
M  V30 9 C 1.534436 2.242790 -0.972026 0
M  V30 10 C 1.481936 1.784907 -2.306682 0
M  V30 11 N 0.392702 1.739195 -3.101087 0
M  V30 12 C -0.783887 2.167766 -2.598408 0
M  V30 13 C -0.793574 2.624819 -1.308091 0
M  V30 14 C 0.322815 2.673924 -0.492483 0
M  V30 15 C 0.384790 3.189197 0.872682 0
M  V30 16 F 1.275078 4.249470 0.995507 0
M  V30 17 F -0.868913 3.792653 1.123811 0
M  V30 18 F 0.509807 2.247401 1.853397 0
M  V30 19 C 1.512418 -0.677722 1.544808 0
M  V30 20 C 1.344982 -1.615602 2.526917 0
M  V30 21 N 0.060713 -2.100103 2.874666 0
M  V30 22 C -1.203271 -1.765216 2.318851 0
M  V30 23 C -1.464513 -2.190056 0.914422 0 CFG=1
M  V30 24 C -1.409049 -3.691483 0.687464 0
M  V30 25 C -2.823248 -3.607793 0.122754 0 CFG=1
M  V30 26 O -3.698931 -4.509300 0.752201 0
M  V30 27 C -2.977952 -2.201963 0.619536 0
M  V30 28 H 4.653712 -1.872225 3.385881 0
M  V30 29 H 3.470708 0.171904 -0.467052 0
M  V30 30 H 3.633078 2.189940 -1.170219 0
M  V30 31 H 3.048974 2.823930 0.442539 0
M  V30 32 H 2.349880 1.400051 -2.868663 0
M  V30 33 H -1.724909 2.184813 -3.119675 0
M  V30 34 H -1.702592 2.975705 -0.847731 0
M  V30 35 H 0.726737 -0.267283 0.961986 0
M  V30 36 H 0.100928 -2.811251 3.664023 0
M  V30 37 H -2.004567 -2.258944 2.945778 0
M  V30 38 H -1.441827 -0.671509 2.435092 0
M  V30 39 H -0.933112 -1.681337 0.096892 0
M  V30 40 H -0.693496 -4.034244 -0.098712 0
M  V30 41 H -1.345523 -4.247171 1.662543 0
M  V30 42 H -2.881565 -3.736464 -0.964475 0
M  V30 43 H -3.939707 -4.134270 1.648863 0
M  V30 44 H -3.264186 -1.464366 -0.139526 0
M  V30 45 H -3.588797 -2.080636 1.553024 0
M  V30 END ATOM
M  V30 BEGIN BOND
M  V30 1 3 1 2
M  V30 2 1 2 3
M  V30 3 2 3 4
M  V30 4 1 4 5
M  V30 5 2 5 6
M  V30 6 1 6 7
M  V30 7 1 7 8
M  V30 8 1 8 9
M  V30 9 2 9 10
M  V30 10 1 10 11
M  V30 11 2 11 12
M  V30 12 1 12 13
M  V30 13 2 13 14
M  V30 14 1 14 15
M  V30 15 1 15 16
M  V30 16 1 15 17
M  V30 17 1 15 18
M  V30 18 1 6 19
M  V30 19 2 19 20
M  V30 20 1 20 21
M  V30 21 1 21 22
M  V30 22 1 22 23
M  V30 23 1 23 24
M  V30 24 1 24 25
M  V30 25 1 25 26
M  V30 26 1 25 27
M  V30 27 1 20 3
M  V30 28 1 27 23
M  V30 29 1 14 9
M  V30 30 1 4 28
M  V30 31 1 7 29
M  V30 32 1 8 30
M  V30 33 1 8 31
M  V30 34 1 10 32
M  V30 35 1 12 33
M  V30 36 1 13 34
M  V30 37 1 19 35
M  V30 38 1 21 36
M  V30 39 1 22 37
M  V30 40 1 22 38
M  V30 41 1 23 39 CFG=3
M  V30 42 1 24 40
M  V30 43 1 24 41
M  V30 44 1 25 42 CFG=3
M  V30 45 1 26 43
M  V30 46 1 27 44
M  V30 47 1 27 45
M  V30 END BOND
M  V30 END CTAB
M  END
>  <Dataset>  (257) 
ChEMBL_Kinases

>  <Ligand_Instance>  (257) 
nan

>  <PDB_ID>  (257) 
nan

>  <Standardized_SMILES>  (257) 
N#Cc1cnc(NCc2cnccc2C(F)(F)F)cc1NC[C@H]1C[C@@H](O)C1

>  <Name>  (257) 
nan

>  <Pocket>  (257) 
nan

>  <ATP_Site>  (257) 
nan

>  <Peripheral>  (257) 
nan

>  <Num_H_Atoms_ProtBoundConf>  (257) 
nan

>  <Num_Resolved_Atoms>  (257) 
nan

>  <Num_Not_Resolved_Atoms>  (257) 
nan

$$$$
CHEMBL4793486
     RDKit          3D

  0  0  0  0  0  0  0  0  0  0999 V3000
M  V30 BEGIN CTAB
M  V30 COUNTS 40 43 0 0 0
M  V30 BEGIN ATOM
M  V30 1 O 0.129209 -5.085040 1.696553 0
M  V30 2 C 0.186737 -3.822255 1.848173 0
M  V30 3 C 1.406887 -3.453941 1.151415 0
M  V30 4 N 1.741894 -2.040563 1.166708 0
M  V30 5 C 1.257479 -1.318812 0.144357 0
M  V30 6 C 1.569439 0.024544 0.121138 0
M  V30 7 C 1.131313 0.971486 -0.916683 0
M  V30 8 C 0.934261 0.605824 -2.244694 0
M  V30 9 C 0.521435 1.537255 -3.183347 0
M  V30 10 C 0.292426 2.858228 -2.830731 0
M  V30 11 C -0.117075 3.998873 -3.528255 0
M  V30 12 N -0.160259 5.008666 -2.636585 0
M  V30 13 N 0.194964 4.557154 -1.447959 0
M  V30 14 C 0.483576 3.242268 -1.510762 0
M  V30 15 C 0.898650 2.293670 -0.580005 0
M  V30 16 C 2.351695 0.559345 1.131195 0
M  V30 17 C 2.842702 -0.207333 2.180814 0
M  V30 18 C 2.502760 -1.550965 2.160745 0
M  V30 19 O 2.896239 -2.340682 3.068059 0
M  V30 20 C -0.896200 -3.216438 2.604847 0
M  V30 21 C -1.028542 -1.877194 2.881863 0
M  V30 22 C -2.057137 -1.310569 3.600658 0
M  V30 23 C -3.011405 -2.177941 4.064492 0
M  V30 24 C -2.938136 -3.514857 3.824327 0
M  V30 25 C -1.885613 -4.013995 3.100543 0
M  V30 26 H 1.393990 -3.828355 0.085872 0
M  V30 27 H 2.279541 -3.976516 1.629471 0
M  V30 28 H 0.645198 -1.705056 -0.658617 0
M  V30 29 H 1.119090 -0.426687 -2.492151 0
M  V30 30 H 0.368880 1.247053 -4.220831 0
M  V30 31 H -0.340730 4.004077 -4.579945 0
M  V30 32 H 0.235327 5.161455 -0.601611 0
M  V30 33 H 1.027087 2.651074 0.415004 0
M  V30 34 H 2.637074 1.610437 1.176852 0
M  V30 35 H 3.451542 0.188551 2.974509 0
M  V30 36 H -0.298856 -1.184457 2.531191 0
M  V30 37 H -2.115235 -0.250215 3.791346 0
M  V30 38 H -3.848474 -1.807273 4.636342 0
M  V30 39 H -3.703359 -4.160704 4.203513 0
M  V30 40 H -1.894894 -5.098555 2.948017 0
M  V30 END ATOM
M  V30 BEGIN BOND
M  V30 1 2 1 2
M  V30 2 1 2 3
M  V30 3 1 3 4
M  V30 4 1 4 5
M  V30 5 2 5 6
M  V30 6 1 6 7
M  V30 7 2 7 8
M  V30 8 1 8 9
M  V30 9 2 9 10
M  V30 10 1 10 11
M  V30 11 2 11 12
M  V30 12 1 12 13
M  V30 13 1 13 14
M  V30 14 2 14 15
M  V30 15 1 6 16
M  V30 16 2 16 17
M  V30 17 1 17 18
M  V30 18 2 18 19
M  V30 19 1 2 20
M  V30 20 2 20 21
M  V30 21 1 21 22
M  V30 22 2 22 23
M  V30 23 1 23 24
M  V30 24 2 24 25
M  V30 25 1 18 4
M  V30 26 1 25 20
M  V30 27 1 15 7
M  V30 28 1 14 10
M  V30 29 1 3 26
M  V30 30 1 3 27
M  V30 31 1 5 28
M  V30 32 1 8 29
M  V30 33 1 9 30
M  V30 34 1 11 31
M  V30 35 1 13 32
M  V30 36 1 15 33
M  V30 37 1 16 34
M  V30 38 1 17 35
M  V30 39 1 21 36
M  V30 40 1 22 37
M  V30 41 1 23 38
M  V30 42 1 24 39
M  V30 43 1 25 40
M  V30 END BOND
M  V30 END CTAB
M  END
>  <Dataset>  (258) 
ChEMBL_Kinases

>  <Ligand_Instance>  (258) 
nan

>  <PDB_ID>  (258) 
nan

>  <Standardized_SMILES>  (258) 
O=C(Cn1cc(-c2ccc3cn[nH]c3c2)ccc1=O)c1ccccc1

>  <Name>  (258) 
nan

>  <Pocket>  (258) 
nan

>  <ATP_Site>  (258) 
nan

>  <Peripheral>  (258) 
nan

>  <Num_H_Atoms_ProtBoundConf>  (258) 
nan

>  <Num_Resolved_Atoms>  (258) 
nan

>  <Num_Not_Resolved_Atoms>  (258) 
nan

$$$$
CHEMBL4793499
     RDKit          3D

  0  0  0  0  0  0  0  0  0  0999 V3000
M  V30 BEGIN CTAB
M  V30 COUNTS 60 64 0 0 0
M  V30 BEGIN ATOM
M  V30 1 C 3.032971 -0.855593 4.942235 0
M  V30 2 C 3.413600 -1.926786 3.939311 0
M  V30 3 N 4.261500 -1.463216 2.910567 0
M  V30 4 C 3.780212 -0.540556 1.957119 0
M  V30 5 C 2.775604 -0.986796 0.976992 0
M  V30 6 C 2.395475 0.127782 0.024292 0
M  V30 7 O 2.610446 1.369081 0.257227 0
M  V30 8 N 1.764771 0.017756 -1.238775 0
M  V30 9 C 1.503563 1.241624 -1.965003 0
M  V30 10 C 0.102221 1.321915 -2.489865 0
M  V30 11 N -0.661910 0.308546 -1.728575 0
M  V30 12 C -1.547983 0.741042 -0.674096 0
M  V30 13 N -0.964219 1.709898 0.047641 0
M  V30 14 C -1.450324 2.303774 1.120791 0
M  V30 15 N -2.659978 1.851844 1.484514 0
M  V30 16 C -3.251872 0.895547 0.781678 0
M  V30 17 S -4.818915 0.173275 1.075793 0
M  V30 18 C -4.775903 -0.961543 -0.324550 0
M  V30 19 C -3.542438 -0.717744 -0.947608 0
M  V30 20 C -2.789930 0.252846 -0.332995 0
M  V30 21 C -3.510709 -1.637776 -2.111694 0
M  V30 22 C -4.991395 -1.736684 -2.472400 0
M  V30 23 C -5.530127 -2.035672 -1.066798 0
M  V30 24 C -0.225478 -0.978050 -2.302539 0
M  V30 25 C 1.265069 -1.032473 -2.102960 0
M  V30 26 C 1.593173 -1.705028 1.427348 0
M  V30 27 C 1.206005 -3.030644 1.184327 0
M  V30 28 C 0.009906 -3.511212 1.708705 0
M  V30 29 C -0.803653 -2.687273 2.470505 0
M  V30 30 Cl -2.288449 -3.396606 3.081009 0
M  V30 31 C -0.441187 -1.377272 2.722040 0
M  V30 32 C 0.761922 -0.884201 2.198926 0
M  V30 33 H 3.139017 0.155589 4.489837 0
M  V30 34 H 3.662596 -0.894890 5.852503 0
M  V30 35 H 1.980599 -0.958719 5.272507 0
M  V30 36 H 2.559747 -2.543289 3.642465 0
M  V30 37 H 4.055566 -2.650001 4.552953 0
M  V30 38 H 5.206912 -1.254624 3.286484 0
M  V30 39 H 4.687982 -0.217772 1.349489 0
M  V30 40 H 3.514253 0.395012 2.501707 0
M  V30 41 H 3.333457 -1.721644 0.316842 0
M  V30 42 H 2.190966 1.333861 -2.842047 0
M  V30 43 H 1.694564 2.121524 -1.318707 0
M  V30 44 H 0.003529 1.182370 -3.573794 0
M  V30 45 H -0.367857 2.309607 -2.239945 0
M  V30 46 H -1.040408 3.067794 1.725956 0
M  V30 47 H -2.936960 -1.224815 -2.964282 0
M  V30 48 H -3.192608 -2.607400 -1.740447 0
M  V30 49 H -5.219471 -2.518491 -3.194191 0
M  V30 50 H -5.391255 -0.725876 -2.719375 0
M  V30 51 H -6.612401 -1.868960 -1.014746 0
M  V30 52 H -5.187577 -3.005696 -0.706508 0
M  V30 53 H -0.691523 -1.823412 -1.806377 0
M  V30 54 H -0.488287 -1.020134 -3.383643 0
M  V30 55 H 1.485493 -1.985356 -1.541582 0
M  V30 56 H 1.808981 -1.021670 -3.075034 0
M  V30 57 H 1.920638 -3.566286 0.581132 0
M  V30 58 H -0.219324 -4.544054 1.476383 0
M  V30 59 H -1.102098 -0.757539 3.324411 0
M  V30 60 H 0.940177 0.150102 2.459718 0
M  V30 END ATOM
M  V30 BEGIN BOND
M  V30 1 1 1 2
M  V30 2 1 2 3
M  V30 3 1 3 4
M  V30 4 1 4 5
M  V30 5 1 5 6
M  V30 6 2 6 7
M  V30 7 1 6 8
M  V30 8 1 8 9
M  V30 9 1 9 10
M  V30 10 1 10 11
M  V30 11 1 11 12
M  V30 12 2 12 13
M  V30 13 1 13 14
M  V30 14 2 14 15
M  V30 15 1 15 16
M  V30 16 1 16 17
M  V30 17 1 17 18
M  V30 18 2 18 19
M  V30 19 1 19 20
M  V30 20 1 19 21
M  V30 21 1 21 22
M  V30 22 1 22 23
M  V30 23 1 11 24
M  V30 24 1 24 25
M  V30 25 1 5 26
M  V30 26 2 26 27
M  V30 27 1 27 28
M  V30 28 2 28 29
M  V30 29 1 29 30
M  V30 30 1 29 31
M  V30 31 2 31 32
M  V30 32 1 25 8
M  V30 33 1 32 26
M  V30 34 1 20 12
M  V30 35 2 20 16
M  V30 36 1 23 18
M  V30 37 1 1 33
M  V30 38 1 1 34
M  V30 39 1 1 35
M  V30 40 1 2 36
M  V30 41 1 2 37
M  V30 42 1 3 38
M  V30 43 1 4 39
M  V30 44 1 4 40
M  V30 45 1 5 41
M  V30 46 1 9 42
M  V30 47 1 9 43
M  V30 48 1 10 44
M  V30 49 1 10 45
M  V30 50 1 14 46
M  V30 51 1 21 47
M  V30 52 1 21 48
M  V30 53 1 22 49
M  V30 54 1 22 50
M  V30 55 1 23 51
M  V30 56 1 23 52
M  V30 57 1 24 53
M  V30 58 1 24 54
M  V30 59 1 25 55
M  V30 60 1 25 56
M  V30 61 1 27 57
M  V30 62 1 28 58
M  V30 63 1 31 59
M  V30 64 1 32 60
M  V30 END BOND
M  V30 END CTAB
M  END
>  <Dataset>  (259) 
ChEMBL_Kinases

>  <Ligand_Instance>  (259) 
nan

>  <PDB_ID>  (259) 
nan

>  <Standardized_SMILES>  (259) 
CCNCC(C(=O)N1CCN(c2ncnc3sc4c(c23)CCC4)CC1)c1ccc(Cl)cc1

>  <Name>  (259) 
nan

>  <Pocket>  (259) 
nan

>  <ATP_Site>  (259) 
nan

>  <Peripheral>  (259) 
nan

>  <Num_H_Atoms_ProtBoundConf>  (259) 
nan

>  <Num_Resolved_Atoms>  (259) 
nan

>  <Num_Not_Resolved_Atoms>  (259) 
nan

$$$$
CHEMBL160012
     RDKit          3D

  0  0  0  0  0  0  0  0  0  0999 V3000
M  V30 BEGIN CTAB
M  V30 COUNTS 26 28 0 0 0
M  V30 BEGIN ATOM
M  V30 1 O -2.898802 -4.939206 1.213830 0
M  V30 2 N -1.808601 -4.884951 1.837214 0 CHG=1 VAL=4
M  V30 3 O -1.423667 -5.954111 2.622768 0 CHG=-1 VAL=1
M  V30 4 C -1.036357 -3.700059 1.683139 0
M  V30 5 C 0.170707 -3.570914 2.337485 0
M  V30 6 C 1.025102 -2.471989 2.277175 0
M  V30 7 C 0.562663 -1.450223 1.469901 0
M  V30 8 N 1.190641 -0.265116 1.229491 0
M  V30 9 C 0.360594 0.411443 0.381864 0
M  V30 10 C 0.598975 1.743820 -0.167929 0
M  V30 11 C -0.289926 2.373328 -1.026170 0
M  V30 12 C -0.075285 3.630794 -1.551243 0
M  V30 13 N 1.067716 4.294178 -1.212904 0
M  V30 14 C 1.928197 3.675112 -0.377071 0
M  V30 15 C 1.753633 2.425669 0.167783 0
M  V30 16 N -0.720198 -0.349156 0.131070 0
M  V30 17 C -0.636469 -1.520398 0.789657 0
M  V30 18 C -1.438601 -2.643546 0.893790 0
M  V30 19 H 0.478388 -4.420748 2.962928 0
M  V30 20 H 1.951810 -2.468769 2.829383 0
M  V30 21 H 2.109579 0.057348 1.611188 0
M  V30 22 H -1.173290 1.794210 -1.253137 0
M  V30 23 H -0.876974 3.976201 -2.209753 0
M  V30 24 H 2.833851 4.225317 -0.121755 0
M  V30 25 H 2.494351 1.990797 0.836343 0
M  V30 26 H -2.372080 -2.695961 0.363097 0
M  V30 END ATOM
M  V30 BEGIN BOND
M  V30 1 2 1 2
M  V30 2 1 2 3
M  V30 3 1 2 4
M  V30 4 2 4 5
M  V30 5 1 5 6
M  V30 6 2 6 7
M  V30 7 1 7 8
M  V30 8 1 8 9
M  V30 9 1 9 10
M  V30 10 2 10 11
M  V30 11 1 11 12
M  V30 12 2 12 13
M  V30 13 1 13 14
M  V30 14 2 14 15
M  V30 15 2 9 16
M  V30 16 1 16 17
M  V30 17 2 17 18
M  V30 18 1 18 4
M  V30 19 1 17 7
M  V30 20 1 15 10
M  V30 21 1 5 19
M  V30 22 1 6 20
M  V30 23 1 8 21
M  V30 24 1 11 22
M  V30 25 1 12 23
M  V30 26 1 14 24
M  V30 27 1 15 25
M  V30 28 1 18 26
M  V30 END BOND
M  V30 END CTAB
M  END
>  <Dataset>  (260) 
ChEMBL_Kinases

>  <Ligand_Instance>  (260) 
nan

>  <PDB_ID>  (260) 
nan

>  <Standardized_SMILES>  (260) 
O=[N+]([O-])c1ccc2[nH]c(-c3ccncc3)nc2c1

>  <Name>  (260) 
nan

>  <Pocket>  (260) 
nan

>  <ATP_Site>  (260) 
nan

>  <Peripheral>  (260) 
nan

>  <Num_H_Atoms_ProtBoundConf>  (260) 
nan

>  <Num_Resolved_Atoms>  (260) 
nan

>  <Num_Not_Resolved_Atoms>  (260) 
nan

$$$$
CHEMBL4793819
     RDKit          3D

  0  0  0  0  0  0  0  0  0  0999 V3000
M  V30 BEGIN CTAB
M  V30 COUNTS 59 61 0 0 0
M  V30 BEGIN ATOM
M  V30 1 C 3.438934 -0.597813 2.485029 0
M  V30 2 C 2.909060 -1.190587 1.196519 0
M  V30 3 C 2.777083 -2.700138 1.341317 0
M  V30 4 C 3.870723 -0.915217 0.071468 0
M  V30 5 O 1.608023 -0.692458 0.936404 0
M  V30 6 C 1.365185 0.663154 0.775786 0
M  V30 7 O 2.518630 1.169195 0.924183 0
M  V30 8 N 0.164461 1.374948 0.511700 0
M  V30 9 C 0.340986 2.809336 0.417777 0
M  V30 10 C 0.650909 3.284135 -0.984506 0
M  V30 11 O 0.825092 4.632491 -1.102082 0
M  V30 12 C -0.222929 5.440665 -0.765469 0
M  V30 13 C -1.475506 5.248934 -1.571933 0
M  V30 14 O -2.498742 6.114770 -1.160916 0
M  V30 15 C -1.074679 0.701058 0.362491 0
M  V30 16 C -2.212920 1.399945 0.119162 0
M  V30 17 C -3.435987 0.781364 -0.034062 0
M  V30 18 N -3.482141 -0.562227 0.064601 0
M  V30 19 N -4.457445 -1.440265 -0.027598 0
M  V30 20 C -3.999574 -2.687316 0.146519 0
M  V30 21 C -2.625562 -2.561838 0.364122 0
M  V30 22 C -1.842096 -3.762777 0.591821 0
M  V30 23 C -2.042975 -4.862773 -0.250980 0
M  V30 24 C -1.385880 -6.084119 -0.172786 0
M  V30 25 C -0.453759 -6.201405 0.835909 0
M  V30 26 C 0.237387 -7.484911 0.918943 0
M  V30 27 O 0.038679 -8.458431 0.148939 0
M  V30 28 O 1.207573 -7.807683 1.857520 0
M  V30 29 C -0.211867 -5.152005 1.697815 0
M  V30 30 O 0.732673 -5.347279 2.677516 0
M  V30 31 C -0.892581 -3.967342 1.571952 0
M  V30 32 C -2.313137 -1.219434 0.309945 0
M  V30 33 N -1.093675 -0.641445 0.465751 0
M  V30 34 H 2.635181 -0.139456 3.112398 0
M  V30 35 H 3.852510 -1.428616 3.102668 0
M  V30 36 H 4.293945 0.084223 2.302266 0
M  V30 37 H 2.851624 -3.199726 0.374119 0
M  V30 38 H 1.817335 -2.974501 1.824932 0
M  V30 39 H 3.575542 -3.018500 2.067836 0
M  V30 40 H 3.402656 -0.247476 -0.706532 0
M  V30 41 H 4.202479 -1.863313 -0.423219 0
M  V30 42 H 4.778583 -0.454483 0.481393 0
M  V30 43 H -0.580266 3.281132 0.820460 0
M  V30 44 H 1.156035 3.149373 1.088983 0
M  V30 45 H -0.084484 2.862429 -1.711104 0
M  V30 46 H 1.617721 2.809073 -1.251773 0
M  V30 47 H 0.115283 6.493371 -0.997793 0
M  V30 48 H -0.429803 5.472545 0.325446 0
M  V30 49 H -1.264528 5.543439 -2.642562 0
M  V30 50 H -1.861241 4.233705 -1.528845 0
M  V30 51 H -2.642805 6.088883 -0.169958 0
M  V30 52 H -2.267999 2.472915 0.026635 0
M  V30 53 H -4.373958 1.309725 -0.230984 0
M  V30 54 H -4.626524 -3.565642 0.111831 0
M  V30 55 H -2.779720 -4.753310 -1.039488 0
M  V30 56 H -1.631039 -6.854116 -0.883228 0
M  V30 57 H 2.020446 -8.379675 1.629866 0
M  V30 58 H 0.648799 -6.089841 3.368073 0
M  V30 59 H -0.720844 -3.129621 2.235272 0
M  V30 END ATOM
M  V30 BEGIN BOND
M  V30 1 1 1 2
M  V30 2 1 2 3
M  V30 3 1 2 4
M  V30 4 1 2 5
M  V30 5 1 5 6
M  V30 6 2 6 7
M  V30 7 1 6 8
M  V30 8 1 8 9
M  V30 9 1 9 10
M  V30 10 1 10 11
M  V30 11 1 11 12
M  V30 12 1 12 13
M  V30 13 1 13 14
M  V30 14 1 8 15
M  V30 15 1 15 16
M  V30 16 2 16 17
M  V30 17 1 17 18
M  V30 18 1 18 19
M  V30 19 2 19 20
M  V30 20 1 20 21
M  V30 21 1 21 22
M  V30 22 2 22 23
M  V30 23 1 23 24
M  V30 24 2 24 25
M  V30 25 1 25 26
M  V30 26 2 26 27
M  V30 27 1 26 28
M  V30 28 1 25 29
M  V30 29 1 29 30
M  V30 30 2 29 31
M  V30 31 2 21 32
M  V30 32 1 32 33
M  V30 33 2 33 15
M  V30 34 1 32 18
M  V30 35 1 31 22
M  V30 36 1 1 34
M  V30 37 1 1 35
M  V30 38 1 1 36
M  V30 39 1 3 37
M  V30 40 1 3 38
M  V30 41 1 3 39
M  V30 42 1 4 40
M  V30 43 1 4 41
M  V30 44 1 4 42
M  V30 45 1 9 43
M  V30 46 1 9 44
M  V30 47 1 10 45
M  V30 48 1 10 46
M  V30 49 1 12 47
M  V30 50 1 12 48
M  V30 51 1 13 49
M  V30 52 1 13 50
M  V30 53 1 14 51
M  V30 54 1 16 52
M  V30 55 1 17 53
M  V30 56 1 20 54
M  V30 57 1 23 55
M  V30 58 1 24 56
M  V30 59 1 28 57
M  V30 60 1 30 58
M  V30 61 1 31 59
M  V30 END BOND
M  V30 END CTAB
M  END
>  <Dataset>  (261) 
ChEMBL_Kinases

>  <Ligand_Instance>  (261) 
nan

>  <PDB_ID>  (261) 
nan

>  <Standardized_SMILES>  (261) 
CC(C)(C)OC(=O)N(CCOCCO)c1ccn2ncc(-c3ccc(C(=O)O)c(O)c3)c2n1

>  <Name>  (261) 
nan

>  <Pocket>  (261) 
nan

>  <ATP_Site>  (261) 
nan

>  <Peripheral>  (261) 
nan

>  <Num_H_Atoms_ProtBoundConf>  (261) 
nan

>  <Num_Resolved_Atoms>  (261) 
nan

>  <Num_Not_Resolved_Atoms>  (261) 
nan

$$$$
CHEMBL4878373
     RDKit          3D

  0  0  0  0  0  0  0  0  0  0999 V3000
M  V30 BEGIN CTAB
M  V30 COUNTS 22 24 0 0 0
M  V30 BEGIN ATOM
M  V30 1 Br -1.339949 -0.172199 5.183780 0
M  V30 2 C -0.133491 -0.712395 3.823821 0
M  V30 3 C 0.791605 -1.715945 4.067164 0
M  V30 4 N 1.705082 -2.186877 3.172584 0
M  V30 5 C 1.663432 -1.585527 1.947863 0
M  V30 6 N 2.419726 -1.804782 0.834804 0
M  V30 7 N 2.033854 -0.984428 -0.143486 0
M  V30 8 C 1.015686 -0.203178 0.294181 0
M  V30 9 C 0.307404 0.827382 -0.464363 0
M  V30 10 C -0.077919 0.514577 -1.770619 0
M  V30 11 N -0.741184 1.435337 -2.526290 0
M  V30 12 C -0.999595 2.645294 -1.949870 0
M  V30 13 N -0.636653 2.964324 -0.694528 0
M  V30 14 C 0.028989 2.071355 0.095658 0
M  V30 15 C 0.784603 -0.579402 1.601536 0
M  V30 16 C -0.104145 -0.167632 2.573187 0
M  V30 17 H 0.841734 -2.209450 5.038703 0
M  V30 18 H 3.198284 -2.503653 0.721583 0
M  V30 19 H 0.151953 -0.465291 -2.184710 0
M  V30 20 H -1.530997 3.395395 -2.542627 0
M  V30 21 H 0.319314 2.313657 1.086624 0
M  V30 22 H -0.811207 0.615857 2.351264 0
M  V30 END ATOM
M  V30 BEGIN BOND
M  V30 1 1 1 2
M  V30 2 2 2 3
M  V30 3 1 3 4
M  V30 4 2 4 5
M  V30 5 1 5 6
M  V30 6 1 6 7
M  V30 7 2 7 8
M  V30 8 1 8 9
M  V30 9 2 9 10
M  V30 10 1 10 11
M  V30 11 2 11 12
M  V30 12 1 12 13
M  V30 13 2 13 14
M  V30 14 1 8 15
M  V30 15 2 15 16
M  V30 16 1 16 2
M  V30 17 1 15 5
M  V30 18 1 14 9
M  V30 19 1 3 17
M  V30 20 1 6 18
M  V30 21 1 10 19
M  V30 22 1 12 20
M  V30 23 1 14 21
M  V30 24 1 16 22
M  V30 END BOND
M  V30 END CTAB
M  END
>  <Dataset>  (262) 
ChEMBL_Kinases

>  <Ligand_Instance>  (262) 
nan

>  <PDB_ID>  (262) 
nan

>  <Standardized_SMILES>  (262) 
Brc1cnc2[nH]nc(-c3cncnc3)c2c1

>  <Name>  (262) 
nan

>  <Pocket>  (262) 
nan

>  <ATP_Site>  (262) 
nan

>  <Peripheral>  (262) 
nan

>  <Num_H_Atoms_ProtBoundConf>  (262) 
nan

>  <Num_Resolved_Atoms>  (262) 
nan

>  <Num_Not_Resolved_Atoms>  (262) 
nan

$$$$
CHEMBL4793971
     RDKit          3D

  0  0  0  0  0  0  0  0  0  0999 V3000
M  V30 BEGIN CTAB
M  V30 COUNTS 60 64 0 0 0
M  V30 BEGIN ATOM
M  V30 1 C -0.239171 -3.789448 5.178059 0
M  V30 2 C -0.077973 -3.514206 3.719904 0
M  V30 3 C 1.129321 -3.048094 3.187384 0
M  V30 4 C 1.242619 -2.803345 1.831243 0
M  V30 5 N 2.495733 -2.335067 1.349244 0
M  V30 6 C 2.756741 -1.106069 0.684702 0
M  V30 7 C 1.809132 -0.161945 0.428366 0
M  V30 8 C 2.157911 1.014608 -0.233513 0
M  V30 9 N 1.194669 2.028109 -0.519649 0
M  V30 10 C 1.615634 3.213660 -1.204146 0
M  V30 11 C 2.663044 3.898246 -0.391398 0
M  V30 12 C 2.380571 5.381892 -0.380781 0
M  V30 13 N 2.205241 5.786473 -1.770042 0
M  V30 14 C 0.882316 5.387824 -2.204861 0
M  V30 15 C 0.442483 4.087734 -1.582581 0
M  V30 16 N 3.461731 1.168677 -0.601715 0
M  V30 17 C 4.396938 0.233374 -0.346844 0
M  V30 18 N 4.025297 -0.889262 0.293369 0
M  V30 19 C 0.148800 -3.026354 1.019060 0
M  V30 20 O 0.235161 -2.809295 -0.216194 0
M  V30 21 N -1.020617 -3.478231 1.538365 0
M  V30 22 C -1.143565 -3.722292 2.869547 0
M  V30 23 C -2.484330 -4.191990 3.143638 0
M  V30 24 O -3.007665 -4.530453 4.259642 0
M  V30 25 N -3.163484 -4.212918 1.870169 0
M  V30 26 C -2.273897 -3.767175 0.831788 0
M  V30 27 C -2.132267 -4.853498 -0.189132 0
M  V30 28 C -2.929132 -4.585472 -1.446425 0
M  V30 29 C -4.268173 -3.961584 -1.189860 0
M  V30 30 C -4.207883 -2.775264 -0.263691 0
M  V30 31 C -2.775450 -2.536930 0.107401 0
M  V30 32 H -1.288080 -3.520507 5.490297 0
M  V30 33 H -0.050159 -4.825092 5.462410 0
M  V30 34 H 0.426956 -3.115945 5.788698 0
M  V30 35 H 1.916261 -2.909762 3.915645 0
M  V30 36 H 3.214176 -3.034447 1.555398 0
M  V30 37 H 0.802844 -0.303818 0.726120 0
M  V30 38 H 0.221156 1.857617 -0.214661 0
M  V30 39 H 2.081410 2.900360 -2.151669 0
M  V30 40 H 3.689959 3.775563 -0.838908 0
M  V30 41 H 2.742250 3.498750 0.646898 0
M  V30 42 H 1.464652 5.564634 0.193744 0
M  V30 43 H 3.256063 5.909201 0.050216 0
M  V30 44 H 2.899189 5.217210 -2.343038 0
M  V30 45 H 0.826587 5.382871 -3.307842 0
M  V30 46 H 0.177697 6.165528 -1.843968 0
M  V30 47 H -0.245213 4.217200 -0.726592 0
M  V30 48 H -0.124312 3.531621 -2.361268 0
M  V30 49 H 5.437675 0.345658 -0.635017 0
M  V30 50 H -4.143184 -4.514683 1.790507 0
M  V30 51 H -2.420604 -5.816993 0.241793 0
M  V30 52 H -1.059609 -4.909754 -0.481423 0
M  V30 53 H -2.349760 -4.008271 -2.194830 0
M  V30 54 H -3.134753 -5.583035 -1.921000 0
M  V30 55 H -5.019103 -4.732109 -0.867015 0
M  V30 56 H -4.650213 -3.630365 -2.187958 0
M  V30 57 H -4.675332 -1.892536 -0.746352 0
M  V30 58 H -4.812010 -2.964888 0.648524 0
M  V30 59 H -2.579995 -1.593023 0.641533 0
M  V30 60 H -2.167609 -2.457655 -0.836421 0
M  V30 END ATOM
M  V30 BEGIN BOND
M  V30 1 1 1 2
M  V30 2 1 2 3
M  V30 3 2 3 4
M  V30 4 1 4 5
M  V30 5 1 5 6
M  V30 6 2 6 7
M  V30 7 1 7 8
M  V30 8 1 8 9
M  V30 9 1 9 10
M  V30 10 1 10 11
M  V30 11 1 11 12
M  V30 12 1 12 13
M  V30 13 1 13 14
M  V30 14 1 14 15
M  V30 15 2 8 16
M  V30 16 1 16 17
M  V30 17 2 17 18
M  V30 18 1 4 19
M  V30 19 2 19 20
M  V30 20 1 19 21
M  V30 21 1 21 22
M  V30 22 1 22 23
M  V30 23 2 23 24
M  V30 24 1 23 25
M  V30 25 1 25 26
M  V30 26 1 26 27
M  V30 27 1 27 28
M  V30 28 1 28 29
M  V30 29 1 29 30
M  V30 30 1 30 31
M  V30 31 2 22 2
M  V30 32 1 31 26
M  V30 33 1 18 6
M  V30 34 1 26 21
M  V30 35 1 15 10
M  V30 36 1 1 32
M  V30 37 1 1 33
M  V30 38 1 1 34
M  V30 39 1 3 35
M  V30 40 1 5 36
M  V30 41 1 7 37
M  V30 42 1 9 38
M  V30 43 1 10 39
M  V30 44 1 11 40
M  V30 45 1 11 41
M  V30 46 1 12 42
M  V30 47 1 12 43
M  V30 48 1 13 44
M  V30 49 1 14 45
M  V30 50 1 14 46
M  V30 51 1 15 47
M  V30 52 1 15 48
M  V30 53 1 17 49
M  V30 54 1 25 50
M  V30 55 1 27 51
M  V30 56 1 27 52
M  V30 57 1 28 53
M  V30 58 1 28 54
M  V30 59 1 29 55
M  V30 60 1 29 56
M  V30 61 1 30 57
M  V30 62 1 30 58
M  V30 63 1 31 59
M  V30 64 1 31 60
M  V30 END BOND
M  V30 END CTAB
M  END
>  <Dataset>  (263) 
ChEMBL_Kinases

>  <Ligand_Instance>  (263) 
nan

>  <PDB_ID>  (263) 
nan

>  <Standardized_SMILES>  (263) 
Cc1cc(Nc2cc(NC3CCNCC3)ncn2)c(=O)n2c1C(=O)NC21CCCCC1

>  <Name>  (263) 
nan

>  <Pocket>  (263) 
nan

>  <ATP_Site>  (263) 
nan

>  <Peripheral>  (263) 
nan

>  <Num_H_Atoms_ProtBoundConf>  (263) 
nan

>  <Num_Resolved_Atoms>  (263) 
nan

>  <Num_Not_Resolved_Atoms>  (263) 
nan

$$$$
CHEMBL4794096
     RDKit          3D

  0  0  0  0  0  0  0  0  0  0999 V3000
M  V30 BEGIN CTAB
M  V30 COUNTS 57 59 0 0 0
M  V30 BEGIN ATOM
M  V30 1 C 1.961629 3.116027 4.791082 0
M  V30 2 C 2.742485 1.832557 4.619490 0
M  V30 3 N 3.084536 1.699415 3.217305 0
M  V30 4 C 4.047940 2.779047 2.967287 0
M  V30 5 C 4.503400 2.808299 1.538879 0
M  V30 6 C 3.749850 0.493828 2.899090 0
M  V30 7 C 2.998023 -0.781195 2.958603 0
M  V30 8 N 1.889273 -0.910873 2.050749 0
M  V30 9 C 0.683224 -0.241715 1.808958 0
M  V30 10 O 0.544525 0.740237 2.617458 0
M  V30 11 C -0.389470 -0.445733 0.855680 0
M  V30 12 C -1.494828 0.384359 0.839437 0
M  V30 13 C -1.853008 1.563270 1.673281 0
M  V30 14 N -2.284866 -0.096534 -0.164178 0
M  V30 15 C -1.787363 -1.158076 -0.791261 0
M  V30 16 C -2.451912 -1.791376 -1.915406 0
M  V30 17 C -2.878346 -3.020789 -2.091305 0
M  V30 18 C -2.741008 -4.046473 -1.070703 0
M  V30 19 O -2.257524 -3.939910 0.070452 0
M  V30 20 N -3.282825 -5.227784 -1.640303 0
M  V30 21 C -3.737974 -4.922181 -2.973044 0
M  V30 22 C -4.325408 -5.734006 -3.898276 0
M  V30 23 C -4.707404 -5.273877 -5.152182 0
M  V30 24 C -4.470094 -3.937384 -5.443866 0
M  V30 25 C -4.850730 -3.416044 -6.734302 0
M  V30 26 N -5.150030 -3.006071 -7.795017 0
M  V30 27 C -3.868648 -3.087481 -4.508810 0
M  V30 28 C -3.505551 -3.595851 -3.270296 0
M  V30 29 C -0.568536 -1.383631 -0.138671 0
M  V30 30 C 0.390292 -2.451814 -0.510055 0
M  V30 31 H 1.594142 3.462733 3.819994 0
M  V30 32 H 2.623192 3.903594 5.230320 0
M  V30 33 H 1.110873 3.004226 5.496053 0
M  V30 34 H 3.639376 1.892867 5.264470 0
M  V30 35 H 2.118025 1.008124 5.009198 0
M  V30 36 H 3.649029 3.756809 3.265735 0
M  V30 37 H 4.934162 2.609485 3.647944 0
M  V30 38 H 4.674323 3.874209 1.262661 0
M  V30 39 H 5.431337 2.208035 1.450590 0
M  V30 40 H 3.678053 2.362992 0.919007 0
M  V30 41 H 4.116797 0.598709 1.836920 0
M  V30 42 H 4.663250 0.412050 3.554169 0
M  V30 43 H 2.699070 -1.060379 4.009047 0
M  V30 44 H 3.738493 -1.582709 2.706665 0
M  V30 45 H 1.970561 -1.722901 1.363846 0
M  V30 46 H -0.968893 2.262171 1.723223 0
M  V30 47 H -2.179843 1.245190 2.693046 0
M  V30 48 H -2.684153 2.115774 1.194867 0
M  V30 49 H -3.217389 0.351553 -0.410290 0
M  V30 50 H -2.613703 -1.094575 -2.753068 0
M  V30 51 H -3.326406 -6.132667 -1.153146 0
M  V30 52 H -4.512539 -6.778562 -3.675742 0
M  V30 53 H -5.176670 -5.898030 -5.910041 0
M  V30 54 H -3.674533 -2.033800 -4.721317 0
M  V30 55 H 1.371448 -2.077496 -0.861605 0
M  V30 56 H -0.020994 -2.987954 -1.419056 0
M  V30 57 H 0.435355 -3.161439 0.337525 0
M  V30 END ATOM
M  V30 BEGIN BOND
M  V30 1 1 1 2
M  V30 2 1 2 3
M  V30 3 1 3 4
M  V30 4 1 4 5
M  V30 5 1 3 6
M  V30 6 1 6 7
M  V30 7 1 7 8
M  V30 8 1 8 9
M  V30 9 2 9 10
M  V30 10 1 9 11
M  V30 11 2 11 12
M  V30 12 1 12 13
M  V30 13 1 12 14
M  V30 14 1 14 15
M  V30 15 1 15 16
M  V30 16 2 16 17
M  V30 17 1 17 18
M  V30 18 2 18 19
M  V30 19 1 18 20
M  V30 20 1 20 21
M  V30 21 2 21 22
M  V30 22 1 22 23
M  V30 23 2 23 24
M  V30 24 1 24 25
M  V30 25 3 25 26
M  V30 26 1 24 27
M  V30 27 2 27 28
M  V30 28 2 15 29
M  V30 29 1 29 30
M  V30 30 1 29 11
M  V30 31 1 28 17
M  V30 32 1 28 21
M  V30 33 1 1 31
M  V30 34 1 1 32
M  V30 35 1 1 33
M  V30 36 1 2 34
M  V30 37 1 2 35
M  V30 38 1 4 36
M  V30 39 1 4 37
M  V30 40 1 5 38
M  V30 41 1 5 39
M  V30 42 1 5 40
M  V30 43 1 6 41
M  V30 44 1 6 42
M  V30 45 1 7 43
M  V30 46 1 7 44
M  V30 47 1 8 45
M  V30 48 1 13 46
M  V30 49 1 13 47
M  V30 50 1 13 48
M  V30 51 1 14 49
M  V30 52 1 16 50
M  V30 53 1 20 51
M  V30 54 1 22 52
M  V30 55 1 23 53
M  V30 56 1 27 54
M  V30 57 1 30 55
M  V30 58 1 30 56
M  V30 59 1 30 57
M  V30 END BOND
M  V30 END CTAB
M  END
>  <Dataset>  (264) 
ChEMBL_Kinases

>  <Ligand_Instance>  (264) 
nan

>  <PDB_ID>  (264) 
nan

>  <Standardized_SMILES>  (264) 
CCN(CC)CCNC(=O)c1c(C)[nH]c(/C=C2\C(=O)Nc3ccc(C#N)cc32)c1C

>  <Name>  (264) 
nan

>  <Pocket>  (264) 
nan

>  <ATP_Site>  (264) 
nan

>  <Peripheral>  (264) 
nan

>  <Num_H_Atoms_ProtBoundConf>  (264) 
nan

>  <Num_Resolved_Atoms>  (264) 
nan

>  <Num_Not_Resolved_Atoms>  (264) 
nan

$$$$
CHEMBL479470
     RDKit          3D

  0  0  0  0  0  0  0  0  0  0999 V3000
M  V30 BEGIN CTAB
M  V30 COUNTS 62 66 0 0 0
M  V30 BEGIN ATOM
M  V30 1 C 1.161649 -2.933983 2.920485 0
M  V30 2 C 2.201349 -2.162230 2.137538 0
M  V30 3 O 1.650729 -1.037126 1.507078 0
M  V30 4 C 2.337478 -0.148342 0.731490 0
M  V30 5 C 3.682654 -0.363726 0.545412 0
M  V30 6 C 4.385366 0.527169 -0.235602 0
M  V30 7 C 3.761417 1.608613 -0.818230 0
M  V30 8 C 4.539582 2.572375 -1.668220 0
M  V30 9 N 4.469770 2.066438 -3.025466 0
M  V30 10 C 5.040311 0.737259 -3.134069 0
M  V30 11 C 5.119589 2.910613 -3.985123 0
M  V30 12 C 2.423972 1.762340 -0.592048 0
M  V30 13 C 1.668014 0.905585 0.178894 0
M  V30 14 C 0.186335 1.174053 0.362965 0
M  V30 15 C -0.756856 0.544458 1.026391 0
M  V30 16 C -2.019256 1.055423 0.990977 0
M  V30 17 C -3.177296 0.588392 1.597007 0
M  V30 18 N -3.196574 -0.600589 2.412856 0
M  V30 19 C -3.456100 -1.812730 1.759810 0
M  V30 20 C -3.675456 -1.813461 0.402872 0
M  V30 21 C -3.941856 -2.969901 -0.335897 0
M  V30 22 C -3.990993 -4.185064 0.316125 0
M  V30 23 N -4.223353 -5.427782 -0.143823 0
M  V30 24 C -4.165843 -6.289369 0.889987 0
M  V30 25 C -3.888163 -5.539455 2.018193 0
M  V30 26 C -3.771348 -4.201207 1.688056 0
M  V30 27 C -3.508188 -3.033680 2.398028 0
M  V30 28 C -3.282522 -3.105640 3.851424 0
M  V30 29 C -4.364481 1.242896 1.445145 0
M  V30 30 C -5.568960 0.736200 2.089855 0
M  V30 31 N -6.526088 0.312435 2.611710 0
M  V30 32 C -4.553562 2.387295 0.711348 0
M  V30 33 N -3.428092 2.839038 0.123827 0
M  V30 34 C -2.257813 2.192905 0.274162 0
M  V30 35 S -0.552844 2.553311 -0.394608 0
M  V30 36 H 1.561929 -3.890881 3.276499 0
M  V30 37 H 0.861890 -2.321152 3.798496 0
M  V30 38 H 0.253127 -3.109768 2.321415 0
M  V30 39 H 3.077204 -1.946944 2.761741 0
M  V30 40 H 2.562484 -2.850313 1.331211 0
M  V30 41 H 4.157931 -1.216774 1.009145 0
M  V30 42 H 5.441832 0.339508 -0.368918 0
M  V30 43 H 5.591748 2.577465 -1.320516 0
M  V30 44 H 4.035955 3.546096 -1.640454 0
M  V30 45 H 5.207572 0.492940 -4.202383 0
M  V30 46 H 4.351639 -0.032743 -2.733627 0
M  V30 47 H 6.052628 0.687809 -2.661804 0
M  V30 48 H 4.343346 3.602641 -4.379994 0
M  V30 49 H 5.449394 2.268121 -4.842410 0
M  V30 50 H 5.961002 3.438447 -3.535091 0
M  V30 51 H 1.983671 2.638768 -1.080410 0
M  V30 52 H -0.504324 -0.352695 1.575794 0
M  V30 53 H -3.017940 -0.492351 3.433890 0
M  V30 54 H -3.654824 -0.900338 -0.188468 0
M  V30 55 H -4.110283 -2.926473 -1.412251 0
M  V30 56 H -4.414328 -5.645399 -1.154540 0
M  V30 57 H -4.320393 -7.353807 0.771141 0
M  V30 58 H -3.777788 -5.940195 3.016516 0
M  V30 59 H -2.871699 -4.114911 4.082310 0
M  V30 60 H -4.268074 -3.066672 4.373308 0
M  V30 61 H -2.641877 -2.316556 4.262729 0
M  V30 62 H -5.435574 2.971426 0.531831 0
M  V30 END ATOM
M  V30 BEGIN BOND
M  V30 1 1 1 2
M  V30 2 1 2 3
M  V30 3 1 3 4
M  V30 4 2 4 5
M  V30 5 1 5 6
M  V30 6 2 6 7
M  V30 7 1 7 8
M  V30 8 1 8 9
M  V30 9 1 9 10
M  V30 10 1 9 11
M  V30 11 1 7 12
M  V30 12 2 12 13
M  V30 13 1 13 14
M  V30 14 2 14 15
M  V30 15 1 15 16
M  V30 16 2 16 17
M  V30 17 1 17 18
M  V30 18 1 18 19
M  V30 19 2 19 20
M  V30 20 1 20 21
M  V30 21 2 21 22
M  V30 22 1 22 23
M  V30 23 1 23 24
M  V30 24 2 24 25
M  V30 25 1 25 26
M  V30 26 2 26 27
M  V30 27 1 27 28
M  V30 28 1 17 29
M  V30 29 1 29 30
M  V30 30 3 30 31
M  V30 31 2 29 32
M  V30 32 1 32 33
M  V30 33 2 33 34
M  V30 34 1 34 35
M  V30 35 1 13 4
M  V30 36 1 35 14
M  V30 37 1 34 16
M  V30 38 1 27 19
M  V30 39 1 26 22
M  V30 40 1 1 36
M  V30 41 1 1 37
M  V30 42 1 1 38
M  V30 43 1 2 39
M  V30 44 1 2 40
M  V30 45 1 5 41
M  V30 46 1 6 42
M  V30 47 1 8 43
M  V30 48 1 8 44
M  V30 49 1 10 45
M  V30 50 1 10 46
M  V30 51 1 10 47
M  V30 52 1 11 48
M  V30 53 1 11 49
M  V30 54 1 11 50
M  V30 55 1 12 51
M  V30 56 1 15 52
M  V30 57 1 18 53
M  V30 58 1 20 54
M  V30 59 1 21 55
M  V30 60 1 23 56
M  V30 61 1 24 57
M  V30 62 1 25 58
M  V30 63 1 28 59
M  V30 64 1 28 60
M  V30 65 1 28 61
M  V30 66 1 32 62
M  V30 END BOND
M  V30 END CTAB
M  END
>  <Dataset>  (265) 
ChEMBL_Kinases

>  <Ligand_Instance>  (265) 
nan

>  <PDB_ID>  (265) 
nan

>  <Standardized_SMILES>  (265) 
CCOc1ccc(CN(C)C)cc1-c1cc2c(Nc3ccc4[nH]ccc4c3C)c(C#N)cnc2s1

>  <Name>  (265) 
nan

>  <Pocket>  (265) 
nan

>  <ATP_Site>  (265) 
nan

>  <Peripheral>  (265) 
nan

>  <Num_H_Atoms_ProtBoundConf>  (265) 
nan

>  <Num_Resolved_Atoms>  (265) 
nan

>  <Num_Not_Resolved_Atoms>  (265) 
nan

$$$$
CHEMBL4878325
     RDKit          3D

  0  0  0  0  0  0  0  0  0  0999 V3000
M  V30 BEGIN CTAB
M  V30 COUNTS 37 39 0 0 0
M  V30 BEGIN ATOM
M  V30 1 C 0.549673 -5.420378 1.954328 0
M  V30 2 O 0.115376 -4.197932 1.447300 0
M  V30 3 C 0.827254 -3.418052 0.616467 0
M  V30 4 C 2.051656 -3.860489 0.254467 0
M  V30 5 C 2.919993 -3.176037 -0.606556 0
M  V30 6 Br 4.632569 -3.848944 -1.091367 0
M  V30 7 C 2.400867 -1.965425 -1.066035 0
M  V30 8 C 1.156050 -1.514584 -0.695191 0
M  V30 9 C 0.314745 -2.223317 0.161528 0
M  V30 10 C -0.968944 -1.682231 0.494774 0
M  V30 11 C -1.359575 -0.434117 0.286501 0
M  V30 12 N -0.816160 0.769187 -0.264268 0
M  V30 13 C -0.220046 1.944438 0.212050 0
M  V30 14 C -1.026401 3.054467 0.407206 0
M  V30 15 C -0.619656 4.290690 0.875006 0
M  V30 16 C 0.726449 4.400896 1.168228 0
M  V30 17 C 1.582770 3.337742 0.996542 0
M  V30 18 C 2.966344 3.427719 1.298285 0
M  V30 19 N 4.101302 3.493769 1.557474 0
M  V30 20 C 1.117082 2.122385 0.522112 0
M  V30 21 C -2.716165 -0.202591 0.733940 0
M  V30 22 O -3.536831 0.776815 0.766422 0
M  V30 23 N -3.226237 -1.446640 1.279852 0
M  V30 24 C -2.108465 -2.336665 1.111097 0
M  V30 25 O -2.255720 -3.526267 1.505402 0
M  V30 26 H -0.309923 -6.084305 2.242779 0
M  V30 27 H 1.127854 -6.053596 1.239829 0
M  V30 28 H 1.203267 -5.266699 2.848387 0
M  V30 29 H 2.484596 -4.785475 0.591648 0
M  V30 30 H 3.077293 -1.416382 -1.740944 0
M  V30 31 H 0.954996 -0.576204 -1.144306 0
M  V30 32 H -0.909842 0.786119 -1.329984 0
M  V30 33 H -2.094121 3.031335 0.189619 0
M  V30 34 H -1.264888 5.120421 1.011489 0
M  V30 35 H 1.127499 5.319810 1.544000 0
M  V30 36 H 1.756292 1.264321 0.368742 0
M  V30 37 H -4.163303 -1.660206 1.696149 0
M  V30 END ATOM
M  V30 BEGIN BOND
M  V30 1 1 1 2
M  V30 2 1 2 3
M  V30 3 2 3 4
M  V30 4 1 4 5
M  V30 5 1 5 6
M  V30 6 2 5 7
M  V30 7 1 7 8
M  V30 8 2 8 9
M  V30 9 1 9 10
M  V30 10 2 10 11
M  V30 11 1 11 12
M  V30 12 1 12 13
M  V30 13 2 13 14
M  V30 14 1 14 15
M  V30 15 2 15 16
M  V30 16 1 16 17
M  V30 17 1 17 18
M  V30 18 3 18 19
M  V30 19 2 17 20
M  V30 20 1 11 21
M  V30 21 2 21 22
M  V30 22 1 21 23
M  V30 23 1 23 24
M  V30 24 2 24 25
M  V30 25 1 9 3
M  V30 26 1 24 10
M  V30 27 1 20 13
M  V30 28 1 1 26
M  V30 29 1 1 27
M  V30 30 1 1 28
M  V30 31 1 4 29
M  V30 32 1 7 30
M  V30 33 1 8 31
M  V30 34 1 12 32
M  V30 35 1 14 33
M  V30 36 1 15 34
M  V30 37 1 16 35
M  V30 38 1 20 36
M  V30 39 1 23 37
M  V30 END BOND
M  V30 END CTAB
M  END
>  <Dataset>  (266) 
ChEMBL_Kinases

>  <Ligand_Instance>  (266) 
nan

>  <PDB_ID>  (266) 
nan

>  <Standardized_SMILES>  (266) 
COc1cc(Br)ccc1C1=C(Nc2cccc(C#N)c2)C(=O)NC1=O

>  <Name>  (266) 
nan

>  <Pocket>  (266) 
nan

>  <ATP_Site>  (266) 
nan

>  <Peripheral>  (266) 
nan

>  <Num_H_Atoms_ProtBoundConf>  (266) 
nan

>  <Num_Resolved_Atoms>  (266) 
nan

>  <Num_Not_Resolved_Atoms>  (266) 
nan

$$$$
CHEMBL4794147
     RDKit          3D

  0  0  0  0  0  0  0  0  0  0999 V3000
M  V30 BEGIN CTAB
M  V30 COUNTS 50 54 0 0 0
M  V30 BEGIN ATOM
M  V30 1 C -0.550286 -6.129078 -0.729042 0
M  V30 2 N 0.594945 -5.371818 -1.251956 0
M  V30 3 C 0.014757 -4.432542 -2.216082 0
M  V30 4 C -0.387645 -3.222322 -1.394534 0
M  V30 5 C 0.856251 -2.387321 -1.226001 0
M  V30 6 N 0.707934 -1.255951 -0.362288 0
M  V30 7 C 1.772315 -0.367774 -0.154565 0
M  V30 8 C 2.976958 -0.559082 -0.787314 0
M  V30 9 C 4.048186 0.293871 -0.604102 0
M  V30 10 N 3.966357 1.365963 0.210883 0
M  V30 11 C 2.801869 1.589068 0.850225 0
M  V30 12 C 2.693035 2.679638 1.689625 0
M  V30 13 C 1.534931 2.974680 2.378768 0
M  V30 14 C 0.453455 2.107288 2.189326 0
M  V30 15 C -0.746112 2.472407 2.946545 0
M  V30 16 C -0.849454 2.868862 4.281051 0
M  V30 17 N -2.132946 3.114930 4.588455 0
M  V30 18 C -2.912363 2.898913 3.504333 0
M  V30 19 N -4.242480 3.002924 3.298015 0
M  V30 20 C -4.819732 2.732591 2.111512 0
M  V30 21 C -3.999322 2.328493 1.056751 0
M  V30 22 C -2.630059 2.223203 1.275354 0
M  V30 23 C -2.049386 2.502641 2.494964 0
M  V30 24 C 0.581567 1.028389 1.350530 0
M  V30 25 C 1.724952 0.735861 0.669236 0
M  V30 26 C 1.921664 -3.357867 -0.703405 0
M  V30 27 C 1.245140 -4.634535 -0.197517 0
M  V30 28 H -0.204747 -7.070127 -0.250321 0
M  V30 29 H -1.237419 -6.288991 -1.584094 0
M  V30 30 H -1.031970 -5.526877 0.080868 0
M  V30 31 H 0.848898 -4.126870 -2.909583 0
M  V30 32 H -0.801241 -4.853152 -2.801688 0
M  V30 33 H -1.159513 -2.703461 -2.020597 0
M  V30 34 H -0.890748 -3.476860 -0.460880 0
M  V30 35 H 1.184939 -2.037702 -2.219464 0
M  V30 36 H -0.241352 -1.192718 0.060783 0
M  V30 37 H 3.195340 -1.356212 -1.461438 0
M  V30 38 H 5.006341 0.174977 -1.083019 0
M  V30 39 H 3.561960 3.317067 1.798487 0
M  V30 40 H 1.490285 3.839836 3.027626 0
M  V30 41 H 0.014227 2.955419 4.950961 0
M  V30 42 H -2.501148 3.426942 5.516101 0
M  V30 43 H -5.890788 2.828476 1.987680 0
M  V30 44 H -4.440577 2.108727 0.104219 0
M  V30 45 H -1.990975 1.906987 0.448669 0
M  V30 46 H -0.277354 0.414739 1.254910 0
M  V30 47 H 2.621236 -3.676127 -1.487458 0
M  V30 48 H 2.370582 -2.884645 0.177547 0
M  V30 49 H 2.107147 -5.278400 0.136650 0
M  V30 50 H 0.593868 -4.343898 0.634535 0
M  V30 END ATOM
M  V30 BEGIN BOND
M  V30 1 1 1 2
M  V30 2 1 2 3
M  V30 3 1 3 4
M  V30 4 1 4 5
M  V30 5 1 5 6
M  V30 6 1 6 7
M  V30 7 2 7 8
M  V30 8 1 8 9
M  V30 9 2 9 10
M  V30 10 1 10 11
M  V30 11 2 11 12
M  V30 12 1 12 13
M  V30 13 2 13 14
M  V30 14 1 14 15
M  V30 15 2 15 16
M  V30 16 1 16 17
M  V30 17 1 17 18
M  V30 18 2 18 19
M  V30 19 1 19 20
M  V30 20 2 20 21
M  V30 21 1 21 22
M  V30 22 2 22 23
M  V30 23 1 14 24
M  V30 24 2 24 25
M  V30 25 1 5 26
M  V30 26 1 26 27
M  V30 27 1 27 2
M  V30 28 1 25 7
M  V30 29 1 25 11
M  V30 30 1 23 15
M  V30 31 1 23 18
M  V30 32 1 1 28
M  V30 33 1 1 29
M  V30 34 1 1 30
M  V30 35 1 3 31
M  V30 36 1 3 32
M  V30 37 1 4 33
M  V30 38 1 4 34
M  V30 39 1 5 35
M  V30 40 1 6 36
M  V30 41 1 8 37
M  V30 42 1 9 38
M  V30 43 1 12 39
M  V30 44 1 13 40
M  V30 45 1 16 41
M  V30 46 1 17 42
M  V30 47 1 20 43
M  V30 48 1 21 44
M  V30 49 1 22 45
M  V30 50 1 24 46
M  V30 51 1 26 47
M  V30 52 1 26 48
M  V30 53 1 27 49
M  V30 54 1 27 50
M  V30 END BOND
M  V30 END CTAB
M  END
>  <Dataset>  (267) 
ChEMBL_Kinases

>  <Ligand_Instance>  (267) 
nan

>  <PDB_ID>  (267) 
nan

>  <Standardized_SMILES>  (267) 
CN1CCC(Nc2ccnc3ccc(-c4c[nH]c5ncccc45)cc23)CC1

>  <Name>  (267) 
nan

>  <Pocket>  (267) 
nan

>  <ATP_Site>  (267) 
nan

>  <Peripheral>  (267) 
nan

>  <Num_H_Atoms_ProtBoundConf>  (267) 
nan

>  <Num_Resolved_Atoms>  (267) 
nan

>  <Num_Not_Resolved_Atoms>  (267) 
nan

$$$$
CHEMBL1595576
     RDKit          3D

  0  0  0  0  0  0  0  0  0  0999 V3000
M  V30 BEGIN CTAB
M  V30 COUNTS 41 44 0 0 0
M  V30 BEGIN ATOM
M  V30 1 C -0.705008 -4.454290 -0.800438 0
M  V30 2 C 0.413814 -4.538275 0.139127 0
M  V30 3 C 0.759509 -5.683152 0.825871 0
M  V30 4 C 1.835584 -5.661504 1.694390 0
M  V30 5 C 2.563313 -4.504126 1.877247 0
M  V30 6 C 2.214511 -3.346664 1.183499 0
M  V30 7 C 1.125516 -3.368067 0.304352 0
M  V30 8 C 0.917759 -2.079726 -0.322020 0
M  V30 9 C 0.673646 -1.949984 -1.694649 0
M  V30 10 C 0.472508 -0.731397 -2.311155 0
M  V30 11 C 0.518158 0.397315 -1.521001 0
M  V30 12 N 0.326488 1.626296 -2.076973 0
M  V30 13 C 0.371623 2.724022 -1.304064 0
M  V30 14 N 0.603739 2.631612 0.015262 0
M  V30 15 C 0.802067 1.466171 0.639687 0
M  V30 16 N 1.047197 1.434681 2.034780 0
M  V30 17 C 1.080144 2.656125 2.812744 0
M  V30 18 C -0.220563 3.300963 2.755895 0
M  V30 19 C -1.274918 3.100979 3.586658 0
M  V30 20 C -2.448377 3.777589 3.433530 0
M  V30 21 C -2.503501 4.691959 2.368447 0
M  V30 22 S -0.817856 4.557776 1.584275 0
M  V30 23 C 0.753305 0.348558 -0.163652 0
M  V30 24 C 0.946201 -0.897580 0.391798 0
M  V30 25 H -1.546826 -5.123439 -0.454504 0
M  V30 26 H -1.160506 -3.459389 -0.871371 0
M  V30 27 H -0.392239 -4.903641 -1.763723 0
M  V30 28 H 0.109049 -6.525397 0.594374 0
M  V30 29 H 2.018112 -6.610576 2.178965 0
M  V30 30 H 3.385062 -4.589179 2.576466 0
M  V30 31 H 2.870902 -2.525888 1.427415 0
M  V30 32 H 0.634834 -2.809818 -2.323035 0
M  V30 33 H 0.286788 -0.677019 -3.375843 0
M  V30 34 H 0.224879 3.736074 -1.696808 0
M  V30 35 H 1.218536 0.589934 2.614725 0
M  V30 36 H 1.847868 3.372660 2.390363 0
M  V30 37 H 1.363770 2.529840 3.857621 0
M  V30 38 H -1.208836 2.376788 4.417563 0
M  V30 39 H -3.346701 3.702601 4.027050 0
M  V30 40 H -3.342908 5.346544 2.054439 0
M  V30 41 H 1.136191 -1.025427 1.447775 0
M  V30 END ATOM
M  V30 BEGIN BOND
M  V30 1 1 1 2
M  V30 2 2 2 3
M  V30 3 1 3 4
M  V30 4 2 4 5
M  V30 5 1 5 6
M  V30 6 2 6 7
M  V30 7 1 7 8
M  V30 8 2 8 9
M  V30 9 1 9 10
M  V30 10 2 10 11
M  V30 11 1 11 12
M  V30 12 2 12 13
M  V30 13 1 13 14
M  V30 14 2 14 15
M  V30 15 1 15 16
M  V30 16 1 16 17
M  V30 17 1 17 18
M  V30 18 2 18 19
M  V30 19 1 19 20
M  V30 20 2 20 21
M  V30 21 1 21 22
M  V30 22 1 15 23
M  V30 23 2 23 24
M  V30 24 1 7 2
M  V30 25 1 24 8
M  V30 26 1 23 11
M  V30 27 1 22 18
M  V30 28 1 1 25
M  V30 29 1 1 26
M  V30 30 1 1 27
M  V30 31 1 3 28
M  V30 32 1 4 29
M  V30 33 1 5 30
M  V30 34 1 6 31
M  V30 35 1 9 32
M  V30 36 1 10 33
M  V30 37 1 13 34
M  V30 38 1 16 35
M  V30 39 1 17 36
M  V30 40 1 17 37
M  V30 41 1 19 38
M  V30 42 1 20 39
M  V30 43 1 21 40
M  V30 44 1 24 41
M  V30 END BOND
M  V30 END CTAB
M  END
>  <Dataset>  (268) 
ChEMBL_Kinases

>  <Ligand_Instance>  (268) 
nan

>  <PDB_ID>  (268) 
nan

>  <Standardized_SMILES>  (268) 
Cc1ccccc1-c1ccc2ncnc(NCc3cccs3)c2c1

>  <Name>  (268) 
nan

>  <Pocket>  (268) 
nan

>  <ATP_Site>  (268) 
nan

>  <Peripheral>  (268) 
nan

>  <Num_H_Atoms_ProtBoundConf>  (268) 
nan

>  <Num_Resolved_Atoms>  (268) 
nan

>  <Num_Not_Resolved_Atoms>  (268) 
nan

$$$$
CHEMBL4794179
     RDKit          3D

  0  0  0  0  0  0  0  0  0  0999 V3000
M  V30 BEGIN CTAB
M  V30 COUNTS 52 56 0 0 0
M  V30 BEGIN ATOM
M  V30 1 C 1.610589 -1.085810 5.797868 0
M  V30 2 C 1.786526 -1.693204 4.454223 0
M  V30 3 C 2.101240 -3.037584 4.292484 0
M  V30 4 C 2.261918 -3.588768 3.048099 0
M  V30 5 C 2.107336 -2.787880 1.916733 0
M  V30 6 C 1.793549 -1.455027 2.139299 0
M  V30 7 C 1.644008 -0.668036 0.924909 0
M  V30 8 N 2.318046 0.394727 0.461292 0
M  V30 9 C 1.852577 0.844906 -0.742087 0
M  V30 10 C 2.503541 2.017048 -1.388459 0
M  V30 11 N 1.902727 3.247705 -0.951188 0
M  V30 12 C 0.594654 3.745660 -1.158591 0
M  V30 13 C 0.210785 4.975145 -0.608393 0
M  V30 14 C -1.050398 5.473199 -0.810164 0
M  V30 15 C -1.981256 4.795188 -1.552173 0
M  V30 16 C -1.629629 3.582868 -2.105013 0
M  V30 17 F -2.561656 2.909823 -2.844467 0
M  V30 18 C -0.355741 3.103869 -1.887930 0
M  V30 19 N 0.843349 -0.004296 -1.002437 0
M  V30 20 C 0.687895 -0.919341 -0.033505 0
M  V30 21 C -0.333351 -1.960477 -0.064649 0
M  V30 22 C -1.262278 -1.894067 0.967512 0
M  V30 23 C -2.254835 -2.869789 0.975639 0
M  V30 24 C -2.322445 -3.855580 0.014810 0
M  V30 25 C -1.360129 -3.864474 -0.991812 0
M  V30 26 C -1.673056 -4.947663 -1.800041 0
M  V30 27 N -2.766399 -5.534321 -1.280241 0
M  V30 28 N -3.159686 -4.885668 -0.194439 0
M  V30 29 C -4.311648 -5.271969 0.596791 0
M  V30 30 C -0.339557 -2.917387 -1.058923 0
M  V30 31 N 1.636561 -0.917493 3.365567 0
M  V30 32 H 0.508127 -0.970998 5.991297 0
M  V30 33 H 1.973960 -1.806227 6.537909 0
M  V30 34 H 2.084186 -0.099877 5.873013 0
M  V30 35 H 2.219856 -3.654966 5.179214 0
M  V30 36 H 2.507783 -4.643615 2.952429 0
M  V30 37 H 2.231007 -3.208232 0.929711 0
M  V30 38 H 3.119653 0.772553 1.050132 0
M  V30 39 H 3.578188 1.962224 -1.192640 0
M  V30 40 H 2.339307 1.933793 -2.505358 0
M  V30 41 H 2.561469 3.863362 -0.385604 0
M  V30 42 H 0.939524 5.516160 -0.021531 0
M  V30 43 H -1.252628 6.445823 -0.335981 0
M  V30 44 H -2.935949 5.267843 -1.650583 0
M  V30 45 H -0.166601 2.170439 -2.352660 0
M  V30 46 H -1.223623 -1.127897 1.729063 0
M  V30 47 H -3.009532 -2.861651 1.766396 0
M  V30 48 H -1.135876 -5.269785 -2.693304 0
M  V30 49 H -4.200154 -6.291533 1.023833 0
M  V30 50 H -5.241327 -5.302498 -0.023653 0
M  V30 51 H -4.435673 -4.599621 1.471190 0
M  V30 52 H 0.409409 -2.923145 -1.839899 0
M  V30 END ATOM
M  V30 BEGIN BOND
M  V30 1 1 1 2
M  V30 2 2 2 3
M  V30 3 1 3 4
M  V30 4 2 4 5
M  V30 5 1 5 6
M  V30 6 1 6 7
M  V30 7 1 7 8
M  V30 8 1 8 9
M  V30 9 1 9 10
M  V30 10 1 10 11
M  V30 11 1 11 12
M  V30 12 2 12 13
M  V30 13 1 13 14
M  V30 14 2 14 15
M  V30 15 1 15 16
M  V30 16 1 16 17
M  V30 17 2 16 18
M  V30 18 2 9 19
M  V30 19 1 19 20
M  V30 20 1 20 21
M  V30 21 2 21 22
M  V30 22 1 22 23
M  V30 23 2 23 24
M  V30 24 1 24 25
M  V30 25 1 25 26
M  V30 26 2 26 27
M  V30 27 1 27 28
M  V30 28 1 28 29
M  V30 29 2 25 30
M  V30 30 2 6 31
M  V30 31 1 31 2
M  V30 32 2 20 7
M  V30 33 1 30 21
M  V30 34 1 18 12
M  V30 35 1 28 24
M  V30 36 1 1 32
M  V30 37 1 1 33
M  V30 38 1 1 34
M  V30 39 1 3 35
M  V30 40 1 4 36
M  V30 41 1 5 37
M  V30 42 1 8 38
M  V30 43 1 10 39
M  V30 44 1 10 40
M  V30 45 1 11 41
M  V30 46 1 13 42
M  V30 47 1 14 43
M  V30 48 1 15 44
M  V30 49 1 18 45
M  V30 50 1 22 46
M  V30 51 1 23 47
M  V30 52 1 26 48
M  V30 53 1 29 49
M  V30 54 1 29 50
M  V30 55 1 29 51
M  V30 56 1 30 52
M  V30 END BOND
M  V30 END CTAB
M  END
>  <Dataset>  (269) 
ChEMBL_Kinases

>  <Ligand_Instance>  (269) 
nan

>  <PDB_ID>  (269) 
nan

>  <Standardized_SMILES>  (269) 
Cc1cccc(-c2[nH]c(CNc3cccc(F)c3)nc2-c2ccc3c(cnn3C)c2)n1

>  <Name>  (269) 
nan

>  <Pocket>  (269) 
nan

>  <ATP_Site>  (269) 
nan

>  <Peripheral>  (269) 
nan

>  <Num_H_Atoms_ProtBoundConf>  (269) 
nan

>  <Num_Resolved_Atoms>  (269) 
nan

>  <Num_Not_Resolved_Atoms>  (269) 
nan

$$$$
CHEMBL1435907
     RDKit          3D

  0  0  0  0  0  0  0  0  0  0999 V3000
M  V30 BEGIN CTAB
M  V30 COUNTS 37 40 0 0 0
M  V30 BEGIN ATOM
M  V30 1 C 1.393441 -1.649664 4.629935 0
M  V30 2 C 0.389000 -2.605250 4.069349 0
M  V30 3 N -0.330381 -3.579973 4.630902 0
M  V30 4 O -1.077460 -4.142830 3.723417 0
M  V30 5 C -0.894238 -3.583066 2.547119 0
M  V30 6 C -1.601393 -4.003357 1.315005 0
M  V30 7 C 0.033950 -2.598813 2.729422 0
M  V30 8 C 0.482365 -1.761276 1.616603 0
M  V30 9 N -0.209828 -0.645440 1.404069 0
M  V30 10 C 0.109006 0.220027 0.395990 0
M  V30 11 N -0.631207 1.381970 0.203347 0
M  V30 12 C -0.958120 2.571960 -0.489983 0
M  V30 13 C -1.510804 2.353040 -1.907815 0
M  V30 14 C -2.330306 2.985400 -0.876115 0
M  V30 15 C 1.194488 -0.169505 -0.358933 0
M  V30 16 C 1.619316 0.633017 -1.395045 0
M  V30 17 C 2.692349 0.364732 -2.216638 0
M  V30 18 C 3.414401 -0.794925 -2.002524 0
M  V30 19 C 3.020620 -1.634101 -0.965430 0
M  V30 20 C 1.950348 -1.309762 -0.189903 0
M  V30 21 N 1.525163 -2.063293 0.831641 0
M  V30 22 H 1.257409 -1.608695 5.731201 0
M  V30 23 H 1.193699 -0.626469 4.250553 0
M  V30 24 H 2.430559 -1.967984 4.391956 0
M  V30 25 H -2.700589 -3.935433 1.497752 0
M  V30 26 H -1.352563 -3.292503 0.500238 0
M  V30 27 H -1.336979 -5.052090 1.060312 0
M  V30 28 H -1.370503 1.545579 0.952267 0
M  V30 29 H -0.198183 3.393539 -0.395022 0
M  V30 30 H -0.961531 2.871701 -2.692510 0
M  V30 31 H -1.798831 1.315012 -2.181494 0
M  V30 32 H -3.240057 2.458368 -0.499125 0
M  V30 33 H -2.500505 4.075844 -0.950073 0
M  V30 34 H 1.122308 1.559261 -1.618383 0
M  V30 35 H 3.000128 1.015890 -3.022633 0
M  V30 36 H 4.272398 -1.114371 -2.578079 0
M  V30 37 H 3.500177 -2.562965 -0.698403 0
M  V30 END ATOM
M  V30 BEGIN BOND
M  V30 1 1 1 2
M  V30 2 2 2 3
M  V30 3 1 3 4
M  V30 4 1 4 5
M  V30 5 1 5 6
M  V30 6 2 5 7
M  V30 7 1 7 8
M  V30 8 2 8 9
M  V30 9 1 9 10
M  V30 10 1 10 11
M  V30 11 1 11 12
M  V30 12 1 12 13
M  V30 13 1 13 14
M  V30 14 2 10 15
M  V30 15 1 15 16
M  V30 16 2 16 17
M  V30 17 1 17 18
M  V30 18 2 18 19
M  V30 19 1 19 20
M  V30 20 2 20 21
M  V30 21 1 7 2
M  V30 22 1 21 8
M  V30 23 1 14 12
M  V30 24 1 20 15
M  V30 25 1 1 22
M  V30 26 1 1 23
M  V30 27 1 1 24
M  V30 28 1 6 25
M  V30 29 1 6 26
M  V30 30 1 6 27
M  V30 31 1 11 28
M  V30 32 1 12 29
M  V30 33 1 13 30
M  V30 34 1 13 31
M  V30 35 1 14 32
M  V30 36 1 14 33
M  V30 37 1 16 34
M  V30 38 1 17 35
M  V30 39 1 18 36
M  V30 40 1 19 37
M  V30 END BOND
M  V30 END CTAB
M  END
>  <Dataset>  (270) 
ChEMBL_Kinases

>  <Ligand_Instance>  (270) 
nan

>  <PDB_ID>  (270) 
nan

>  <Standardized_SMILES>  (270) 
Cc1noc(C)c1-c1nc(NC2CC2)c2ccccc2n1

>  <Name>  (270) 
nan

>  <Pocket>  (270) 
nan

>  <ATP_Site>  (270) 
nan

>  <Peripheral>  (270) 
nan

>  <Num_H_Atoms_ProtBoundConf>  (270) 
nan

>  <Num_Resolved_Atoms>  (270) 
nan

>  <Num_Not_Resolved_Atoms>  (270) 
nan

$$$$
CHEMBL4794556
     RDKit          3D

  0  0  0  0  0  0  0  0  0  0999 V3000
M  V30 BEGIN CTAB
M  V30 COUNTS 60 65 0 0 0
M  V30 BEGIN ATOM
M  V30 1 C 8.071475 -1.622117 4.700631 0
M  V30 2 C 8.087988 -1.827844 3.180300 0
M  V30 3 C 7.100729 -0.877948 2.614316 0
M  V30 4 O 6.576785 -0.204550 3.560613 0
M  V30 5 N 6.657841 -0.598065 1.294696 0
M  V30 6 C 5.668111 0.405004 1.103207 0
M  V30 7 N 5.616257 1.746030 0.878219 0
M  V30 8 C 4.335082 2.136443 0.786552 0
M  V30 9 C 3.796433 3.388058 0.567417 0
M  V30 10 C 2.420065 3.532369 0.515682 0
M  V30 11 C 1.583683 2.438030 0.680941 0
M  V30 12 C 0.123070 2.511889 0.640639 0
M  V30 13 C -0.628231 3.607896 1.060167 0
M  V30 14 C -2.003202 3.575980 0.977382 0
M  V30 15 C -2.705434 2.494900 0.490188 0
M  V30 16 N -4.042623 2.411366 0.386077 0
M  V30 17 C -4.658118 1.310399 -0.106359 0
M  V30 18 N -3.958532 0.226520 -0.523677 0
M  V30 19 C -4.554852 -0.981898 -1.061099 0
M  V30 20 C -4.844147 -1.986245 0.052737 0
M  V30 21 C -5.444103 -3.192861 -0.565699 0
M  V30 22 C -6.762661 -3.638514 -0.602859 0
M  V30 23 N -6.757770 -4.800598 -1.302221 0
M  V30 24 C -5.511267 -5.106070 -1.704124 0
M  V30 25 C -4.999827 -6.181575 -2.439645 0
M  V30 26 C -3.651620 -6.244548 -2.713075 0
M  V30 27 C -2.784196 -5.251832 -2.268504 0
M  V30 28 C -3.339536 -4.220701 -1.551633 0
M  V30 29 C -4.677128 -4.115258 -1.254521 0
M  V30 30 C -2.616865 0.284300 -0.429974 0
M  V30 31 O -1.921155 -0.680094 -0.797551 0
M  V30 32 C -1.976279 1.401213 0.070470 0
M  V30 33 C -0.597546 1.431666 0.153138 0
M  V30 34 C 2.175209 1.208006 0.897290 0
M  V30 35 C 3.543056 1.019112 0.956350 0
M  V30 36 N 4.377946 -0.024566 1.147541 0
M  V30 37 H 8.360479 -2.564219 5.221478 0
M  V30 38 H 7.044817 -1.371070 5.044946 0
M  V30 39 H 8.727158 -0.783031 4.997144 0
M  V30 40 H 7.721496 -2.856434 3.011859 0
M  V30 41 H 9.106677 -1.708711 2.796223 0
M  V30 42 H 7.164169 -1.215550 0.634050 0
M  V30 43 H 4.441403 4.238078 0.437961 0
M  V30 44 H 1.970518 4.502886 0.344732 0
M  V30 45 H -0.086148 4.460168 1.443138 0
M  V30 46 H -2.589199 4.442130 1.308511 0
M  V30 47 H -5.742600 1.268670 -0.180190 0
M  V30 48 H -3.821306 -1.455026 -1.730445 0
M  V30 49 H -5.506414 -0.725498 -1.569486 0
M  V30 50 H -5.550619 -1.530539 0.801578 0
M  V30 51 H -3.937045 -2.241242 0.597715 0
M  V30 52 H -7.589325 -3.118563 -0.146010 0
M  V30 53 H -7.637247 -5.358369 -1.484948 0
M  V30 54 H -5.635896 -6.981257 -2.808595 0
M  V30 55 H -3.258763 -7.065721 -3.273142 0
M  V30 56 H -1.722464 -5.304821 -2.485567 0
M  V30 57 H -2.630057 -3.475503 -1.228282 0
M  V30 58 H -0.064062 0.555894 -0.185150 0
M  V30 59 H 1.556435 0.349002 1.026494 0
M  V30 60 H 3.936034 -0.980135 1.297244 0
M  V30 END ATOM
M  V30 BEGIN BOND
M  V30 1 1 1 2
M  V30 2 1 2 3
M  V30 3 2 3 4
M  V30 4 1 3 5
M  V30 5 1 5 6
M  V30 6 2 6 7
M  V30 7 1 7 8
M  V30 8 2 8 9
M  V30 9 1 9 10
M  V30 10 2 10 11
M  V30 11 1 11 12
M  V30 12 2 12 13
M  V30 13 1 13 14
M  V30 14 2 14 15
M  V30 15 1 15 16
M  V30 16 2 16 17
M  V30 17 1 17 18
M  V30 18 1 18 19
M  V30 19 1 19 20
M  V30 20 1 20 21
M  V30 21 2 21 22
M  V30 22 1 22 23
M  V30 23 1 23 24
M  V30 24 2 24 25
M  V30 25 1 25 26
M  V30 26 2 26 27
M  V30 27 1 27 28
M  V30 28 2 28 29
M  V30 29 1 18 30
M  V30 30 2 30 31
M  V30 31 1 30 32
M  V30 32 2 32 33
M  V30 33 1 11 34
M  V30 34 2 34 35
M  V30 35 1 35 36
M  V30 36 1 36 6
M  V30 37 1 35 8
M  V30 38 1 33 12
M  V30 39 1 32 15
M  V30 40 1 29 21
M  V30 41 1 29 24
M  V30 42 1 1 37
M  V30 43 1 1 38
M  V30 44 1 1 39
M  V30 45 1 2 40
M  V30 46 1 2 41
M  V30 47 1 5 42
M  V30 48 1 9 43
M  V30 49 1 10 44
M  V30 50 1 13 45
M  V30 51 1 14 46
M  V30 52 1 17 47
M  V30 53 1 19 48
M  V30 54 1 19 49
M  V30 55 1 20 50
M  V30 56 1 20 51
M  V30 57 1 22 52
M  V30 58 1 23 53
M  V30 59 1 25 54
M  V30 60 1 26 55
M  V30 61 1 27 56
M  V30 62 1 28 57
M  V30 63 1 33 58
M  V30 64 1 34 59
M  V30 65 1 36 60
M  V30 END BOND
M  V30 END CTAB
M  END
>  <Dataset>  (271) 
ChEMBL_Kinases

>  <Ligand_Instance>  (271) 
nan

>  <PDB_ID>  (271) 
nan

>  <Standardized_SMILES>  (271) 
CCC(=O)Nc1nc2ccc(-c3ccc4ncn(CCc5c[nH]c6ccccc56)c(=O)c4c3)cc2[nH]1

>  <Name>  (271) 
nan

>  <Pocket>  (271) 
nan

>  <ATP_Site>  (271) 
nan

>  <Peripheral>  (271) 
nan

>  <Num_H_Atoms_ProtBoundConf>  (271) 
nan

>  <Num_Resolved_Atoms>  (271) 
nan

>  <Num_Not_Resolved_Atoms>  (271) 
nan

$$$$
CHEMBL4878199
     RDKit          3D

  0  0  0  0  0  0  0  0  0  0999 V3000
M  V30 BEGIN CTAB
M  V30 COUNTS 58 63 0 0 0
M  V30 BEGIN ATOM
M  V30 1 N 7.348504 -1.488482 1.717645 0
M  V30 2 C 6.000863 -1.388714 1.140185 0 CFG=1
M  V30 3 C 5.045980 -1.250605 2.305586 0
M  V30 4 C 4.950409 0.225421 2.630105 0
M  V30 5 C 4.033326 0.821150 1.571981 0
M  V30 6 N 4.519340 0.327747 0.297263 0
M  V30 7 C 3.719016 0.303840 -0.886101 0
M  V30 8 O 4.223667 -0.144055 -1.955652 0
M  V30 9 C 2.348191 0.798107 -0.814930 0
M  V30 10 C 1.922817 2.113625 -0.965567 0
M  V30 11 C 0.582686 2.424018 -0.869893 0
M  V30 12 C -0.353113 1.430405 -0.622967 0
M  V30 13 C -1.783673 1.690175 -0.510865 0
M  V30 14 C -2.341593 2.940822 -0.637760 0
M  V30 15 C -3.707928 3.104631 -0.517046 0
M  V30 16 C -4.561732 2.042683 -0.268484 0
M  V30 17 N -5.884332 1.848222 -0.098597 0
M  V30 18 C -6.117657 0.530595 0.122570 0
M  V30 19 C -4.888466 -0.110659 0.087195 0
M  V30 20 C -4.631226 -1.551506 0.275559 0
M  V30 21 C -3.544628 -1.780646 1.123621 0
M  V30 22 C -3.141025 -3.052854 1.428610 0
M  V30 23 C -3.841542 -4.104171 0.871774 0
M  V30 24 C -3.440079 -5.396623 1.174502 0
M  V30 25 N -4.115739 -6.443057 0.637168 0
M  V30 26 C -5.172073 -6.194356 -0.186840 0
M  V30 27 C -5.601708 -4.915844 -0.511796 0
M  V30 28 C -4.916239 -3.865014 0.033294 0
M  V30 29 C -5.331681 -2.587156 -0.280905 0
M  V30 30 N -3.961000 0.862326 -0.156669 0
M  V30 31 N -2.670542 0.694181 -0.268542 0
M  V30 32 C 0.082144 0.131093 -0.475813 0
M  V30 33 C 1.421270 -0.196485 -0.568887 0
M  V30 34 C 5.889835 -0.149239 0.290917 0
M  V30 35 H 7.252512 -1.967805 2.644993 0
M  V30 36 H 7.996491 -2.009549 1.078937 0
M  V30 37 H 5.777148 -2.299249 0.550484 0
M  V30 38 H 4.034991 -1.640749 2.020782 0
M  V30 39 H 5.403946 -1.818704 3.191675 0
M  V30 40 H 5.931218 0.722048 2.533412 0
M  V30 41 H 4.550426 0.393170 3.652622 0
M  V30 42 H 4.123179 1.916343 1.672995 0
M  V30 43 H 2.991070 0.473712 1.744308 0
M  V30 44 H 2.703305 2.822291 -1.153823 0
M  V30 45 H 0.266600 3.427650 -0.984155 0
M  V30 46 H -1.730298 3.783188 -0.828286 0
M  V30 47 H -4.165675 4.100828 -0.616638 0
M  V30 48 H -7.094114 0.069142 0.295324 0
M  V30 49 H -2.944764 -0.991073 1.598816 0
M  V30 50 H -2.297945 -3.268996 2.085982 0
M  V30 51 H -2.599298 -5.563405 1.829968 0
M  V30 52 H -5.681689 -7.072361 -0.592837 0
M  V30 53 H -6.436512 -4.737009 -1.163572 0
M  V30 54 H -6.143517 -2.319090 -0.914236 0
M  V30 55 H -0.663346 -0.654501 -0.279743 0
M  V30 56 H 1.657692 -1.264795 -0.435520 0
M  V30 57 H 6.598836 0.647376 0.608251 0
M  V30 58 H 6.132282 -0.455891 -0.763132 0
M  V30 END ATOM
M  V30 BEGIN BOND
M  V30 1 1 1 2
M  V30 2 1 2 3
M  V30 3 1 3 4
M  V30 4 1 4 5
M  V30 5 1 5 6
M  V30 6 1 6 7
M  V30 7 2 7 8
M  V30 8 1 7 9
M  V30 9 2 9 10
M  V30 10 1 10 11
M  V30 11 2 11 12
M  V30 12 1 12 13
M  V30 13 1 13 14
M  V30 14 2 14 15
M  V30 15 1 15 16
M  V30 16 2 16 17
M  V30 17 1 17 18
M  V30 18 2 18 19
M  V30 19 1 19 20
M  V30 20 2 20 21
M  V30 21 1 21 22
M  V30 22 2 22 23
M  V30 23 1 23 24
M  V30 24 2 24 25
M  V30 25 1 25 26
M  V30 26 2 26 27
M  V30 27 1 27 28
M  V30 28 2 28 29
M  V30 29 1 19 30
M  V30 30 1 30 31
M  V30 31 1 12 32
M  V30 32 2 32 33
M  V30 33 1 6 34
M  V30 34 1 34 2
M  V30 35 1 33 9
M  V30 36 2 31 13
M  V30 37 1 30 16
M  V30 38 1 29 20
M  V30 39 1 28 23
M  V30 40 1 1 35
M  V30 41 1 1 36
M  V30 42 1 2 37 CFG=3
M  V30 43 1 3 38
M  V30 44 1 3 39
M  V30 45 1 4 40
M  V30 46 1 4 41
M  V30 47 1 5 42
M  V30 48 1 5 43
M  V30 49 1 10 44
M  V30 50 1 11 45
M  V30 51 1 14 46
M  V30 52 1 15 47
M  V30 53 1 18 48
M  V30 54 1 21 49
M  V30 55 1 22 50
M  V30 56 1 24 51
M  V30 57 1 26 52
M  V30 58 1 27 53
M  V30 59 1 29 54
M  V30 60 1 32 55
M  V30 61 1 33 56
M  V30 62 1 34 57
M  V30 63 1 34 58
M  V30 END BOND
M  V30 END CTAB
M  END
>  <Dataset>  (272) 
ChEMBL_Kinases

>  <Ligand_Instance>  (272) 
nan

>  <PDB_ID>  (272) 
nan

>  <Standardized_SMILES>  (272) 
N[C@H]1CCCN(C(=O)c2ccc(-c3ccc4ncc(-c5ccc6cnccc6c5)n4n3)cc2)C1

>  <Name>  (272) 
nan

>  <Pocket>  (272) 
nan

>  <ATP_Site>  (272) 
nan

>  <Peripheral>  (272) 
nan

>  <Num_H_Atoms_ProtBoundConf>  (272) 
nan

>  <Num_Resolved_Atoms>  (272) 
nan

>  <Num_Not_Resolved_Atoms>  (272) 
nan

$$$$
CHEMBL1436272
     RDKit          3D

  0  0  0  0  0  0  0  0  0  0999 V3000
M  V30 BEGIN CTAB
M  V30 COUNTS 42 45 0 0 0
M  V30 BEGIN ATOM
M  V30 1 N 0.389511 -5.912230 -4.545872 0
M  V30 2 C 0.772903 -5.204705 -3.691471 0
M  V30 3 C 1.232576 -4.364432 -2.636642 0
M  V30 4 C 1.766375 -4.890173 -1.451417 0
M  V30 5 C 2.199588 -4.110554 -0.370918 0
M  V30 6 C 2.040962 -2.782748 -0.608737 0
M  V30 7 C 1.544944 -2.123171 -1.691532 0
M  V30 8 C 1.453036 -0.679044 -1.671709 0
M  V30 9 C 1.583437 0.194726 -2.723420 0
M  V30 10 C 1.464170 1.571802 -2.655482 0
M  V30 11 C 1.183776 2.038191 -1.372014 0
M  V30 12 N 1.036838 3.365574 -1.232500 0
M  V30 13 C 0.751013 3.986670 -0.087244 0
M  V30 14 N 0.594531 3.240707 1.020146 0
M  V30 15 C 0.724202 1.923747 0.997113 0
M  V30 16 N 0.665846 0.942876 2.014131 0
M  V30 17 C 0.607712 -0.029913 3.024314 0
M  V30 18 C -0.625544 -0.065866 3.888764 0
M  V30 19 C -0.546948 0.707519 5.069047 0
M  V30 20 C -1.704925 0.586225 5.749980 0
M  V30 21 C -2.875483 -0.048092 5.620622 0
M  V30 22 C -2.760438 -0.727325 4.443632 0
M  V30 23 C -1.738214 -0.852501 3.468016 0
M  V30 24 C 1.023122 1.268984 -0.208409 0
M  V30 25 C 1.178216 -0.064096 -0.470434 0
M  V30 26 C 1.145909 -2.962383 -2.698518 0
M  V30 27 H 1.813663 -5.977727 -1.460181 0
M  V30 28 H 2.599661 -4.593976 0.502591 0
M  V30 29 H 2.394057 -2.196112 0.256388 0
M  V30 30 H 1.798879 -0.292606 -3.692316 0
M  V30 31 H 1.573180 2.206589 -3.518175 0
M  V30 32 H 0.636804 5.049218 0.060961 0
M  V30 33 H 0.455427 1.651640 2.801922 0
M  V30 34 H 1.478824 -0.000992 3.736710 0
M  V30 35 H 0.589426 -1.065774 2.555205 0
M  V30 36 H 0.307543 1.282001 5.350108 0
M  V30 37 H -1.659006 1.198825 6.695724 0
M  V30 38 H -3.760648 -0.113671 6.188008 0
M  V30 39 H -3.580707 -1.371406 4.029813 0
M  V30 40 H -1.691373 -1.394653 2.556666 0
M  V30 41 H 1.060897 -0.694023 0.394531 0
M  V30 42 H 0.741150 -2.489668 -3.605688 0
M  V30 END ATOM
M  V30 BEGIN BOND
M  V30 1 3 1 2
M  V30 2 1 2 3
M  V30 3 2 3 4
M  V30 4 1 4 5
M  V30 5 2 5 6
M  V30 6 1 6 7
M  V30 7 1 7 8
M  V30 8 2 8 9
M  V30 9 1 9 10
M  V30 10 2 10 11
M  V30 11 1 11 12
M  V30 12 2 12 13
M  V30 13 1 13 14
M  V30 14 2 14 15
M  V30 15 1 15 16
M  V30 16 1 16 17
M  V30 17 1 17 18
M  V30 18 2 18 19
M  V30 19 1 19 20
M  V30 20 2 20 21
M  V30 21 1 21 22
M  V30 22 2 22 23
M  V30 23 1 15 24
M  V30 24 2 24 25
M  V30 25 2 7 26
M  V30 26 1 26 3
M  V30 27 1 25 8
M  V30 28 1 24 11
M  V30 29 1 23 18
M  V30 30 1 4 27
M  V30 31 1 5 28
M  V30 32 1 6 29
M  V30 33 1 9 30
M  V30 34 1 10 31
M  V30 35 1 13 32
M  V30 36 1 16 33
M  V30 37 1 17 34
M  V30 38 1 17 35
M  V30 39 1 19 36
M  V30 40 1 20 37
M  V30 41 1 21 38
M  V30 42 1 22 39
M  V30 43 1 23 40
M  V30 44 1 25 41
M  V30 45 1 26 42
M  V30 END BOND
M  V30 END CTAB
M  END
>  <Dataset>  (273) 
ChEMBL_Kinases

>  <Ligand_Instance>  (273) 
nan

>  <PDB_ID>  (273) 
nan

>  <Standardized_SMILES>  (273) 
N#Cc1cccc(-c2ccc3ncnc(NCc4ccccc4)c3c2)c1

>  <Name>  (273) 
nan

>  <Pocket>  (273) 
nan

>  <ATP_Site>  (273) 
nan

>  <Peripheral>  (273) 
nan

>  <Num_H_Atoms_ProtBoundConf>  (273) 
nan

>  <Num_Resolved_Atoms>  (273) 
nan

>  <Num_Not_Resolved_Atoms>  (273) 
nan

$$$$
CHEMBL4878169
     RDKit          3D

  0  0  0  0  0  0  0  0  0  0999 V3000
M  V30 BEGIN CTAB
M  V30 COUNTS 58 63 0 0 0
M  V30 BEGIN ATOM
M  V30 1 C 3.276484 -4.319322 2.766317 0
M  V30 2 C 1.953151 -3.765575 3.283634 0
M  V30 3 N 1.907526 -2.366957 3.017320 0
M  V30 4 C 2.316642 -1.340891 3.782685 0
M  V30 5 O 2.830997 -1.406188 4.917981 0
M  V30 6 C 2.070477 -0.191465 3.097110 0
M  V30 7 C 2.287339 1.125929 3.404494 0
M  V30 8 N 1.931190 2.080552 2.502286 0
M  V30 9 C 1.374824 1.740393 1.325422 0
M  V30 10 N 0.873175 2.415325 0.178061 0
M  V30 11 C -0.550562 2.406734 0.023258 0
M  V30 12 C -1.162687 2.955391 -1.080212 0
M  V30 13 C -2.531319 2.938063 -1.251780 0
M  V30 14 C -3.342668 2.356922 -0.299738 0
M  V30 15 C -2.755017 1.798142 0.821209 0
M  V30 16 C -1.390451 1.830579 0.964485 0
M  V30 17 C -3.678276 1.190614 1.815195 0
M  V30 18 C -4.736884 0.343370 1.149056 0
M  V30 19 N -5.155674 0.849774 -0.115125 0
M  V30 20 C -4.828137 2.243214 -0.331569 0
M  V30 21 N 1.178597 0.438321 1.060391 0
M  V30 22 C 1.506950 -0.572146 1.911734 0
M  V30 23 N 1.417646 -1.939354 1.891703 0
M  V30 24 C 0.835306 -2.513751 0.708195 0
M  V30 25 C -0.273127 -3.338957 0.655075 0
M  V30 26 C -0.718815 -3.815909 -0.561627 0
M  V30 27 C -0.069168 -3.479790 -1.745838 0
M  V30 28 C 1.033049 -2.654257 -1.648907 0
M  V30 29 C 1.733353 -2.283771 -2.905204 0
M  V30 30 C 0.925561 -1.613888 -3.921673 0
M  V30 31 N 0.261320 -1.069847 -4.725576 0
M  V30 32 C 2.878738 -3.097503 -3.387350 0
M  V30 33 C 3.171861 -1.747173 -2.783193 0
M  V30 34 N 1.432875 -2.215149 -0.467657 0
M  V30 35 H 3.913428 -3.509943 2.353710 0
M  V30 36 H 3.082552 -5.020314 1.920280 0
M  V30 37 H 3.812918 -4.919602 3.548240 0
M  V30 38 H 1.096765 -4.334440 2.897481 0
M  V30 39 H 1.969678 -3.928733 4.377901 0
M  V30 40 H 2.718440 1.505497 4.299012 0
M  V30 41 H 1.436217 2.908679 -0.547542 0
M  V30 42 H -0.538036 3.400066 -1.814305 0
M  V30 43 H -3.048053 3.360835 -2.110044 0
M  V30 44 H -0.934821 1.386912 1.854590 0
M  V30 45 H -4.130240 1.963346 2.484184 0
M  V30 46 H -3.096094 0.518891 2.477336 0
M  V30 47 H -5.598311 0.259676 1.836641 0
M  V30 48 H -4.357959 -0.712524 1.016787 0
M  V30 49 H -4.710424 0.311143 -0.911360 0
M  V30 50 H -5.228887 2.822533 0.526005 0
M  V30 51 H -5.245472 2.565633 -1.307013 0
M  V30 52 H -0.745144 -3.566336 1.599676 0
M  V30 53 H -1.606004 -4.460823 -0.507956 0
M  V30 54 H -0.454601 -3.873651 -2.652329 0
M  V30 55 H 3.321706 -3.920995 -2.766435 0
M  V30 56 H 3.030868 -3.190047 -4.481409 0
M  V30 57 H 3.582723 -1.640955 -1.773116 0
M  V30 58 H 3.469087 -0.944126 -3.483225 0
M  V30 END ATOM
M  V30 BEGIN BOND
M  V30 1 1 1 2
M  V30 2 1 2 3
M  V30 3 1 3 4
M  V30 4 2 4 5
M  V30 5 1 4 6
M  V30 6 2 6 7
M  V30 7 1 7 8
M  V30 8 2 8 9
M  V30 9 1 9 10
M  V30 10 1 10 11
M  V30 11 2 11 12
M  V30 12 1 12 13
M  V30 13 2 13 14
M  V30 14 1 14 15
M  V30 15 2 15 16
M  V30 16 1 15 17
M  V30 17 1 17 18
M  V30 18 1 18 19
M  V30 19 1 19 20
M  V30 20 1 9 21
M  V30 21 2 21 22
M  V30 22 1 22 23
M  V30 23 1 23 24
M  V30 24 2 24 25
M  V30 25 1 25 26
M  V30 26 2 26 27
M  V30 27 1 27 28
M  V30 28 1 28 29
M  V30 29 1 29 30
M  V30 30 3 30 31
M  V30 31 1 29 32
M  V30 32 1 32 33
M  V30 33 2 28 34
M  V30 34 1 23 3
M  V30 35 1 34 24
M  V30 36 1 22 6
M  V30 37 1 33 29
M  V30 38 1 16 11
M  V30 39 1 20 14
M  V30 40 1 1 35
M  V30 41 1 1 36
M  V30 42 1 1 37
M  V30 43 1 2 38
M  V30 44 1 2 39
M  V30 45 1 7 40
M  V30 46 1 10 41
M  V30 47 1 12 42
M  V30 48 1 13 43
M  V30 49 1 16 44
M  V30 50 1 17 45
M  V30 51 1 17 46
M  V30 52 1 18 47
M  V30 53 1 18 48
M  V30 54 1 19 49
M  V30 55 1 20 50
M  V30 56 1 20 51
M  V30 57 1 25 52
M  V30 58 1 26 53
M  V30 59 1 27 54
M  V30 60 1 32 55
M  V30 61 1 32 56
M  V30 62 1 33 57
M  V30 63 1 33 58
M  V30 END BOND
M  V30 END CTAB
M  END
>  <Dataset>  (274) 
ChEMBL_Kinases

>  <Ligand_Instance>  (274) 
nan

>  <PDB_ID>  (274) 
nan

>  <Standardized_SMILES>  (274) 
CCn1c(=O)c2cnc(Nc3ccc4c(c3)CCNC4)nc2n1-c1cccc(C2(C#N)CC2)n1

>  <Name>  (274) 
nan

>  <Pocket>  (274) 
nan

>  <ATP_Site>  (274) 
nan

>  <Peripheral>  (274) 
nan

>  <Num_H_Atoms_ProtBoundConf>  (274) 
nan

>  <Num_Resolved_Atoms>  (274) 
nan

>  <Num_Not_Resolved_Atoms>  (274) 
nan

$$$$
CHEMBL4878146
     RDKit          3D

  0  0  0  0  0  0  0  0  0  0999 V3000
M  V30 BEGIN CTAB
M  V30 COUNTS 46 48 0 0 0
M  V30 BEGIN ATOM
M  V30 1 N 0.338089 -2.767612 6.122259 0
M  V30 2 C 0.684857 -2.228899 5.151060 0
M  V30 3 C 1.107940 -1.540468 3.959867 0
M  V30 4 C 2.143959 -0.636318 4.020189 0
M  V30 5 N 2.483718 -0.035658 2.882833 0
M  V30 6 C 1.882070 -0.256751 1.691502 0
M  V30 7 N 2.288443 0.420929 0.504845 0
M  V30 8 C 1.708188 0.221532 -0.790646 0
M  V30 9 C 2.297383 1.115828 -1.819497 0
M  V30 10 C 3.254728 0.633149 -2.712829 0
M  V30 11 C 3.831652 1.453313 -3.675984 0
M  V30 12 C 3.460168 2.789845 -3.768802 0
M  V30 13 C 2.510917 3.190953 -2.853676 0
M  V30 14 C 1.885456 2.439727 -1.862911 0
M  V30 15 C 0.880569 3.037822 -0.975970 0
M  V30 16 F 1.196615 2.986996 0.355216 0
M  V30 17 F 0.760590 4.388835 -1.289346 0
M  V30 18 F -0.395317 2.510770 -1.217599 0
M  V30 19 C 0.851323 -1.167823 1.675846 0
M  V30 20 C 0.417836 -1.847680 2.797950 0
M  V30 21 N -0.656391 -2.792634 2.765093 0
M  V30 22 C -1.307260 -3.022662 1.474427 0 CFG=1
M  V30 23 C -2.423712 -4.032773 1.598970 0
M  V30 24 C -3.399818 -2.883657 1.677096 0 CFG=1
M  V30 25 C -3.801888 -2.651973 3.086325 0
M  V30 26 N -4.712190 -1.572993 3.201432 0
M  V30 27 O -3.568591 -3.137795 4.221216 0
M  V30 28 C -2.320068 -1.980526 1.134882 0
M  V30 29 H 2.677165 -0.400564 4.926974 0
M  V30 30 H 3.085855 1.118251 0.610890 0
M  V30 31 H 0.604707 0.268335 -0.804768 0
M  V30 32 H 1.957349 -0.832691 -1.092940 0
M  V30 33 H 3.559810 -0.412234 -2.655554 0
M  V30 34 H 4.573911 1.108096 -4.379523 0
M  V30 35 H 3.849084 3.499038 -4.477490 0
M  V30 36 H 2.200210 4.246051 -2.906657 0
M  V30 37 H 0.362925 -1.349838 0.716850 0
M  V30 38 H -0.888805 -3.245426 3.674259 0
M  V30 39 H -0.580475 -3.247094 0.656136 0
M  V30 40 H -2.620438 -4.616440 0.671296 0
M  V30 41 H -2.341282 -4.668450 2.515790 0
M  V30 42 H -4.256989 -2.969225 0.975443 0
M  V30 43 H -4.657877 -0.532940 3.181658 0
M  V30 44 H -5.394753 -0.788444 3.287995 0
M  V30 45 H -2.212270 -0.990452 1.618201 0
M  V30 46 H -2.429096 -1.865917 0.015592 0
M  V30 END ATOM
M  V30 BEGIN BOND
M  V30 1 3 1 2
M  V30 2 1 2 3
M  V30 3 2 3 4
M  V30 4 1 4 5
M  V30 5 2 5 6
M  V30 6 1 6 7
M  V30 7 1 7 8
M  V30 8 1 8 9
M  V30 9 2 9 10
M  V30 10 1 10 11
M  V30 11 2 11 12
M  V30 12 1 12 13
M  V30 13 2 13 14
M  V30 14 1 14 15
M  V30 15 1 15 16
M  V30 16 1 15 17
M  V30 17 1 15 18
M  V30 18 1 6 19
M  V30 19 2 19 20
M  V30 20 1 20 21
M  V30 21 1 21 22
M  V30 22 1 22 23
M  V30 23 1 23 24
M  V30 24 1 24 25
M  V30 25 1 25 26
M  V30 26 2 25 27
M  V30 27 1 24 28
M  V30 28 1 20 3
M  V30 29 1 28 22
M  V30 30 1 14 9
M  V30 31 1 4 29
M  V30 32 1 7 30
M  V30 33 1 8 31
M  V30 34 1 8 32
M  V30 35 1 10 33
M  V30 36 1 11 34
M  V30 37 1 12 35
M  V30 38 1 13 36
M  V30 39 1 19 37
M  V30 40 1 21 38
M  V30 41 1 22 39 CFG=3
M  V30 42 1 23 40
M  V30 43 1 23 41
M  V30 44 1 24 42 CFG=3
M  V30 45 1 26 43
M  V30 46 1 26 44
M  V30 47 1 28 45
M  V30 48 1 28 46
M  V30 END BOND
M  V30 END CTAB
M  END
>  <Dataset>  (275) 
ChEMBL_Kinases

>  <Ligand_Instance>  (275) 
nan

>  <PDB_ID>  (275) 
nan

>  <Standardized_SMILES>  (275) 
N#Cc1cnc(NCc2ccccc2C(F)(F)F)cc1N[C@H]1C[C@@H](C(N)=O)C1

>  <Name>  (275) 
nan

>  <Pocket>  (275) 
nan

>  <ATP_Site>  (275) 
nan

>  <Peripheral>  (275) 
nan

>  <Num_H_Atoms_ProtBoundConf>  (275) 
nan

>  <Num_Resolved_Atoms>  (275) 
nan

>  <Num_Not_Resolved_Atoms>  (275) 
nan

$$$$
CHEMBL1596170
     RDKit          3D

  0  0  0  0  0  0  0  0  0  0999 V3000
M  V30 BEGIN CTAB
M  V30 COUNTS 48 51 0 0 0
M  V30 BEGIN ATOM
M  V30 1 N 3.024637 -6.643429 -2.238622 0
M  V30 2 C 3.028997 -5.500507 -1.911148 0
M  V30 3 C 3.041954 -4.180088 -1.511661 0
M  V30 4 C 3.967081 -3.526220 -0.739234 0
M  V30 5 C 4.184589 -2.400684 -0.084379 0
M  V30 6 C 3.051986 -1.517152 -0.212399 0
M  V30 7 C 2.080684 -2.137917 -0.999828 0
M  V30 8 C 0.924305 -1.222161 -1.171003 0
M  V30 9 N 0.357197 -0.287359 -0.648082 0
M  V30 10 C -0.321145 0.681176 -0.252393 0
M  V30 11 N -0.776849 1.676305 0.583478 0
M  V30 12 C -0.048399 1.708203 1.827157 0
M  V30 13 C -0.013718 0.451018 2.620337 0
M  V30 14 N -1.268740 -0.054037 3.104976 0
M  V30 15 C -1.914770 0.751485 4.094294 0
M  V30 16 C -1.093509 1.047386 5.313176 0
M  V30 17 O -0.129187 0.064591 5.495249 0
M  V30 18 C -0.715183 -1.166354 5.247967 0
M  V30 19 C -0.946780 -1.323661 3.785636 0
M  V30 20 C -1.055248 0.701711 -1.418084 0
M  V30 21 C -2.101461 1.446757 -2.088925 0
M  V30 22 C -2.860596 1.723470 -2.990775 0
M  V30 23 C -2.487199 0.712121 -3.929378 0
M  V30 24 C -1.524580 -0.256819 -3.757986 0
M  V30 25 C -0.808981 -0.245793 -2.475783 0
M  V30 26 N 0.164755 -1.204504 -2.367318 0
M  V30 27 C 1.915418 -3.294462 -1.649828 0
M  V30 28 H 4.865010 -4.213811 -0.632333 0
M  V30 29 H 5.003918 -2.028942 0.499388 0
M  V30 30 H 2.961335 -0.549505 0.222193 0
M  V30 31 H -1.519119 2.371019 0.456996 0
M  V30 32 H 0.996977 1.984871 1.568941 0
M  V30 33 H -0.436545 2.501308 2.516301 0
M  V30 34 H 0.665299 0.591993 3.470778 0
M  V30 35 H 0.514441 -0.363698 2.012264 0
M  V30 36 H -2.816492 0.177064 4.438978 0
M  V30 37 H -2.300828 1.713743 3.649446 0
M  V30 38 H -0.592556 2.030818 5.303440 0
M  V30 39 H -1.723235 1.054334 6.238620 0
M  V30 40 H -0.061718 -1.973376 5.622708 0
M  V30 41 H -1.685014 -1.215638 5.800460 0
M  V30 42 H -1.812637 -2.011499 3.557737 0
M  V30 43 H -0.023221 -1.748991 3.305731 0
M  V30 44 H -2.336237 2.239308 -1.291782 0
M  V30 45 H -3.615920 2.389486 -3.261514 0
M  V30 46 H -2.889083 0.539175 -4.948061 0
M  V30 47 H -1.191302 -1.058519 -4.439982 0
M  V30 48 H 1.065695 -3.599428 -2.221030 0
M  V30 END ATOM
M  V30 BEGIN BOND
M  V30 1 3 1 2
M  V30 2 1 2 3
M  V30 3 2 3 4
M  V30 4 1 4 5
M  V30 5 2 5 6
M  V30 6 1 6 7
M  V30 7 1 7 8
M  V30 8 2 8 9
M  V30 9 1 9 10
M  V30 10 1 10 11
M  V30 11 1 11 12
M  V30 12 1 12 13
M  V30 13 1 13 14
M  V30 14 1 14 15
M  V30 15 1 15 16
M  V30 16 1 16 17
M  V30 17 1 17 18
M  V30 18 1 18 19
M  V30 19 2 10 20
M  V30 20 1 20 21
M  V30 21 2 21 22
M  V30 22 1 22 23
M  V30 23 2 23 24
M  V30 24 1 24 25
M  V30 25 2 25 26
M  V30 26 2 7 27
M  V30 27 1 27 3
M  V30 28 1 26 8
M  V30 29 1 19 14
M  V30 30 1 25 20
M  V30 31 1 4 28
M  V30 32 1 5 29
M  V30 33 1 6 30
M  V30 34 1 11 31
M  V30 35 1 12 32
M  V30 36 1 12 33
M  V30 37 1 13 34
M  V30 38 1 13 35
M  V30 39 1 15 36
M  V30 40 1 15 37
M  V30 41 1 16 38
M  V30 42 1 16 39
M  V30 43 1 18 40
M  V30 44 1 18 41
M  V30 45 1 19 42
M  V30 46 1 19 43
M  V30 47 1 21 44
M  V30 48 1 22 45
M  V30 49 1 23 46
M  V30 50 1 24 47
M  V30 51 1 27 48
M  V30 END BOND
M  V30 END CTAB
M  END
>  <Dataset>  (276) 
ChEMBL_Kinases

>  <Ligand_Instance>  (276) 
nan

>  <PDB_ID>  (276) 
nan

>  <Standardized_SMILES>  (276) 
N#Cc1cccc(-c2nc(NCCN3CCOCC3)c3ccccc3n2)c1

>  <Name>  (276) 
nan

>  <Pocket>  (276) 
nan

>  <ATP_Site>  (276) 
nan

>  <Peripheral>  (276) 
nan

>  <Num_H_Atoms_ProtBoundConf>  (276) 
nan

>  <Num_Resolved_Atoms>  (276) 
nan

>  <Num_Not_Resolved_Atoms>  (276) 
nan

$$$$
CHEMBL4787157
     RDKit          3D

  0  0  0  0  0  0  0  0  0  0999 V3000
M  V30 BEGIN CTAB
M  V30 COUNTS 34 36 0 0 0
M  V30 BEGIN ATOM
M  V30 1 C 0.555234 -5.712180 0.349011 0
M  V30 2 O -0.476431 -5.399245 1.235442 0
M  V30 3 C -0.788745 -4.130953 1.702663 0
M  V30 4 C -0.119221 -2.981685 1.356500 0
M  V30 5 C -0.458625 -1.713036 1.845658 0
M  V30 6 C 0.449719 -0.702687 1.339097 0
M  V30 7 C 0.214624 0.390543 0.656707 0
M  V30 8 C 1.205481 1.342814 0.203565 0
M  V30 9 N 2.421880 1.076389 0.562120 0
M  V30 10 N 0.756892 2.458420 -0.577098 0
M  V30 11 N 1.635831 3.406101 -1.044465 0
M  V30 12 C 1.134194 4.345910 -1.721133 0
M  V30 13 C 1.710101 5.516878 -2.377843 0
M  V30 14 F 1.495204 5.547879 -3.740133 0
M  V30 15 F 1.070838 6.629991 -1.814155 0
M  V30 16 F 3.057392 5.694455 -2.179594 0
M  V30 17 S -0.654943 4.119283 -1.854147 0
M  V30 18 C -0.629679 2.604165 -0.885260 0
M  V30 19 N -1.500691 1.747462 -0.475094 0
M  V30 20 C -1.168378 0.609608 0.300992 0
M  V30 21 O -2.132454 -0.099128 0.597219 0
M  V30 22 C -1.528755 -1.688439 2.716105 0
M  V30 23 C -2.206302 -2.827728 3.069622 0
M  V30 24 C -1.853572 -4.061449 2.574713 0
M  V30 25 O -2.593512 -5.161550 2.985277 0
M  V30 26 H 1.484226 -5.127551 0.481911 0
M  V30 27 H 0.857263 -6.774096 0.586856 0
M  V30 28 H 0.275428 -5.701935 -0.722860 0
M  V30 29 H 0.700387 -3.200038 0.657336 0
M  V30 30 H 1.520138 -0.870442 1.560520 0
M  V30 31 H 3.168186 1.739363 0.255399 0
M  V30 32 H -1.748338 -0.700690 3.096908 0
M  V30 33 H -3.018043 -2.677190 3.751056 0
M  V30 34 H -2.836935 -5.242723 3.965351 0
M  V30 END ATOM
M  V30 BEGIN BOND
M  V30 1 1 1 2
M  V30 2 1 2 3
M  V30 3 2 3 4
M  V30 4 1 4 5
M  V30 5 1 5 6
M  V30 6 2 6 7
M  V30 7 1 7 8
M  V30 8 2 8 9
M  V30 9 1 8 10
M  V30 10 1 10 11
M  V30 11 2 11 12
M  V30 12 1 12 13
M  V30 13 1 13 14
M  V30 14 1 13 15
M  V30 15 1 13 16
M  V30 16 1 12 17
M  V30 17 1 17 18
M  V30 18 2 18 19
M  V30 19 1 19 20
M  V30 20 2 20 21
M  V30 21 2 5 22
M  V30 22 1 22 23
M  V30 23 2 23 24
M  V30 24 1 24 25
M  V30 25 1 24 3
M  V30 26 1 20 7
M  V30 27 1 18 10
M  V30 28 1 1 26
M  V30 29 1 1 27
M  V30 30 1 1 28
M  V30 31 1 4 29
M  V30 32 1 6 30
M  V30 33 1 9 31
M  V30 34 1 22 32
M  V30 35 1 23 33
M  V30 36 1 25 34
M  V30 END BOND
M  V30 END CTAB
M  END
>  <Dataset>  (277) 
ChEMBL_Kinases

>  <Ligand_Instance>  (277) 
nan

>  <PDB_ID>  (277) 
nan

>  <Standardized_SMILES>  (277) 
COc1cc(/C=C2/C(=N)N3N=C(C(F)(F)F)SC3=NC2=O)ccc1O

>  <Name>  (277) 
nan

>  <Pocket>  (277) 
nan

>  <ATP_Site>  (277) 
nan

>  <Peripheral>  (277) 
nan

>  <Num_H_Atoms_ProtBoundConf>  (277) 
nan

>  <Num_Resolved_Atoms>  (277) 
nan

>  <Num_Not_Resolved_Atoms>  (277) 
nan

$$$$
CHEMBL494000
     RDKit          3D

  0  0  0  0  0  0  0  0  0  0999 V3000
M  V30 BEGIN CTAB
M  V30 COUNTS 52 55 0 0 0
M  V30 BEGIN ATOM
M  V30 1 C -2.208906 -2.158726 -2.291582 0
M  V30 2 C -1.857906 -2.526346 -0.866166 0
M  V30 3 C -0.422393 -2.896749 -0.782673 0
M  V30 4 C 0.583976 -1.958205 -0.804951 0
M  V30 5 N 0.178942 -0.607921 -0.914180 0
M  V30 6 C 0.731020 0.674664 -0.977019 0
M  V30 7 C 1.114110 1.091526 -2.256290 0
M  V30 8 C 0.950759 0.236303 -3.417379 0
M  V30 9 N 0.823508 -0.459792 -4.338041 0
M  V30 10 C 1.675871 2.348672 -2.505552 0
M  V30 11 N 1.836746 3.158086 -1.446682 0
M  V30 12 C 1.485615 2.808583 -0.192242 0
M  V30 13 C 0.924313 1.554856 0.063585 0
M  V30 14 C 0.552972 1.186160 1.395427 0
M  V30 15 C 0.786584 0.059570 2.154357 0
M  V30 16 C 0.310682 -0.078542 3.439332 0
M  V30 17 C -0.433374 0.911089 4.045919 0
M  V30 18 O -0.937680 0.825855 5.335204 0
M  V30 19 C -0.714074 -0.319605 6.135563 0
M  V30 20 C -0.681712 2.050267 3.307878 0
M  V30 21 O -1.441142 3.070786 3.915980 0
M  V30 22 C -1.741759 4.265675 3.237036 0
M  V30 23 C -0.202271 2.201039 1.999751 0
M  V30 24 C 1.926270 -2.258994 -0.729351 0
M  V30 25 C 2.320710 -3.574611 -0.624188 0
M  V30 26 C 1.347722 -4.553877 -0.597821 0
M  V30 27 N 1.387213 -5.902905 -0.504523 0
M  V30 28 C 0.151921 -6.433180 -0.519026 0
M  V30 29 C -0.742564 -5.382533 -0.627140 0
M  V30 30 C 0.014018 -4.209839 -0.675856 0
M  V30 31 H -2.938051 -2.928708 -2.678823 0
M  V30 32 H -1.294381 -2.152159 -2.902671 0
M  V30 33 H -2.662676 -1.141174 -2.311101 0
M  V30 34 H -2.459259 -3.409085 -0.530640 0
M  V30 35 H -2.137865 -1.695712 -0.190204 0
M  V30 36 H -0.809742 -0.296327 -0.977605 0
M  V30 37 H 1.959517 2.634124 -3.510669 0
M  V30 38 H 1.644743 3.514759 0.620619 0
M  V30 39 H 1.374013 -0.668226 1.627118 0
M  V30 40 H 0.528411 -0.976071 3.970089 0
M  V30 41 H 0.289934 -0.313192 6.631445 0
M  V30 42 H -1.499489 -0.430760 6.919351 0
M  V30 43 H -0.751168 -1.246307 5.527061 0
M  V30 44 H -2.291581 4.905057 3.951312 0
M  V30 45 H -0.829743 4.733596 2.817419 0
M  V30 46 H -2.404018 3.975675 2.388917 0
M  V30 47 H -0.482891 3.163070 1.543980 0
M  V30 48 H 2.696659 -1.505117 -0.749280 0
M  V30 49 H 3.359572 -3.868373 -0.561520 0
M  V30 50 H 2.282177 -6.413330 -0.433243 0
M  V30 51 H -0.113831 -7.482445 -0.458542 0
M  V30 52 H -1.815159 -5.417146 -0.668696 0
M  V30 END ATOM
M  V30 BEGIN BOND
M  V30 1 1 1 2
M  V30 2 1 2 3
M  V30 3 2 3 4
M  V30 4 1 4 5
M  V30 5 1 5 6
M  V30 6 2 6 7
M  V30 7 1 7 8
M  V30 8 3 8 9
M  V30 9 1 7 10
M  V30 10 2 10 11
M  V30 11 1 11 12
M  V30 12 2 12 13
M  V30 13 1 13 14
M  V30 14 2 14 15
M  V30 15 1 15 16
M  V30 16 2 16 17
M  V30 17 1 17 18
M  V30 18 1 18 19
M  V30 19 1 17 20
M  V30 20 1 20 21
M  V30 21 1 21 22
M  V30 22 2 20 23
M  V30 23 1 4 24
M  V30 24 2 24 25
M  V30 25 1 25 26
M  V30 26 1 26 27
M  V30 27 1 27 28
M  V30 28 2 28 29
M  V30 29 1 29 30
M  V30 30 1 30 3
M  V30 31 1 13 6
M  V30 32 1 23 14
M  V30 33 2 30 26
M  V30 34 1 1 31
M  V30 35 1 1 32
M  V30 36 1 1 33
M  V30 37 1 2 34
M  V30 38 1 2 35
M  V30 39 1 5 36
M  V30 40 1 10 37
M  V30 41 1 12 38
M  V30 42 1 15 39
M  V30 43 1 16 40
M  V30 44 1 19 41
M  V30 45 1 19 42
M  V30 46 1 19 43
M  V30 47 1 22 44
M  V30 48 1 22 45
M  V30 49 1 22 46
M  V30 50 1 23 47
M  V30 51 1 24 48
M  V30 52 1 25 49
M  V30 53 1 27 50
M  V30 54 1 28 51
M  V30 55 1 29 52
M  V30 END BOND
M  V30 END CTAB
M  END
>  <Dataset>  (278) 
ChEMBL_Kinases

>  <Ligand_Instance>  (278) 
nan

>  <PDB_ID>  (278) 
nan

>  <Standardized_SMILES>  (278) 
CCc1c(Nc2c(C#N)cncc2-c2ccc(OC)c(OC)c2)ccc2[nH]ccc12

>  <Name>  (278) 
nan

>  <Pocket>  (278) 
nan

>  <ATP_Site>  (278) 
nan

>  <Peripheral>  (278) 
nan

>  <Num_H_Atoms_ProtBoundConf>  (278) 
nan

>  <Num_Resolved_Atoms>  (278) 
nan

>  <Num_Not_Resolved_Atoms>  (278) 
nan

$$$$
CHEMBL493999
     RDKit          3D

  0  0  0  0  0  0  0  0  0  0999 V3000
M  V30 BEGIN CTAB
M  V30 COUNTS 75 80 0 0 0
M  V30 BEGIN ATOM
M  V30 1 C 2.516730 2.043859 3.698165 0
M  V30 2 C 3.370201 1.880864 2.483790 0
M  V30 3 C 3.224692 2.693731 1.383502 0
M  V30 4 N 2.216490 3.688666 1.485773 0
M  V30 5 C 1.648644 4.731117 0.721446 0
M  V30 6 C 2.346829 5.918246 0.770296 0
M  V30 7 C 3.576433 6.079107 1.532932 0
M  V30 8 N 4.547552 6.201804 2.157897 0
M  V30 9 C 1.947905 7.073262 0.099567 0
M  V30 10 N 0.825645 7.000289 -0.622399 0
M  V30 11 C 0.129293 5.870837 -0.690091 0
M  V30 12 C 0.497321 4.690990 -0.031333 0
M  V30 13 C -0.267275 3.458798 -0.116011 0
M  V30 14 C 0.251320 2.231087 -0.435807 0
M  V30 15 C -0.540026 1.110812 -0.482836 0
M  V30 16 C -1.887186 1.123078 -0.220614 0
M  V30 17 O -2.865198 0.178116 -0.202880 0
M  V30 18 C -2.812503 -1.187579 -0.476696 0
M  V30 19 C -2.418696 -1.583765 -1.848764 0
M  V30 20 N -2.360468 -2.983101 -2.129896 0
M  V30 21 C -1.347944 -3.738851 -1.498394 0
M  V30 22 C -1.261203 -5.069956 -2.265154 0
M  V30 23 C -2.516485 -5.812510 -1.858298 0
M  V30 24 N -2.644085 -5.765994 -0.419721 0
M  V30 25 C -3.818719 -6.450038 0.065573 0
M  V30 26 C -3.520356 -6.671380 1.539276 0
M  V30 27 C -2.024417 -6.375652 1.686702 0
M  V30 28 C -1.593943 -6.550199 0.231751 0
M  V30 29 C -3.672451 -5.036901 -2.446971 0
M  V30 30 C -3.641498 -3.575176 -2.216768 0
M  V30 31 C -2.432551 2.374524 0.108575 0
M  V30 32 C -1.621156 3.514502 0.155511 0
M  V30 33 C 3.997417 2.563995 0.251180 0
M  V30 34 C 4.962764 1.579219 0.206523 0
M  V30 35 C 5.119387 0.757103 1.302709 0
M  V30 36 N 5.935150 -0.265457 1.583531 0
M  V30 37 C 5.708456 -0.760780 2.805350 0
M  V30 38 C 4.685605 -0.035112 3.380921 0
M  V30 39 C 4.325456 0.916086 2.423677 0
M  V30 40 H 2.873258 2.964279 4.217286 0
M  V30 41 H 1.436629 2.118341 3.430512 0
M  V30 42 H 2.599702 1.136101 4.329500 0
M  V30 43 H 1.622988 3.826976 2.309368 0
M  V30 44 H 2.486573 8.004898 0.131086 0
M  V30 45 H -0.786835 5.859169 -1.296227 0
M  V30 46 H 1.298550 2.131352 -0.663829 0
M  V30 47 H -0.159731 0.134683 -0.719299 0
M  V30 48 H -3.856798 -1.573204 -0.262251 0
M  V30 49 H -2.202203 -1.654273 0.324277 0
M  V30 50 H -1.483459 -1.093092 -2.168296 0
M  V30 51 H -3.196565 -1.174879 -2.570778 0
M  V30 52 H -0.370148 -3.251304 -1.652511 0
M  V30 53 H -1.551342 -4.035225 -0.454884 0
M  V30 54 H -0.329531 -5.596211 -2.045192 0
M  V30 55 H -1.360627 -4.783383 -3.348562 0
M  V30 56 H -2.564472 -6.845466 -2.256008 0
M  V30 57 H -4.745509 -5.866489 0.027776 0
M  V30 58 H -4.000318 -7.372444 -0.496765 0
M  V30 59 H -3.724622 -7.721765 1.790144 0
M  V30 60 H -4.117319 -6.018451 2.205533 0
M  V30 61 H -1.539278 -7.099408 2.359759 0
M  V30 62 H -1.872193 -5.314276 1.982783 0
M  V30 63 H -0.586777 -6.176465 0.044291 0
M  V30 64 H -1.720879 -7.638524 -0.001126 0
M  V30 65 H -4.588848 -5.496531 -2.024800 0
M  V30 66 H -3.682226 -5.264779 -3.538622 0
M  V30 67 H -4.257773 -3.234578 -1.356335 0
M  V30 68 H -4.156124 -3.105263 -3.107170 0
M  V30 69 H -3.478171 2.590504 0.348940 0
M  V30 70 H -2.042091 4.492651 0.412552 0
M  V30 71 H 3.870708 3.210368 -0.603138 0
M  V30 72 H 5.614231 1.398863 -0.629682 0
M  V30 73 H 6.674652 -0.684235 0.990264 0
M  V30 74 H 6.195274 -1.577128 3.316532 0
M  V30 75 H 4.270263 -0.189568 4.363711 0
M  V30 END ATOM
M  V30 BEGIN BOND
M  V30 1 1 1 2
M  V30 2 2 2 3
M  V30 3 1 3 4
M  V30 4 1 4 5
M  V30 5 2 5 6
M  V30 6 1 6 7
M  V30 7 3 7 8
M  V30 8 1 6 9
M  V30 9 2 9 10
M  V30 10 1 10 11
M  V30 11 2 11 12
M  V30 12 1 12 13
M  V30 13 2 13 14
M  V30 14 1 14 15
M  V30 15 2 15 16
M  V30 16 1 16 17
M  V30 17 1 17 18
M  V30 18 1 18 19
M  V30 19 1 19 20
M  V30 20 1 20 21
M  V30 21 1 21 22
M  V30 22 1 22 23
M  V30 23 1 23 24
M  V30 24 1 24 25
M  V30 25 1 25 26
M  V30 26 1 26 27
M  V30 27 1 27 28
M  V30 28 1 23 29
M  V30 29 1 29 30
M  V30 30 1 16 31
M  V30 31 2 31 32
M  V30 32 1 3 33
M  V30 33 2 33 34
M  V30 34 1 34 35
M  V30 35 1 35 36
M  V30 36 1 36 37
M  V30 37 2 37 38
M  V30 38 1 38 39
M  V30 39 1 39 2
M  V30 40 1 12 5
M  V30 41 1 32 13
M  V30 42 2 39 35
M  V30 43 1 30 20
M  V30 44 1 28 24
M  V30 45 1 1 40
M  V30 46 1 1 41
M  V30 47 1 1 42
M  V30 48 1 4 43
M  V30 49 1 9 44
M  V30 50 1 11 45
M  V30 51 1 14 46
M  V30 52 1 15 47
M  V30 53 1 18 48
M  V30 54 1 18 49
M  V30 55 1 19 50
M  V30 56 1 19 51
M  V30 57 1 21 52
M  V30 58 1 21 53
M  V30 59 1 22 54
M  V30 60 1 22 55
M  V30 61 1 23 56
M  V30 62 1 25 57
M  V30 63 1 25 58
M  V30 64 1 26 59
M  V30 65 1 26 60
M  V30 66 1 27 61
M  V30 67 1 27 62
M  V30 68 1 28 63
M  V30 69 1 28 64
M  V30 70 1 29 65
M  V30 71 1 29 66
M  V30 72 1 30 67
M  V30 73 1 30 68
M  V30 74 1 31 69
M  V30 75 1 32 70
M  V30 76 1 33 71
M  V30 77 1 34 72
M  V30 78 1 36 73
M  V30 79 1 37 74
M  V30 80 1 38 75
M  V30 END BOND
M  V30 END CTAB
M  END
>  <Dataset>  (279) 
ChEMBL_Kinases

>  <Ligand_Instance>  (279) 
nan

>  <PDB_ID>  (279) 
nan

>  <Standardized_SMILES>  (279) 
Cc1c(Nc2c(C#N)cncc2-c2ccc(OCCN3CCC(N4CCCC4)CC3)cc2)ccc2[nH]ccc12

>  <Name>  (279) 
nan

>  <Pocket>  (279) 
nan

>  <ATP_Site>  (279) 
nan

>  <Peripheral>  (279) 
nan

>  <Num_H_Atoms_ProtBoundConf>  (279) 
nan

>  <Num_Resolved_Atoms>  (279) 
nan

>  <Num_Not_Resolved_Atoms>  (279) 
nan

$$$$
CHEMBL493987
     RDKit          3D

  0  0  0  0  0  0  0  0  0  0999 V3000
M  V30 BEGIN CTAB
M  V30 COUNTS 62 66 0 0 0
M  V30 BEGIN ATOM
M  V30 1 C 5.895875 -4.231489 2.009882 0
M  V30 2 N 5.432887 -3.612104 0.808618 0
M  V30 3 C 5.463351 -2.158156 0.829733 0
M  V30 4 C 5.157421 -1.621311 -0.564576 0
M  V30 5 N 3.854714 -2.067395 -1.011619 0
M  V30 6 C 2.771909 -1.199563 -0.713841 0
M  V30 7 C 2.826585 0.046753 -1.553011 0
M  V30 8 O 1.858102 0.994248 -1.306609 0
M  V30 9 C 0.523129 0.901772 -1.383412 0
M  V30 10 C -0.424817 -0.033683 -1.707352 0
M  V30 11 C -1.774722 0.179735 -1.677939 0
M  V30 12 C -2.288124 1.372896 -1.311946 0
M  V30 13 C -3.659355 1.847777 -1.129087 0
M  V30 14 C -4.058049 3.014160 -1.689076 0
M  V30 15 N -5.343731 3.478790 -1.494381 0
M  V30 16 C -6.127048 2.667370 -0.706840 0
M  V30 17 C -5.685553 1.468615 -0.142047 0
M  V30 18 C -6.738264 0.881155 0.623420 0
M  V30 19 N -7.598650 0.377658 1.261807 0
M  V30 20 C -4.380193 0.992474 -0.340456 0
M  V30 21 N -4.255494 -0.225572 0.350144 0
M  V30 22 C -3.857072 -0.685737 1.607358 0
M  V30 23 C -4.914303 -1.453942 2.144917 0
M  V30 24 C -4.883372 -2.058474 3.386702 0
M  V30 25 C -3.747010 -1.903383 4.156666 0
M  V30 26 C -2.680251 -1.169401 3.698590 0
M  V30 27 N -1.461758 -0.786844 4.100191 0
M  V30 28 C -0.810417 -0.032728 3.208027 0
M  V30 29 C -1.657038 0.101897 2.121760 0
M  V30 30 C -2.787915 -0.600214 2.452672 0
M  V30 31 C -1.395094 2.413809 -0.961022 0
M  V30 32 C -0.005185 2.158089 -1.004201 0
M  V30 33 C 3.649384 -3.461682 -0.866069 0
M  V30 34 C 4.063727 -3.990413 0.491478 0
M  V30 35 H 5.017224 -4.774228 2.472152 0
M  V30 36 H 6.712842 -4.969693 1.871919 0
M  V30 37 H 6.186500 -3.473207 2.776182 0
M  V30 38 H 4.638016 -1.860627 1.509139 0
M  V30 39 H 6.449033 -1.803774 1.116658 0
M  V30 40 H 5.152654 -0.522174 -0.489782 0
M  V30 41 H 5.923490 -1.961338 -1.275239 0
M  V30 42 H 2.719308 -0.941895 0.373012 0
M  V30 43 H 1.836942 -1.770775 -0.905391 0
M  V30 44 H 2.662569 -0.301169 -2.616862 0
M  V30 45 H 3.849654 0.493020 -1.599323 0
M  V30 46 H -0.011049 -0.960175 -2.005881 0
M  V30 47 H -2.512096 -0.538344 -1.920333 0
M  V30 48 H -3.327088 3.540645 -2.277808 0
M  V30 49 H -7.102494 3.130777 -0.627138 0
M  V30 50 H -4.578863 -0.926507 -0.388047 0
M  V30 51 H -5.869882 -1.690373 1.677188 0
M  V30 52 H -5.656617 -2.653537 3.836564 0
M  V30 53 H -3.647255 -2.345013 5.133427 0
M  V30 54 H -1.092133 -1.077938 5.053542 0
M  V30 55 H 0.172682 0.402142 3.282221 0
M  V30 56 H -1.397320 0.657125 1.249676 0
M  V30 57 H -1.730523 3.425888 -0.654616 0
M  V30 58 H 0.595457 3.031798 -0.713346 0
M  V30 59 H 2.583432 -3.710026 -1.009130 0
M  V30 60 H 4.230498 -4.074054 -1.618249 0
M  V30 61 H 3.393427 -3.657920 1.296415 0
M  V30 62 H 4.036741 -5.095976 0.448276 0
M  V30 END ATOM
M  V30 BEGIN BOND
M  V30 1 1 1 2
M  V30 2 1 2 3
M  V30 3 1 3 4
M  V30 4 1 4 5
M  V30 5 1 5 6
M  V30 6 1 6 7
M  V30 7 1 7 8
M  V30 8 1 8 9
M  V30 9 2 9 10
M  V30 10 1 10 11
M  V30 11 2 11 12
M  V30 12 1 12 13
M  V30 13 2 13 14
M  V30 14 1 14 15
M  V30 15 2 15 16
M  V30 16 1 16 17
M  V30 17 1 17 18
M  V30 18 3 18 19
M  V30 19 2 17 20
M  V30 20 1 20 21
M  V30 21 1 21 22
M  V30 22 2 22 23
M  V30 23 1 23 24
M  V30 24 2 24 25
M  V30 25 1 25 26
M  V30 26 1 26 27
M  V30 27 1 27 28
M  V30 28 2 28 29
M  V30 29 1 29 30
M  V30 30 1 12 31
M  V30 31 2 31 32
M  V30 32 1 5 33
M  V30 33 1 33 34
M  V30 34 1 34 2
M  V30 35 1 32 9
M  V30 36 1 20 13
M  V30 37 1 30 22
M  V30 38 2 30 26
M  V30 39 1 1 35
M  V30 40 1 1 36
M  V30 41 1 1 37
M  V30 42 1 3 38
M  V30 43 1 3 39
M  V30 44 1 4 40
M  V30 45 1 4 41
M  V30 46 1 6 42
M  V30 47 1 6 43
M  V30 48 1 7 44
M  V30 49 1 7 45
M  V30 50 1 10 46
M  V30 51 1 11 47
M  V30 52 1 14 48
M  V30 53 1 16 49
M  V30 54 1 21 50
M  V30 55 1 23 51
M  V30 56 1 24 52
M  V30 57 1 25 53
M  V30 58 1 27 54
M  V30 59 1 28 55
M  V30 60 1 29 56
M  V30 61 1 31 57
M  V30 62 1 32 58
M  V30 63 1 33 59
M  V30 64 1 33 60
M  V30 65 1 34 61
M  V30 66 1 34 62
M  V30 END BOND
M  V30 END CTAB
M  END
>  <Dataset>  (280) 
ChEMBL_Kinases

>  <Ligand_Instance>  (280) 
nan

>  <PDB_ID>  (280) 
nan

>  <Standardized_SMILES>  (280) 
CN1CCN(CCOc2ccc(-c3cncc(C#N)c3Nc3cccc4[nH]ccc34)cc2)CC1

>  <Name>  (280) 
nan

>  <Pocket>  (280) 
nan

>  <ATP_Site>  (280) 
nan

>  <Peripheral>  (280) 
nan

>  <Num_H_Atoms_ProtBoundConf>  (280) 
nan

>  <Num_Resolved_Atoms>  (280) 
nan

>  <Num_Not_Resolved_Atoms>  (280) 
nan

$$$$
CHEMBL4787265
     RDKit          3D

  0  0  0  0  0  0  0  0  0  0999 V3000
M  V30 BEGIN CTAB
M  V30 COUNTS 60 64 0 0 0
M  V30 BEGIN ATOM
M  V30 1 C -2.355032 -2.470400 3.693572 0
M  V30 2 C -1.402647 -2.620508 2.548347 0
M  V30 3 C -0.022169 -2.687718 2.760105 0
M  V30 4 C 0.813075 -2.822681 1.649170 0
M  V30 5 N 2.180031 -2.879099 2.076379 0
M  V30 6 C 2.987607 -1.817778 1.584064 0
M  V30 7 C 2.444177 -0.556592 1.847133 0
M  V30 8 C 3.011088 0.660748 1.492307 0
M  V30 9 N 2.382952 1.896166 1.805336 0
M  V30 10 C 3.053987 3.149177 1.529623 0
M  V30 11 C 2.135602 3.989379 0.677337 0
M  V30 12 N 0.764437 3.940147 1.076110 0
M  V30 13 C -0.111487 3.480945 0.014199 0
M  V30 14 C 0.505331 3.311415 2.338279 0
M  V30 15 C 1.064034 1.901951 2.405701 0
M  V30 16 N 4.186025 0.609179 0.838363 0
M  V30 17 C 4.730028 -0.591686 0.572724 0
M  V30 18 N 4.171140 -1.777596 0.922192 0
M  V30 19 C 0.310001 -2.889882 0.367779 0
M  V30 20 O 1.185374 -3.010117 -0.528180 0
M  V30 21 N -1.017276 -2.824640 0.179045 0
M  V30 22 C -1.845466 -2.693516 1.244595 0
M  V30 23 C -3.227351 -2.647511 0.741459 0
M  V30 24 O -4.266287 -2.529353 1.471886 0
M  V30 25 N -3.157032 -2.758120 -0.670967 0
M  V30 26 C -1.767942 -2.878338 -1.031683 0
M  V30 27 C -1.560740 -4.201685 -1.775507 0
M  V30 28 C -2.702174 -4.273497 -2.750888 0
M  V30 29 C -2.820447 -3.119447 -3.673358 0
M  V30 30 C -2.221010 -1.830692 -3.249735 0
M  V30 31 C -1.409157 -1.814219 -2.016050 0
M  V30 32 H -3.198789 -3.159478 3.662654 0
M  V30 33 H -2.705412 -1.400799 3.764889 0
M  V30 34 H -1.787856 -2.670115 4.637452 0
M  V30 35 H 0.272691 -2.626592 3.797711 0
M  V30 36 H 2.575980 -3.637074 2.703391 0
M  V30 37 H 1.487442 -0.434877 2.375669 0
M  V30 38 H 3.291970 3.641993 2.496885 0
M  V30 39 H 3.997390 2.974904 0.938826 0
M  V30 40 H 2.277737 3.592862 -0.373573 0
M  V30 41 H 2.506579 5.052723 0.712165 0
M  V30 42 H -1.031601 2.988335 0.360571 0
M  V30 43 H 0.459158 2.761244 -0.628989 0
M  V30 44 H -0.400972 4.390400 -0.575327 0
M  V30 45 H 0.856776 3.918283 3.187518 0
M  V30 46 H -0.607906 3.218728 2.420778 0
M  V30 47 H 1.154911 1.656162 3.481490 0
M  V30 48 H 0.374420 1.198118 1.895192 0
M  V30 49 H 5.683449 -0.745928 0.045533 0
M  V30 50 H -4.017794 -2.743121 -1.227191 0
M  V30 51 H -1.657362 -5.048627 -1.095006 0
M  V30 52 H -0.583530 -4.217053 -2.287529 0
M  V30 53 H -3.634232 -4.505099 -2.171002 0
M  V30 54 H -2.525459 -5.203752 -3.367344 0
M  V30 55 H -3.932467 -2.940773 -3.795098 0
M  V30 56 H -2.522022 -3.416718 -4.723675 0
M  V30 57 H -1.551129 -1.498929 -4.102777 0
M  V30 58 H -2.982383 -0.993819 -3.215827 0
M  V30 59 H -1.560178 -0.816621 -1.503654 0
M  V30 60 H -0.321408 -1.923374 -2.288202 0
M  V30 END ATOM
M  V30 BEGIN BOND
M  V30 1 1 1 2
M  V30 2 1 2 3
M  V30 3 2 3 4
M  V30 4 1 4 5
M  V30 5 1 5 6
M  V30 6 2 6 7
M  V30 7 1 7 8
M  V30 8 1 8 9
M  V30 9 1 9 10
M  V30 10 1 10 11
M  V30 11 1 11 12
M  V30 12 1 12 13
M  V30 13 1 12 14
M  V30 14 1 14 15
M  V30 15 2 8 16
M  V30 16 1 16 17
M  V30 17 2 17 18
M  V30 18 1 4 19
M  V30 19 2 19 20
M  V30 20 1 19 21
M  V30 21 1 21 22
M  V30 22 1 22 23
M  V30 23 2 23 24
M  V30 24 1 23 25
M  V30 25 1 25 26
M  V30 26 1 26 27
M  V30 27 1 27 28
M  V30 28 1 28 29
M  V30 29 1 29 30
M  V30 30 1 30 31
M  V30 31 2 22 2
M  V30 32 1 31 26
M  V30 33 1 18 6
M  V30 34 1 26 21
M  V30 35 1 15 9
M  V30 36 1 1 32
M  V30 37 1 1 33
M  V30 38 1 1 34
M  V30 39 1 3 35
M  V30 40 1 5 36
M  V30 41 1 7 37
M  V30 42 1 10 38
M  V30 43 1 10 39
M  V30 44 1 11 40
M  V30 45 1 11 41
M  V30 46 1 13 42
M  V30 47 1 13 43
M  V30 48 1 13 44
M  V30 49 1 14 45
M  V30 50 1 14 46
M  V30 51 1 15 47
M  V30 52 1 15 48
M  V30 53 1 17 49
M  V30 54 1 25 50
M  V30 55 1 27 51
M  V30 56 1 27 52
M  V30 57 1 28 53
M  V30 58 1 28 54
M  V30 59 1 29 55
M  V30 60 1 29 56
M  V30 61 1 30 57
M  V30 62 1 30 58
M  V30 63 1 31 59
M  V30 64 1 31 60
M  V30 END BOND
M  V30 END CTAB
M  END
>  <Dataset>  (281) 
ChEMBL_Kinases

>  <Ligand_Instance>  (281) 
nan

>  <PDB_ID>  (281) 
nan

>  <Standardized_SMILES>  (281) 
Cc1cc(Nc2cc(N3CCN(C)CC3)ncn2)c(=O)n2c1C(=O)NC21CCCCC1

>  <Name>  (281) 
nan

>  <Pocket>  (281) 
nan

>  <ATP_Site>  (281) 
nan

>  <Peripheral>  (281) 
nan

>  <Num_H_Atoms_ProtBoundConf>  (281) 
nan

>  <Num_Resolved_Atoms>  (281) 
nan

>  <Num_Not_Resolved_Atoms>  (281) 
nan

$$$$
CHEMBL4787269
     RDKit          3D

  0  0  0  0  0  0  0  0  0  0999 V3000
M  V30 BEGIN CTAB
M  V30 COUNTS 40 43 0 0 0
M  V30 BEGIN ATOM
M  V30 1 N 3.688104 -6.245538 0.377562 0
M  V30 2 C 2.883813 -5.208374 0.926092 0
M  V30 3 N 2.365665 -5.150408 2.164582 0
M  V30 4 N 1.665822 -4.013370 2.301520 0
M  V30 5 C 1.757279 -3.363838 1.125956 0
M  V30 6 C 1.216293 -2.142968 0.735988 0
M  V30 7 C 1.408845 -1.603074 -0.538605 0
M  V30 8 C 0.787819 -0.323815 -0.807186 0
M  V30 9 C 0.339315 0.050760 -2.057141 0
M  V30 10 C -0.245855 1.283945 -2.257762 0
M  V30 11 C -0.388991 2.168935 -1.186412 0
M  V30 12 O -0.929977 3.278009 -1.431260 0
M  V30 13 N 0.044918 1.821599 0.051636 0
M  V30 14 C -0.108109 2.745558 1.153978 0
M  V30 15 C -1.382335 2.596358 1.883890 0
M  V30 16 C -1.271567 1.692819 2.933915 0
M  V30 17 C -2.371613 1.414466 3.745721 0
M  V30 18 C -3.580656 2.066557 3.474002 0
M  V30 19 C -3.641457 2.954882 2.420868 0
M  V30 20 F -4.798575 3.582253 2.156663 0
M  V30 21 C -2.573978 3.240962 1.613745 0
M  V30 22 C 0.606641 0.610706 0.192248 0
M  V30 23 C 2.171669 -2.337503 -1.420523 0
M  V30 24 C 2.719173 -3.551196 -1.057609 0
M  V30 25 C 2.523393 -4.076966 0.204868 0
M  V30 26 H 3.508996 -7.186302 -0.029164 0
M  V30 27 H 4.735810 -6.246783 0.272418 0
M  V30 28 H 1.167654 -3.731648 3.164351 0
M  V30 29 H 0.621652 -1.600179 1.465881 0
M  V30 30 H 0.446225 -0.627215 -2.889951 0
M  V30 31 H -0.581537 1.522755 -3.273344 0
M  V30 32 H 0.772194 2.760263 1.823591 0
M  V30 33 H -0.147728 3.778026 0.702788 0
M  V30 34 H -0.387618 1.142362 3.221958 0
M  V30 35 H -2.390867 0.733416 4.581638 0
M  V30 36 H -4.455527 1.865337 4.095242 0
M  V30 37 H -2.545188 3.916398 0.780610 0
M  V30 38 H 0.933476 0.398656 1.219179 0
M  V30 39 H 2.320594 -1.925786 -2.397468 0
M  V30 40 H 3.319708 -4.138504 -1.738640 0
M  V30 END ATOM
M  V30 BEGIN BOND
M  V30 1 1 1 2
M  V30 2 2 2 3
M  V30 3 1 3 4
M  V30 4 1 4 5
M  V30 5 2 5 6
M  V30 6 1 6 7
M  V30 7 1 7 8
M  V30 8 1 8 9
M  V30 9 2 9 10
M  V30 10 1 10 11
M  V30 11 2 11 12
M  V30 12 1 11 13
M  V30 13 1 13 14
M  V30 14 1 14 15
M  V30 15 2 15 16
M  V30 16 1 16 17
M  V30 17 2 17 18
M  V30 18 1 18 19
M  V30 19 1 19 20
M  V30 20 2 19 21
M  V30 21 1 13 22
M  V30 22 2 7 23
M  V30 23 1 23 24
M  V30 24 2 24 25
M  V30 25 1 25 2
M  V30 26 1 25 5
M  V30 27 2 22 8
M  V30 28 1 21 15
M  V30 29 1 1 26
M  V30 30 1 1 27
M  V30 31 1 4 28
M  V30 32 1 6 29
M  V30 33 1 9 30
M  V30 34 1 10 31
M  V30 35 1 14 32
M  V30 36 1 14 33
M  V30 37 1 16 34
M  V30 38 1 17 35
M  V30 39 1 18 36
M  V30 40 1 21 37
M  V30 41 1 22 38
M  V30 42 1 23 39
M  V30 43 1 24 40
M  V30 END BOND
M  V30 END CTAB
M  END
>  <Dataset>  (282) 
ChEMBL_Kinases

>  <Ligand_Instance>  (282) 
nan

>  <PDB_ID>  (282) 
nan

>  <Standardized_SMILES>  (282) 
Nc1n[nH]c2cc(-c3ccc(=O)n(Cc4cccc(F)c4)c3)ccc12

>  <Name>  (282) 
nan

>  <Pocket>  (282) 
nan

>  <ATP_Site>  (282) 
nan

>  <Peripheral>  (282) 
nan

>  <Num_H_Atoms_ProtBoundConf>  (282) 
nan

>  <Num_Resolved_Atoms>  (282) 
nan

>  <Num_Not_Resolved_Atoms>  (282) 
nan

$$$$
CHEMBL493875
     RDKit          3D

  0  0  0  0  0  0  0  0  0  0999 V3000
M  V30 BEGIN CTAB
M  V30 COUNTS 48 50 0 0 0
M  V30 BEGIN ATOM
M  V30 1 C 0.883513 -3.895256 -0.172198 0
M  V30 2 C 0.831459 -2.700154 -1.127884 0
M  V30 3 N 1.003104 -1.449799 -0.413906 0
M  V30 4 C 2.174412 -0.835503 -0.170152 0
M  V30 5 C 3.519070 -1.251890 -0.546074 0
M  V30 6 N 3.964488 -2.323109 -1.216255 0
M  V30 7 O 5.244748 -2.282411 -1.318431 0
M  V30 8 N 5.719166 -1.223835 -0.746152 0
M  V30 9 C 4.664272 -0.552075 -0.249565 0
M  V30 10 N 4.785416 0.676256 0.456808 0
M  V30 11 N 1.930573 0.295963 0.515626 0
M  V30 12 C 0.585693 0.396677 0.707210 0
M  V30 13 C -0.119268 1.387609 1.356565 0
M  V30 14 C 0.534368 2.517302 1.952840 0
M  V30 15 C 1.070540 3.466874 2.470270 0
M  V30 16 C 1.698485 4.625240 3.108156 0
M  V30 17 C 1.766819 4.434734 4.625830 0
M  V30 18 O 2.531531 3.278607 4.868747 0
M  V30 19 N -1.454530 1.228947 1.395684 0
M  V30 20 C -2.072856 0.173622 0.839448 0
M  V30 21 C -1.416957 -0.842741 0.180404 0
M  V30 22 O -1.858354 -1.965075 -0.432972 0
M  V30 23 C -3.117460 -2.493961 -0.610782 0
M  V30 24 C -3.891745 -2.852734 0.608436 0
M  V30 25 C -5.235884 -3.409585 0.116441 0
M  V30 26 N -5.959309 -2.433618 -0.661331 0
M  V30 27 C -0.021820 -0.717942 0.115287 0
M  V30 28 H 1.896796 -4.121963 0.165270 0
M  V30 29 H 0.298223 -3.582637 0.717424 0
M  V30 30 H 0.349691 -4.761423 -0.607632 0
M  V30 31 H 1.714588 -2.819019 -1.799553 0
M  V30 32 H -0.091240 -2.753241 -1.722464 0
M  V30 33 H 5.678307 0.959993 0.908626 0
M  V30 34 H 4.044705 1.388305 0.595600 0
M  V30 35 H 1.068579 5.491840 2.857769 0
M  V30 36 H 2.741297 4.795524 2.762409 0
M  V30 37 H 2.218628 5.324164 5.062110 0
M  V30 38 H 0.715853 4.306255 4.961962 0
M  V30 39 H 1.999724 2.487201 4.605451 0
M  V30 40 H -3.136634 0.061314 0.871353 0
M  V30 41 H -2.983238 -3.458312 -1.189447 0
M  V30 42 H -3.785334 -1.885078 -1.261111 0
M  V30 43 H -3.426194 -3.708245 1.169928 0
M  V30 44 H -4.038966 -2.056742 1.336822 0
M  V30 45 H -5.811683 -3.844008 0.949491 0
M  V30 46 H -4.965552 -4.264660 -0.547342 0
M  V30 47 H -5.798613 -1.451187 -0.307652 0
M  V30 48 H -5.704386 -2.527436 -1.686337 0
M  V30 END ATOM
M  V30 BEGIN BOND
M  V30 1 1 1 2
M  V30 2 1 2 3
M  V30 3 1 3 4
M  V30 4 1 4 5
M  V30 5 2 5 6
M  V30 6 1 6 7
M  V30 7 1 7 8
M  V30 8 2 8 9
M  V30 9 1 9 10
M  V30 10 2 4 11
M  V30 11 1 11 12
M  V30 12 2 12 13
M  V30 13 1 13 14
M  V30 14 3 14 15
M  V30 15 1 15 16
M  V30 16 1 16 17
M  V30 17 1 17 18
M  V30 18 1 13 19
M  V30 19 2 19 20
M  V30 20 1 20 21
M  V30 21 1 21 22
M  V30 22 1 22 23
M  V30 23 1 23 24
M  V30 24 1 24 25
M  V30 25 1 25 26
M  V30 26 2 21 27
M  V30 27 1 27 3
M  V30 28 1 9 5
M  V30 29 1 27 12
M  V30 30 1 1 28
M  V30 31 1 1 29
M  V30 32 1 1 30
M  V30 33 1 2 31
M  V30 34 1 2 32
M  V30 35 1 10 33
M  V30 36 1 10 34
M  V30 37 1 16 35
M  V30 38 1 16 36
M  V30 39 1 17 37
M  V30 40 1 17 38
M  V30 41 1 18 39
M  V30 42 1 20 40
M  V30 43 1 23 41
M  V30 44 1 23 42
M  V30 45 1 24 43
M  V30 46 1 24 44
M  V30 47 1 25 45
M  V30 48 1 25 46
M  V30 49 1 26 47
M  V30 50 1 26 48
M  V30 END BOND
M  V30 END CTAB
M  END
>  <Dataset>  (283) 
ChEMBL_Kinases

>  <Ligand_Instance>  (283) 
nan

>  <PDB_ID>  (283) 
nan

>  <Standardized_SMILES>  (283) 
CCn1c(-c2nonc2N)nc2c(C#CCCO)ncc(OCCCN)c21

>  <Name>  (283) 
nan

>  <Pocket>  (283) 
nan

>  <ATP_Site>  (283) 
nan

>  <Peripheral>  (283) 
nan

>  <Num_H_Atoms_ProtBoundConf>  (283) 
nan

>  <Num_Resolved_Atoms>  (283) 
nan

>  <Num_Not_Resolved_Atoms>  (283) 
nan

$$$$
CHEMBL4787409
     RDKit          3D

  0  0  0  0  0  0  0  0  0  0999 V3000
M  V30 BEGIN CTAB
M  V30 COUNTS 66 69 0 0 0
M  V30 BEGIN ATOM
M  V30 1 C 1.925932 3.746364 4.477823 0
M  V30 2 C 1.456308 2.315348 4.616520 0 CFG=2
M  V30 3 C 2.539817 1.348087 4.688173 0
M  V30 4 O 1.800240 0.929007 3.716743 0
M  V30 5 N 3.710363 0.583853 5.008521 0
M  V30 6 C 4.089106 -0.593354 4.321851 0
M  V30 7 C 4.873502 -0.821593 3.213127 0
M  V30 8 C 4.824424 -2.191284 3.102243 0
M  V30 9 C 5.555911 -2.915331 2.003572 0
M  V30 10 C 6.779297 -2.313339 1.465185 0
M  V30 11 C 5.521125 -2.340345 0.636249 0
M  V30 12 N 4.076417 -2.762508 4.057186 0
M  V30 13 N 3.616287 -1.756204 4.820504 0
M  V30 14 C 0.530776 1.953536 3.511722 0
M  V30 15 C -0.703611 1.459448 3.914520 0
M  V30 16 C -1.638543 1.108438 2.937343 0
M  V30 17 C -1.429250 1.215108 1.580333 0
M  V30 18 C -2.464987 0.827026 0.631353 0
M  V30 19 C -2.283665 0.918753 -0.675394 0
M  V30 20 C -3.261927 0.554396 -1.734820 0
M  V30 21 N -4.140539 -0.434564 -1.141119 0
M  V30 22 C -4.475227 -1.763789 -1.548026 0
M  V30 23 O -5.253666 -2.570253 -0.976681 0
M  V30 24 C -3.842969 -2.230438 -2.757624 0
M  V30 25 C -4.073753 -3.442531 -3.236247 0
M  V30 26 C -3.579400 -4.171145 -4.423149 0
M  V30 27 N -2.667613 -3.467738 -5.247925 0
M  V30 28 C -3.151894 -2.352700 -5.974954 0
M  V30 29 C -1.308609 -3.426339 -4.828072 0
M  V30 30 C -4.727081 0.121685 0.059772 0
M  V30 31 C -3.751352 0.320938 1.182356 0
M  V30 32 C -0.192249 1.709242 1.231614 0
M  V30 33 C 0.755080 2.066651 2.156151 0
M  V30 34 H 1.060759 4.327489 4.091530 0
M  V30 35 H 2.178475 4.119258 5.492353 0
M  V30 36 H 2.788591 3.844254 3.801000 0
M  V30 37 H 0.856531 2.291884 5.571369 0
M  V30 38 H 3.945678 1.269070 5.781124 0
M  V30 39 H 5.350296 -0.029141 2.659737 0
M  V30 40 H 5.461641 -4.018414 2.043504 0
M  V30 41 H 7.085162 -1.309630 1.806155 0
M  V30 42 H 7.622447 -2.990997 1.212909 0
M  V30 43 H 4.931685 -1.431292 0.498794 0
M  V30 44 H 5.598809 -3.053302 -0.231917 0
M  V30 45 H 3.869177 -3.770899 4.211590 0
M  V30 46 H -1.010428 1.318986 4.947968 0
M  V30 47 H -2.612447 0.720103 3.268681 0
M  V30 48 H -1.361025 1.287200 -1.100461 0
M  V30 49 H -3.839569 1.473444 -1.956799 0
M  V30 50 H -2.774873 0.147525 -2.642972 0
M  V30 51 H -3.148165 -1.708551 -3.392489 0
M  V30 52 H -4.771099 -4.099685 -2.685735 0
M  V30 53 H -4.486798 -4.400157 -5.049260 0
M  V30 54 H -3.152971 -5.164112 -4.166023 0
M  V30 55 H -2.368276 -1.560844 -6.111037 0
M  V30 56 H -4.063168 -1.867445 -5.584162 0
M  V30 57 H -3.367174 -2.708392 -7.021021 0
M  V30 58 H -0.961672 -4.376921 -4.380062 0
M  V30 59 H -1.067057 -2.574925 -4.159631 0
M  V30 60 H -0.689765 -3.227942 -5.752831 0
M  V30 61 H -5.209175 1.111035 -0.174978 0
M  V30 62 H -5.519087 -0.569678 0.474577 0
M  V30 63 H -3.570826 -0.640944 1.711279 0
M  V30 64 H -4.128670 1.109650 1.884199 0
M  V30 65 H 0.070687 1.830269 0.193661 0
M  V30 66 H 1.730839 2.454377 1.887334 0
M  V30 END ATOM
M  V30 BEGIN BOND
M  V30 1 1 1 2
M  V30 2 1 2 3
M  V30 3 2 3 4
M  V30 4 1 3 5
M  V30 5 1 5 6
M  V30 6 1 6 7
M  V30 7 2 7 8
M  V30 8 1 8 9
M  V30 9 1 9 10
M  V30 10 1 10 11
M  V30 11 1 8 12
M  V30 12 1 12 13
M  V30 13 1 2 14
M  V30 14 2 14 15
M  V30 15 1 15 16
M  V30 16 2 16 17
M  V30 17 1 17 18
M  V30 18 2 18 19
M  V30 19 1 19 20
M  V30 20 1 20 21
M  V30 21 1 21 22
M  V30 22 2 22 23
M  V30 23 1 22 24
M  V30 24 2 24 25
M  V30 25 1 25 26
M  V30 26 1 26 27
M  V30 27 1 27 28
M  V30 28 1 27 29
M  V30 29 1 21 30
M  V30 30 1 30 31
M  V30 31 1 17 32
M  V30 32 2 32 33
M  V30 33 2 13 6
M  V30 34 1 33 14
M  V30 35 1 11 9
M  V30 36 1 31 18
M  V30 37 1 1 34
M  V30 38 1 1 35
M  V30 39 1 1 36
M  V30 40 1 2 37 CFG=1
M  V30 41 1 5 38
M  V30 42 1 7 39
M  V30 43 1 9 40
M  V30 44 1 10 41
M  V30 45 1 10 42
M  V30 46 1 11 43
M  V30 47 1 11 44
M  V30 48 1 12 45
M  V30 49 1 15 46
M  V30 50 1 16 47
M  V30 51 1 19 48
M  V30 52 1 20 49
M  V30 53 1 20 50
M  V30 54 1 24 51
M  V30 55 1 25 52
M  V30 56 1 26 53
M  V30 57 1 26 54
M  V30 58 1 28 55
M  V30 59 1 28 56
M  V30 60 1 28 57
M  V30 61 1 29 58
M  V30 62 1 29 59
M  V30 63 1 29 60
M  V30 64 1 30 61
M  V30 65 1 30 62
M  V30 66 1 31 63
M  V30 67 1 31 64
M  V30 68 1 32 65
M  V30 69 1 33 66
M  V30 END BOND
M  V30 END CTAB
M  END
>  <Dataset>  (284) 
ChEMBL_Kinases

>  <Ligand_Instance>  (284) 
nan

>  <PDB_ID>  (284) 
nan

>  <Standardized_SMILES>  (284) 
C[C@H](C(=O)Nc1cc(C2CC2)[nH]n1)c1ccc(C2=CCN(C(=O)/C=C/CN(C)C)CC2)cc1

>  <Name>  (284) 
nan

>  <Pocket>  (284) 
nan

>  <ATP_Site>  (284) 
nan

>  <Peripheral>  (284) 
nan

>  <Num_H_Atoms_ProtBoundConf>  (284) 
nan

>  <Num_Resolved_Atoms>  (284) 
nan

>  <Num_Not_Resolved_Atoms>  (284) 
nan

$$$$
CHEMBL493874
     RDKit          3D

  0  0  0  0  0  0  0  0  0  0999 V3000
M  V30 BEGIN CTAB
M  V30 COUNTS 51 53 0 0 0
M  V30 BEGIN ATOM
M  V30 1 C 0.337417 -2.840926 -2.565411 0
M  V30 2 C 0.419803 -1.311428 -2.483570 0
M  V30 3 N 0.724893 -0.865002 -1.139812 0
M  V30 4 C 1.960648 -0.669539 -0.655854 0
M  V30 5 C 3.237482 -0.846287 -1.320763 0
M  V30 6 N 3.533404 -1.237408 -2.551879 0
M  V30 7 O 4.823291 -1.248768 -2.708494 0
M  V30 8 N 5.427680 -0.873843 -1.612134 0
M  V30 9 C 4.461164 -0.603735 -0.690036 0
M  V30 10 N 4.742266 -0.169691 0.618695 0
M  V30 11 N 1.846194 -0.253141 0.636903 0
M  V30 12 C 0.525189 -0.197061 0.935645 0
M  V30 13 C -0.052694 0.172330 2.129180 0
M  V30 14 C 0.738089 0.564084 3.259939 0
M  V30 15 C 1.413086 0.907153 4.199104 0
M  V30 16 C 2.245923 1.308642 5.320657 0
M  V30 17 C 1.659740 0.769090 6.602957 0
M  V30 18 C 2.340621 2.797471 5.435115 0
M  V30 19 O 3.546432 0.802070 5.216302 0
M  V30 20 N -1.396381 0.141436 2.163324 0
M  V30 21 C -2.133645 -0.225710 1.103426 0
M  V30 22 C -1.612406 -0.604513 -0.112458 0
M  V30 23 O -2.174137 -0.999520 -1.276515 0
M  V30 24 C -3.489970 -1.173644 -1.660966 0
M  V30 25 C -4.257565 -2.208856 -0.891271 0
M  V30 26 C -5.695434 -2.293965 -1.426451 0
M  V30 27 N -5.612696 -2.667110 -2.844189 0
M  V30 28 C -0.213548 -0.585397 -0.189233 0
M  V30 29 H -0.540487 -3.178905 -3.143032 0
M  V30 30 H 1.261754 -3.276974 -2.966221 0
M  V30 31 H 0.169618 -3.191350 -1.524681 0
M  V30 32 H -0.480828 -0.822881 -2.853201 0
M  V30 33 H 1.250988 -0.949165 -3.147760 0
M  V30 34 H 4.459191 -0.462939 1.559228 0
M  V30 35 H 5.352175 0.611040 0.930321 0
M  V30 36 H 0.545406 0.892011 6.635813 0
M  V30 37 H 1.844537 -0.321254 6.747754 0
M  V30 38 H 2.105704 1.261368 7.500011 0
M  V30 39 H 3.292028 3.034634 5.972982 0
M  V30 40 H 2.275034 3.332640 4.473800 0
M  V30 41 H 1.537386 3.233300 6.078485 0
M  V30 42 H 3.561201 -0.100713 5.641545 0
M  V30 43 H -3.210328 -0.238623 1.140526 0
M  V30 44 H -3.471226 -1.467209 -2.748155 0
M  V30 45 H -4.096199 -0.238809 -1.608309 0
M  V30 46 H -3.847797 -3.242091 -1.081344 0
M  V30 47 H -4.350313 -2.038265 0.181909 0
M  V30 48 H -6.237028 -1.340337 -1.298052 0
M  V30 49 H -6.253054 -3.083956 -0.886958 0
M  V30 50 H -5.490762 -1.825604 -3.426572 0
M  V30 51 H -4.774141 -3.299358 -2.945639 0
M  V30 END ATOM
M  V30 BEGIN BOND
M  V30 1 1 1 2
M  V30 2 1 2 3
M  V30 3 1 3 4
M  V30 4 1 4 5
M  V30 5 2 5 6
M  V30 6 1 6 7
M  V30 7 1 7 8
M  V30 8 2 8 9
M  V30 9 1 9 10
M  V30 10 2 4 11
M  V30 11 1 11 12
M  V30 12 2 12 13
M  V30 13 1 13 14
M  V30 14 3 14 15
M  V30 15 1 15 16
M  V30 16 1 16 17
M  V30 17 1 16 18
M  V30 18 1 16 19
M  V30 19 1 13 20
M  V30 20 2 20 21
M  V30 21 1 21 22
M  V30 22 1 22 23
M  V30 23 1 23 24
M  V30 24 1 24 25
M  V30 25 1 25 26
M  V30 26 1 26 27
M  V30 27 2 22 28
M  V30 28 1 28 3
M  V30 29 1 9 5
M  V30 30 1 28 12
M  V30 31 1 1 29
M  V30 32 1 1 30
M  V30 33 1 1 31
M  V30 34 1 2 32
M  V30 35 1 2 33
M  V30 36 1 10 34
M  V30 37 1 10 35
M  V30 38 1 17 36
M  V30 39 1 17 37
M  V30 40 1 17 38
M  V30 41 1 18 39
M  V30 42 1 18 40
M  V30 43 1 18 41
M  V30 44 1 19 42
M  V30 45 1 21 43
M  V30 46 1 24 44
M  V30 47 1 24 45
M  V30 48 1 25 46
M  V30 49 1 25 47
M  V30 50 1 26 48
M  V30 51 1 26 49
M  V30 52 1 27 50
M  V30 53 1 27 51
M  V30 END BOND
M  V30 END CTAB
M  END
>  <Dataset>  (285) 
ChEMBL_Kinases

>  <Ligand_Instance>  (285) 
nan

>  <PDB_ID>  (285) 
nan

>  <Standardized_SMILES>  (285) 
CCn1c(-c2nonc2N)nc2c(C#CC(C)(C)O)ncc(OCCCN)c21

>  <Name>  (285) 
nan

>  <Pocket>  (285) 
nan

>  <ATP_Site>  (285) 
nan

>  <Peripheral>  (285) 
nan

>  <Num_H_Atoms_ProtBoundConf>  (285) 
nan

>  <Num_Resolved_Atoms>  (285) 
nan

>  <Num_Not_Resolved_Atoms>  (285) 
nan

$$$$
CHEMBL16171
     RDKit          3D

  0  0  0  0  0  0  0  0  0  0999 V3000
M  V30 BEGIN CTAB
M  V30 COUNTS 33 35 0 0 0
M  V30 BEGIN ATOM
M  V30 1 C 0.086029 -2.108521 3.686494 0
M  V30 2 O -0.257088 -2.651288 2.430501 0
M  V30 3 C 0.546498 -2.644286 1.320369 0
M  V30 4 C 1.402390 -3.736378 1.145261 0
M  V30 5 O 1.465136 -4.803637 2.036789 0
M  V30 6 C 2.246320 -3.813106 0.056411 0
M  V30 7 C 2.280467 -2.822503 -0.897979 0
M  V30 8 O 3.087794 -2.797048 -2.030164 0
M  V30 9 C 1.440294 -1.734181 -0.741003 0
M  V30 10 C 1.396393 -0.689347 -1.637876 0
M  V30 11 O 2.140366 -0.696912 -2.652791 0
M  V30 12 C 0.519791 0.345270 -1.381676 0
M  V30 13 C -0.304104 0.374063 -0.276435 0
M  V30 14 C -1.243514 1.448365 0.029662 0
M  V30 15 C -1.994472 1.319502 1.179087 0
M  V30 16 C -2.912345 2.314653 1.528099 0
M  V30 17 C -3.035980 3.411408 0.693220 0
M  V30 18 C -2.295997 3.583967 -0.481159 0
M  V30 19 C -1.407502 2.562670 -0.765876 0
M  V30 20 O -0.233755 -0.638024 0.554118 0
M  V30 21 C 0.595854 -1.655739 0.346978 0
M  V30 22 H 0.589095 -2.848136 4.339814 0
M  V30 23 H 0.725112 -1.206676 3.561209 0
M  V30 24 H -0.862650 -1.752866 4.149922 0
M  V30 25 H 0.897958 -5.642574 1.893018 0
M  V30 26 H 2.917737 -4.643508 -0.105045 0
M  V30 27 H 4.096850 -2.678063 -1.900507 0
M  V30 28 H 0.479674 1.158542 -2.071617 0
M  V30 29 H -1.932885 0.481863 1.861821 0
M  V30 30 H -3.510343 2.232985 2.424194 0
M  V30 31 H -3.736239 4.230905 0.904291 0
M  V30 32 H -2.422610 4.447146 -1.097999 0
M  V30 33 H -0.823294 2.669381 -1.666025 0
M  V30 END ATOM
M  V30 BEGIN BOND
M  V30 1 1 1 2
M  V30 2 1 2 3
M  V30 3 2 3 4
M  V30 4 1 4 5
M  V30 5 1 4 6
M  V30 6 2 6 7
M  V30 7 1 7 8
M  V30 8 1 7 9
M  V30 9 1 9 10
M  V30 10 2 10 11
M  V30 11 1 10 12
M  V30 12 2 12 13
M  V30 13 1 13 14
M  V30 14 2 14 15
M  V30 15 1 15 16
M  V30 16 2 16 17
M  V30 17 1 17 18
M  V30 18 2 18 19
M  V30 19 1 13 20
M  V30 20 1 20 21
M  V30 21 1 21 3
M  V30 22 2 21 9
M  V30 23 1 19 14
M  V30 24 1 1 22
M  V30 25 1 1 23
M  V30 26 1 1 24
M  V30 27 1 5 25
M  V30 28 1 6 26
M  V30 29 1 8 27
M  V30 30 1 12 28
M  V30 31 1 15 29
M  V30 32 1 16 30
M  V30 33 1 17 31
M  V30 34 1 18 32
M  V30 35 1 19 33
M  V30 END BOND
M  V30 END CTAB
M  END
>  <Dataset>  (286) 
ChEMBL_Kinases

>  <Ligand_Instance>  (286) 
nan

>  <PDB_ID>  (286) 
nan

>  <Standardized_SMILES>  (286) 
COc1c(O)cc(O)c2c(=O)cc(-c3ccccc3)oc12

>  <Name>  (286) 
WOGONIN

>  <Pocket>  (286) 
nan

>  <ATP_Site>  (286) 
nan

>  <Peripheral>  (286) 
nan

>  <Num_H_Atoms_ProtBoundConf>  (286) 
nan

>  <Num_Resolved_Atoms>  (286) 
nan

>  <Num_Not_Resolved_Atoms>  (286) 
nan

$$$$
CHEMBL493825
     RDKit          3D

  0  0  0  0  0  0  0  0  0  0999 V3000
M  V30 BEGIN CTAB
M  V30 COUNTS 68 72 0 0 0
M  V30 BEGIN ATOM
M  V30 1 C 1.874459 -0.985408 3.950890 0
M  V30 2 C 2.747553 -0.740721 2.754775 0
M  V30 3 C 2.901554 0.589982 2.374573 0
M  V30 4 N 2.271047 1.680040 3.067053 0
M  V30 5 C 2.568467 2.970536 2.502993 0
M  V30 6 C 3.670041 3.647331 3.008993 0
M  V30 7 C 4.477303 3.086320 4.054774 0
M  V30 8 N 5.125306 2.628291 4.872781 0
M  V30 9 C 3.930147 4.878318 2.444236 0
M  V30 10 N 3.186153 5.424683 1.461434 0
M  V30 11 C 2.118925 4.717392 1.004254 0
M  V30 12 C 1.752080 3.473732 1.486329 0
M  V30 13 C 0.605860 2.758447 0.972226 0
M  V30 14 C -0.371658 2.128523 1.677615 0
M  V30 15 C -1.430913 1.467041 1.089141 0
M  V30 16 C -1.537698 1.420852 -0.284900 0
M  V30 17 O -2.583319 0.769140 -0.918673 0
M  V30 18 C -3.587772 0.124153 -0.177027 0
M  V30 19 C -4.622231 -0.516379 -1.079627 0
M  V30 20 C -3.973697 -1.537294 -1.960001 0
M  V30 21 N -3.335757 -2.601561 -1.247384 0
M  V30 22 C -4.219480 -3.482578 -0.553428 0
M  V30 23 C -4.480268 -4.794475 -1.236599 0
M  V30 24 N -3.339587 -5.364589 -1.891436 0
M  V30 25 C -3.520216 -5.587821 -3.307517 0
M  V30 26 C -2.096401 -4.666351 -1.602312 0
M  V30 27 C -2.328597 -3.228815 -2.045365 0
M  V30 28 C -0.546952 2.059279 -0.997444 0
M  V30 29 C 0.536145 2.736202 -0.425452 0
M  V30 30 C 3.705529 0.809123 1.277034 0
M  V30 31 C 4.353058 -0.178541 0.546821 0
M  V30 32 C 4.159978 -1.477341 0.974791 0
M  V30 33 N 4.610822 -2.661361 0.531076 0
M  V30 34 C 4.154291 -3.675521 1.271201 0
M  V30 35 C 3.349660 -3.133894 2.269336 0
M  V30 36 C 3.363167 -1.759198 2.070872 0
M  V30 37 H 2.186592 -0.366093 4.821586 0
M  V30 38 H 1.996390 -2.059883 4.200930 0
M  V30 39 H 0.800979 -0.847333 3.706431 0
M  V30 40 H 1.676780 1.394253 3.894137 0
M  V30 41 H 4.795469 5.420337 2.835399 0
M  V30 42 H 1.535890 5.180286 0.211530 0
M  V30 43 H -0.283304 2.168250 2.754002 0
M  V30 44 H -2.174057 0.986637 1.709699 0
M  V30 45 H -4.090631 0.924594 0.417273 0
M  V30 46 H -3.146102 -0.604457 0.529491 0
M  V30 47 H -5.062336 0.270182 -1.719460 0
M  V30 48 H -5.442914 -0.957445 -0.489856 0
M  V30 49 H -4.680466 -1.985477 -2.688695 0
M  V30 50 H -3.213842 -0.993952 -2.575214 0
M  V30 51 H -3.856350 -3.646781 0.485399 0
M  V30 52 H -5.215744 -2.977333 -0.466118 0
M  V30 53 H -4.748449 -5.522501 -0.415154 0
M  V30 54 H -5.399221 -4.768703 -1.870465 0
M  V30 55 H -4.085951 -4.764636 -3.806814 0
M  V30 56 H -4.052407 -6.526486 -3.478209 0
M  V30 57 H -2.493307 -5.644047 -3.751426 0
M  V30 58 H -1.867185 -4.766935 -0.539531 0
M  V30 59 H -1.322023 -5.079261 -2.274229 0
M  V30 60 H -2.694316 -3.288834 -3.091029 0
M  V30 61 H -1.375678 -2.657713 -2.085034 0
M  V30 62 H -0.631219 2.022577 -2.076961 0
M  V30 63 H 1.255753 3.202342 -1.114085 0
M  V30 64 H 3.888286 1.825223 0.900971 0
M  V30 65 H 4.973059 0.056992 -0.308114 0
M  V30 66 H 5.251325 -2.738461 -0.310111 0
M  V30 67 H 4.342234 -4.747602 1.161295 0
M  V30 68 H 2.828524 -3.666144 3.031094 0
M  V30 END ATOM
M  V30 BEGIN BOND
M  V30 1 1 1 2
M  V30 2 2 2 3
M  V30 3 1 3 4
M  V30 4 1 4 5
M  V30 5 2 5 6
M  V30 6 1 6 7
M  V30 7 3 7 8
M  V30 8 1 6 9
M  V30 9 2 9 10
M  V30 10 1 10 11
M  V30 11 2 11 12
M  V30 12 1 12 13
M  V30 13 2 13 14
M  V30 14 1 14 15
M  V30 15 2 15 16
M  V30 16 1 16 17
M  V30 17 1 17 18
M  V30 18 1 18 19
M  V30 19 1 19 20
M  V30 20 1 20 21
M  V30 21 1 21 22
M  V30 22 1 22 23
M  V30 23 1 23 24
M  V30 24 1 24 25
M  V30 25 1 24 26
M  V30 26 1 26 27
M  V30 27 1 16 28
M  V30 28 2 28 29
M  V30 29 1 3 30
M  V30 30 2 30 31
M  V30 31 1 31 32
M  V30 32 1 32 33
M  V30 33 1 33 34
M  V30 34 2 34 35
M  V30 35 1 35 36
M  V30 36 1 36 2
M  V30 37 1 12 5
M  V30 38 1 29 13
M  V30 39 2 36 32
M  V30 40 1 27 21
M  V30 41 1 1 37
M  V30 42 1 1 38
M  V30 43 1 1 39
M  V30 44 1 4 40
M  V30 45 1 9 41
M  V30 46 1 11 42
M  V30 47 1 14 43
M  V30 48 1 15 44
M  V30 49 1 18 45
M  V30 50 1 18 46
M  V30 51 1 19 47
M  V30 52 1 19 48
M  V30 53 1 20 49
M  V30 54 1 20 50
M  V30 55 1 22 51
M  V30 56 1 22 52
M  V30 57 1 23 53
M  V30 58 1 23 54
M  V30 59 1 25 55
M  V30 60 1 25 56
M  V30 61 1 25 57
M  V30 62 1 26 58
M  V30 63 1 26 59
M  V30 64 1 27 60
M  V30 65 1 27 61
M  V30 66 1 28 62
M  V30 67 1 29 63
M  V30 68 1 30 64
M  V30 69 1 31 65
M  V30 70 1 33 66
M  V30 71 1 34 67
M  V30 72 1 35 68
M  V30 END BOND
M  V30 END CTAB
M  END
>  <Dataset>  (287) 
ChEMBL_Kinases

>  <Ligand_Instance>  (287) 
nan

>  <PDB_ID>  (287) 
nan

>  <Standardized_SMILES>  (287) 
Cc1c(Nc2c(C#N)cncc2-c2ccc(OCCCN3CCN(C)CC3)cc2)ccc2[nH]ccc12

>  <Name>  (287) 
nan

>  <Pocket>  (287) 
nan

>  <ATP_Site>  (287) 
nan

>  <Peripheral>  (287) 
nan

>  <Num_H_Atoms_ProtBoundConf>  (287) 
nan

>  <Num_Resolved_Atoms>  (287) 
nan

>  <Num_Not_Resolved_Atoms>  (287) 
nan

$$$$
CHEMBL4787502
     RDKit          3D

  0  0  0  0  0  0  0  0  0  0999 V3000
M  V30 BEGIN CTAB
M  V30 COUNTS 139 143 0 0 0
M  V30 BEGIN ATOM
M  V30 1 C 7.079778 -2.237010 5.577922 0
M  V30 2 C 6.573666 -0.970796 6.166240 0
M  V30 3 N 6.350277 -0.865208 7.456075 0
M  V30 4 C 5.931084 0.052562 8.066156 0
M  V30 5 S 5.679703 1.304471 6.668051 0
M  V30 6 C 6.262750 0.191104 5.421697 0
M  V30 7 C 6.331268 0.492806 4.011567 0
M  V30 8 C 6.902539 -0.237310 3.030964 0
M  V30 9 C 6.856283 0.142428 1.716531 0
M  V30 10 C 6.213799 1.313352 1.296347 0
M  V30 11 C 6.228349 1.631272 -0.191000 0 CFG=2
M  V30 12 C 6.776866 2.989924 -0.435810 0
M  V30 13 N 4.879165 1.458341 -0.653652 0
M  V30 14 C 4.184529 0.238448 -0.817895 0
M  V30 15 O 4.878569 -0.763188 -0.477101 0
M  V30 16 C 2.821619 -0.019992 -1.307267 0 CFG=2
M  V30 17 C 2.004202 1.201062 -1.393031 0
M  V30 18 C 1.027823 1.081137 -0.242147 0 CFG=1
M  V30 19 O -0.178141 1.683349 -0.672028 0
M  V30 20 C 0.860403 -0.408846 -0.118123 0
M  V30 21 N 2.105366 -1.028376 -0.587027 0
M  V30 22 C 2.307414 -2.388190 -0.257934 0
M  V30 23 O 3.377817 -2.935234 -0.626784 0
M  V30 24 C 1.556436 -3.407515 0.444724 0 CFG=1
M  V30 25 N 0.236828 -3.027499 0.903777 0
M  V30 26 C -0.073608 -3.033437 2.316771 0
M  V30 27 O 0.752920 -3.367185 3.216649 0
M  V30 28 C -1.467902 -2.605769 2.671622 0
M  V30 29 C -1.675666 -2.533960 4.146240 0
M  V30 30 C -3.079237 -2.104145 4.455446 0
M  V30 31 C -3.382259 -0.718354 3.925599 0
M  V30 32 C -4.797511 -0.315526 4.228410 0
M  V30 33 C -5.091956 1.073067 3.737623 0
M  V30 34 C -4.256332 2.102699 4.419434 0
M  V30 35 C -4.495145 3.515713 4.022650 0
M  V30 36 C -4.235253 3.883277 2.607265 0
M  V30 37 C -2.771112 3.673140 2.232654 0
M  V30 38 C -2.520363 4.048743 0.788789 0
M  V30 39 N -3.302400 3.230982 -0.133403 0
M  V30 40 C -3.052190 3.625540 -1.509168 0
M  V30 41 C -3.803417 2.736612 -2.432861 0
M  V30 42 C -5.286815 2.748146 -2.267494 0
M  V30 43 C -5.856946 1.741842 -3.300330 0
M  V30 44 O -5.328469 0.521095 -3.003264 0
M  V30 45 N -5.387130 -0.431849 -3.913052 0
M  V30 46 C -4.475835 -0.820597 -4.928926 0
M  V30 47 O -3.480736 -0.062093 -4.873523 0
M  V30 48 C -4.806428 -1.935415 -5.791935 0
M  V30 49 C -6.034671 -2.542279 -5.782593 0
M  V30 50 C -6.290100 -3.574592 -6.662748 0
M  V30 51 C -5.331452 -4.022767 -7.566024 0
M  V30 52 F -5.633500 -5.046971 -8.414205 0
M  V30 53 C -4.116581 -3.376260 -7.528621 0
M  V30 54 F -3.235452 -3.882500 -8.448723 0
M  V30 55 C -3.815620 -2.327760 -6.655144 0
M  V30 56 N -2.483530 -1.877817 -6.819102 0
M  V30 57 C -1.247428 -2.360419 -6.307485 0
M  V30 58 C -0.433214 -2.736227 -7.381750 0
M  V30 59 C 0.839000 -3.247432 -7.244473 0
M  V30 60 C 1.369277 -3.407649 -5.958192 0
M  V30 61 I 3.265128 -4.156229 -5.458583 0
M  V30 62 C 0.562495 -3.032931 -4.894666 0
M  V30 63 C -0.706972 -2.526568 -5.062063 0
M  V30 64 F -1.543475 -2.154296 -4.069826 0
M  V30 65 C 1.521744 -4.771080 -0.179929 0
M  V30 66 C 0.683313 -5.720476 0.654308 0
M  V30 67 C 1.048618 -4.848132 -1.584785 0
M  V30 68 C 2.941736 -5.367846 -0.168326 0
M  V30 69 C 5.634945 2.058025 2.277193 0
M  V30 70 C 5.702566 1.644541 3.585534 0
M  V30 71 H 7.050496 -3.086047 6.301573 0
M  V30 72 H 6.411077 -2.590526 4.745886 0
M  V30 73 H 8.128505 -2.179371 5.243841 0
M  V30 74 H 5.699484 0.287847 9.099981 0
M  V30 75 H 7.409576 -1.124895 3.279809 0
M  V30 76 H 7.349831 -0.521481 0.987740 0
M  V30 77 H 6.877183 0.859902 -0.618540 0
M  V30 78 H 7.173377 3.135750 -1.461680 0
M  V30 79 H 6.012654 3.796424 -0.278941 0
M  V30 80 H 7.664847 3.132217 0.240444 0
M  V30 81 H 4.407793 2.353439 -0.882025 0
M  V30 82 H 2.975064 -0.372797 -2.392328 0
M  V30 83 H 2.589519 2.116034 -1.313177 0
M  V30 84 H 1.388934 1.191108 -2.347107 0
M  V30 85 H 1.419888 1.552971 0.689882 0
M  V30 86 H -0.052616 2.046298 -1.571617 0
M  V30 87 H 0.059612 -0.689733 -0.843338 0
M  V30 88 H 0.672368 -0.725639 0.915820 0
M  V30 89 H 2.131902 -3.567750 1.417580 0
M  V30 90 H -0.506612 -2.749237 0.224637 0
M  V30 91 H -1.734139 -1.680900 2.167459 0
M  V30 92 H -2.128905 -3.406100 2.278140 0
M  V30 93 H -1.577539 -3.590561 4.546544 0
M  V30 94 H -0.949675 -1.878059 4.660324 0
M  V30 95 H -3.823699 -2.841741 4.078018 0
M  V30 96 H -3.292467 -2.045470 5.565436 0
M  V30 97 H -3.340646 -0.792490 2.804053 0
M  V30 98 H -2.657394 -0.042734 4.370947 0
M  V30 99 H -5.507876 -0.990752 3.665411 0
M  V30 100 H -5.085401 -0.405752 5.298212 0
M  V30 101 H -6.163260 1.342306 3.939399 0
M  V30 102 H -4.998083 1.051940 2.630324 0
M  V30 103 H -4.456287 2.039979 5.519138 0
M  V30 104 H -3.162993 1.901676 4.334711 0
M  V30 105 H -5.506446 3.890126 4.302697 0
M  V30 106 H -3.784023 4.140687 4.644906 0
M  V30 107 H -4.933379 3.476497 1.861056 0
M  V30 108 H -4.366398 5.006507 2.550548 0
M  V30 109 H -2.142006 4.369675 2.830043 0
M  V30 110 H -2.437106 2.647743 2.496578 0
M  V30 111 H -1.440474 3.992100 0.597941 0
M  V30 112 H -2.860733 5.106410 0.703474 0
M  V30 113 H -3.108710 2.217249 -0.013651 0
M  V30 114 H -1.969453 3.572827 -1.706448 0
M  V30 115 H -3.315806 4.706825 -1.654115 0
M  V30 116 H -3.470643 1.675383 -2.276382 0
M  V30 117 H -3.500310 2.939865 -3.498736 0
M  V30 118 H -5.520355 2.310873 -1.258826 0
M  V30 119 H -5.777410 3.715878 -2.401983 0
M  V30 120 H -6.963881 1.698674 -3.235894 0
M  V30 121 H -5.523365 2.084142 -4.306940 0
M  V30 122 H -6.315028 -0.870555 -3.707611 0
M  V30 123 H -6.812416 -2.235760 -5.104970 0
M  V30 124 H -7.265080 -4.031970 -6.632583 0
M  V30 125 H -2.548352 -1.052066 -7.445314 0
M  V30 126 H -0.658750 -2.698025 -8.442518 0
M  V30 127 H 1.527519 -3.563727 -8.003618 0
M  V30 128 H 0.837299 -3.089026 -3.844612 0
M  V30 129 H -0.356467 -5.326519 0.764170 0
M  V30 130 H 1.127929 -5.941720 1.643149 0
M  V30 131 H 0.567696 -6.681490 0.112606 0
M  V30 132 H 0.826185 -5.934886 -1.776095 0
M  V30 133 H 1.838622 -4.608633 -2.332565 0
M  V30 134 H 0.076897 -4.340328 -1.784265 0
M  V30 135 H 3.400032 -5.243719 -1.152020 0
M  V30 136 H 2.853124 -6.448456 0.046739 0
M  V30 137 H 3.527264 -4.872777 0.665039 0
M  V30 138 H 5.140310 2.962362 1.965049 0
M  V30 139 H 5.204856 2.313766 4.299821 0
M  V30 END ATOM
M  V30 BEGIN BOND
M  V30 1 1 1 2
M  V30 2 1 2 3
M  V30 3 2 3 4
M  V30 4 1 4 5
M  V30 5 1 5 6
M  V30 6 1 6 7
M  V30 7 2 7 8
M  V30 8 1 8 9
M  V30 9 2 9 10
M  V30 10 1 10 11
M  V30 11 1 11 12
M  V30 12 1 11 13
M  V30 13 1 13 14
M  V30 14 2 14 15
M  V30 15 1 14 16
M  V30 16 1 16 17
M  V30 17 1 17 18
M  V30 18 1 18 19
M  V30 19 1 18 20
M  V30 20 1 20 21
M  V30 21 1 21 22
M  V30 22 2 22 23
M  V30 23 1 22 24
M  V30 24 1 24 25
M  V30 25 1 25 26
M  V30 26 2 26 27
M  V30 27 1 26 28
M  V30 28 1 28 29
M  V30 29 1 29 30
M  V30 30 1 30 31
M  V30 31 1 31 32
M  V30 32 1 32 33
M  V30 33 1 33 34
M  V30 34 1 34 35
M  V30 35 1 35 36
M  V30 36 1 36 37
M  V30 37 1 37 38
M  V30 38 1 38 39
M  V30 39 1 39 40
M  V30 40 1 40 41
M  V30 41 1 41 42
M  V30 42 1 42 43
M  V30 43 1 43 44
M  V30 44 1 44 45
M  V30 45 1 45 46
M  V30 46 2 46 47
M  V30 47 1 46 48
M  V30 48 2 48 49
M  V30 49 1 49 50
M  V30 50 2 50 51
M  V30 51 1 51 52
M  V30 52 1 51 53
M  V30 53 1 53 54
M  V30 54 2 53 55
M  V30 55 1 55 56
M  V30 56 1 56 57
M  V30 57 2 57 58
M  V30 58 1 58 59
M  V30 59 2 59 60
M  V30 60 1 60 61
M  V30 61 1 60 62
M  V30 62 2 62 63
M  V30 63 1 63 64
M  V30 64 1 24 65
M  V30 65 1 65 66
M  V30 66 1 65 67
M  V30 67 1 65 68
M  V30 68 1 10 69
M  V30 69 2 69 70
M  V30 70 2 6 2
M  V30 71 1 70 7
M  V30 72 1 21 16
M  V30 73 1 55 48
M  V30 74 1 63 57
M  V30 75 1 1 71
M  V30 76 1 1 72
M  V30 77 1 1 73
M  V30 78 1 4 74
M  V30 79 1 8 75
M  V30 80 1 9 76
M  V30 81 1 11 77 CFG=3
M  V30 82 1 12 78
M  V30 83 1 12 79
M  V30 84 1 12 80
M  V30 85 1 13 81
M  V30 86 1 16 82 CFG=3
M  V30 87 1 17 83
M  V30 88 1 17 84
M  V30 89 1 18 85 CFG=1
M  V30 90 1 19 86
M  V30 91 1 20 87
M  V30 92 1 20 88
M  V30 93 1 24 89 CFG=1
M  V30 94 1 25 90
M  V30 95 1 28 91
M  V30 96 1 28 92
M  V30 97 1 29 93
M  V30 98 1 29 94
M  V30 99 1 30 95
M  V30 100 1 30 96
M  V30 101 1 31 97
M  V30 102 1 31 98
M  V30 103 1 32 99
M  V30 104 1 32 100
M  V30 105 1 33 101
M  V30 106 1 33 102
M  V30 107 1 34 103
M  V30 108 1 34 104
M  V30 109 1 35 105
M  V30 110 1 35 106
M  V30 111 1 36 107
M  V30 112 1 36 108
M  V30 113 1 37 109
M  V30 114 1 37 110
M  V30 115 1 38 111
M  V30 116 1 38 112
M  V30 117 1 39 113
M  V30 118 1 40 114
M  V30 119 1 40 115
M  V30 120 1 41 116
M  V30 121 1 41 117
M  V30 122 1 42 118
M  V30 123 1 42 119
M  V30 124 1 43 120
M  V30 125 1 43 121
M  V30 126 1 45 122
M  V30 127 1 49 123
M  V30 128 1 50 124
M  V30 129 1 56 125
M  V30 130 1 58 126
M  V30 131 1 59 127
M  V30 132 1 62 128
M  V30 133 1 66 129
M  V30 134 1 66 130
M  V30 135 1 66 131
M  V30 136 1 67 132
M  V30 137 1 67 133
M  V30 138 1 67 134
M  V30 139 1 68 135
M  V30 140 1 68 136
M  V30 141 1 68 137
M  V30 142 1 69 138
M  V30 143 1 70 139
M  V30 END BOND
M  V30 END CTAB
M  END
>  <Dataset>  (288) 
ChEMBL_Kinases

>  <Ligand_Instance>  (288) 
nan

>  <PDB_ID>  (288) 
nan

>  <Standardized_SMILES>  (288) 
Cc1ncsc1-c1ccc([C@H](C)NC(=O)[C@@H]2C[C@@H](O)CN2C(=O)[C@@H](NC(=O)CCCCCCCCCCCNCCCCONC(=O)c2ccc(F)c(F)c2Nc2ccc(I)cc2F)C(C)(C)C)cc1

>  <Name>  (288) 
nan

>  <Pocket>  (288) 
nan

>  <ATP_Site>  (288) 
nan

>  <Peripheral>  (288) 
nan

>  <Num_H_Atoms_ProtBoundConf>  (288) 
nan

>  <Num_Resolved_Atoms>  (288) 
nan

>  <Num_Not_Resolved_Atoms>  (288) 
nan

$$$$
CHEMBL1682282
     RDKit          3D

  0  0  0  0  0  0  0  0  0  0999 V3000
M  V30 BEGIN CTAB
M  V30 COUNTS 36 39 0 0 0
M  V30 BEGIN ATOM
M  V30 1 O 1.417104 -1.180391 6.033235 0
M  V30 2 C 2.182560 -1.788773 5.249734 0
M  V30 3 O 3.304450 -2.414674 5.818099 0
M  V30 4 C 2.004417 -1.898952 3.805870 0
M  V30 5 C 2.899528 -2.591825 3.015152 0
M  V30 6 C 2.690337 -2.670150 1.651743 0
M  V30 7 C 1.578324 -2.039970 1.148133 0
M  V30 8 C 0.666886 -1.341542 1.906935 0
M  V30 9 C 0.887404 -1.268632 3.282044 0
M  V30 10 N -0.416762 -0.732609 1.388302 0
M  V30 11 C -0.699060 -0.760187 0.059282 0
M  V30 12 N -1.852140 -0.104385 -0.446803 0
M  V30 13 C -1.999653 1.216236 -0.925505 0
M  V30 14 C -0.893339 2.024444 -0.937206 0
M  V30 15 C -1.109142 3.311429 -1.420770 0
M  V30 16 C -2.365407 3.739992 -1.860323 0
M  V30 17 C -3.434297 2.862192 -1.816412 0
M  V30 18 F -4.652739 3.299387 -2.249682 0
M  V30 19 C -3.253651 1.560946 -1.336262 0
M  V30 20 C 0.212008 -1.461051 -0.716525 0
M  V30 21 N -0.068937 -1.488007 -2.036781 0
M  V30 22 C 0.792451 -2.161400 -2.840484 0
M  V30 23 N 1.890392 -2.786140 -2.365952 0
M  V30 24 C 2.171505 -2.758629 -1.041311 0
M  V30 25 C 1.323847 -2.088036 -0.199159 0
M  V30 26 H 3.357544 -2.625713 6.813981 0
M  V30 27 H 3.745246 -3.055809 3.495043 0
M  V30 28 H 3.412231 -3.212382 1.119496 0
M  V30 29 H 0.196562 -0.733779 3.893090 0
M  V30 30 H -2.601968 -0.826792 -0.391232 0
M  V30 31 H 0.084019 1.698034 -0.597625 0
M  V30 32 H -0.263104 3.993417 -1.451320 0
M  V30 33 H -2.524617 4.743709 -2.235312 0
M  V30 34 H -4.109680 0.892107 -1.312458 0
M  V30 35 H 0.596462 -2.204824 -3.920734 0
M  V30 36 H 3.044884 -3.274112 -0.783302 0
M  V30 END ATOM
M  V30 BEGIN BOND
M  V30 1 2 1 2
M  V30 2 1 2 3
M  V30 3 1 2 4
M  V30 4 2 4 5
M  V30 5 1 5 6
M  V30 6 2 6 7
M  V30 7 1 7 8
M  V30 8 2 8 9
M  V30 9 1 8 10
M  V30 10 2 10 11
M  V30 11 1 11 12
M  V30 12 1 12 13
M  V30 13 2 13 14
M  V30 14 1 14 15
M  V30 15 2 15 16
M  V30 16 1 16 17
M  V30 17 1 17 18
M  V30 18 2 17 19
M  V30 19 1 11 20
M  V30 20 2 20 21
M  V30 21 1 21 22
M  V30 22 2 22 23
M  V30 23 1 23 24
M  V30 24 2 24 25
M  V30 25 1 9 4
M  V30 26 1 19 13
M  V30 27 1 25 20
M  V30 28 1 25 7
M  V30 29 1 3 26
M  V30 30 1 5 27
M  V30 31 1 6 28
M  V30 32 1 9 29
M  V30 33 1 12 30
M  V30 34 1 14 31
M  V30 35 1 15 32
M  V30 36 1 16 33
M  V30 37 1 19 34
M  V30 38 1 22 35
M  V30 39 1 24 36
M  V30 END BOND
M  V30 END CTAB
M  END
>  <Dataset>  (289) 
ChEMBL_Kinases

>  <Ligand_Instance>  (289) 
nan

>  <PDB_ID>  (289) 
nan

>  <Standardized_SMILES>  (289) 
O=C(O)c1ccc2c(c1)nc(Nc1cccc(F)c1)c1ncncc12

>  <Name>  (289) 
nan

>  <Pocket>  (289) 
nan

>  <ATP_Site>  (289) 
nan

>  <Peripheral>  (289) 
nan

>  <Num_H_Atoms_ProtBoundConf>  (289) 
nan

>  <Num_Resolved_Atoms>  (289) 
nan

>  <Num_Not_Resolved_Atoms>  (289) 
nan

$$$$
CHEMBL4787507
     RDKit          3D

  0  0  0  0  0  0  0  0  0  0999 V3000
M  V30 BEGIN CTAB
M  V30 COUNTS 63 66 0 0 0
M  V30 BEGIN ATOM
M  V30 1 C 0.556767 -5.386788 -2.309534 0
M  V30 2 C 1.044095 -4.099920 -1.761683 0
M  V30 3 N 0.334602 -3.078386 -1.261934 0
M  V30 4 C 1.139915 -2.050871 -0.850441 0
M  V30 5 C 0.514020 -0.891199 -0.251259 0
M  V30 6 C 0.540569 0.380927 -0.554135 0
M  V30 7 C 1.291941 0.901101 -1.687743 0
M  V30 8 O 1.968168 0.236170 -2.508130 0
M  V30 9 N 1.101593 2.307357 -1.677842 0
M  V30 10 C 0.261321 2.626330 -0.574475 0
M  V30 11 C -0.178298 3.884791 -0.196432 0
M  V30 12 C -0.999015 3.971916 0.919562 0
M  V30 13 C -1.347782 2.828328 1.608021 0
M  V30 14 C -2.214931 3.013396 2.766083 0
M  V30 15 O -2.604219 4.164914 3.075762 0
M  V30 16 N -2.679784 1.967676 3.611916 0
M  V30 17 C -3.536686 2.234151 4.737828 0 CFG=2
M  V30 18 C -2.988954 1.571938 5.980571 0
M  V30 19 C -4.854687 1.551394 4.477462 0
M  V30 20 C -6.048842 2.167487 4.699308 0
M  V30 21 C -7.284355 1.596399 4.480628 0
M  V30 22 C -7.305453 0.286932 3.994839 0
M  V30 23 C -6.105308 -0.379297 3.754378 0
M  V30 24 C -4.884893 0.240753 3.991156 0
M  V30 25 C -0.918030 1.570514 1.243613 0
M  V30 26 C -0.101859 1.497461 0.131179 0
M  V30 27 C 2.390972 -2.494481 -1.122228 0
M  V30 28 C 3.623929 -1.763513 -0.824191 0
M  V30 29 C 2.374196 -3.754120 -1.686088 0
M  V30 30 N 3.533108 -4.504668 -2.094185 0
M  V30 31 C 3.826701 -4.200219 -3.450177 0
M  V30 32 O 3.511286 -3.549296 -4.471774 0
M  V30 33 C 4.972440 -4.812113 -4.179679 0
M  V30 34 O 5.023230 -4.346402 -5.491325 0
M  V30 35 C 6.295895 -4.427970 -3.520687 0
M  V30 36 Cl 7.675226 -5.155340 -4.386740 0
M  V30 37 H 1.361959 -6.106314 -2.449357 0
M  V30 38 H 0.006413 -5.218617 -3.260794 0
M  V30 39 H -0.163554 -5.820418 -1.555449 0
M  V30 40 H -0.725636 -3.159949 -1.234911 0
M  V30 41 H -0.105988 -1.118570 0.636206 0
M  V30 42 H 1.542760 2.919624 -2.397337 0
M  V30 43 H 0.102222 4.774918 -0.744505 0
M  V30 44 H -1.329335 4.964918 1.194896 0
M  V30 45 H -2.380361 0.992934 3.392400 0
M  V30 46 H -3.766389 3.293605 4.844546 0
M  V30 47 H -2.005355 1.955727 6.295012 0
M  V30 48 H -2.880596 0.483037 5.725232 0
M  V30 49 H -3.767362 1.615817 6.769663 0
M  V30 50 H -5.985424 3.182689 5.076412 0
M  V30 51 H -8.232189 2.118341 4.669197 0
M  V30 52 H -8.246067 -0.241000 3.794091 0
M  V30 53 H -6.087175 -1.398724 3.376395 0
M  V30 54 H -3.946280 -0.285820 3.800949 0
M  V30 55 H -1.183862 0.684240 1.771239 0
M  V30 56 H 4.162752 -1.615793 -1.790753 0
M  V30 57 H 3.430396 -0.761708 -0.404565 0
M  V30 58 H 4.276693 -2.275094 -0.089637 0
M  V30 59 H 4.188855 -5.188244 -1.669135 0
M  V30 60 H 4.896867 -5.909463 -4.215044 0
M  V30 61 H 4.499650 -4.927384 -6.116980 0
M  V30 62 H 6.433733 -3.317329 -3.568242 0
M  V30 63 H 6.320933 -4.679340 -2.440860 0
M  V30 END ATOM
M  V30 BEGIN BOND
M  V30 1 1 1 2
M  V30 2 1 2 3
M  V30 3 1 3 4
M  V30 4 1 4 5
M  V30 5 2 5 6
M  V30 6 1 6 7
M  V30 7 2 7 8
M  V30 8 1 7 9
M  V30 9 1 9 10
M  V30 10 2 10 11
M  V30 11 1 11 12
M  V30 12 2 12 13
M  V30 13 1 13 14
M  V30 14 2 14 15
M  V30 15 1 14 16
M  V30 16 1 16 17
M  V30 17 1 17 18
M  V30 18 1 17 19
M  V30 19 2 19 20
M  V30 20 1 20 21
M  V30 21 2 21 22
M  V30 22 1 22 23
M  V30 23 2 23 24
M  V30 24 1 13 25
M  V30 25 2 25 26
M  V30 26 2 4 27
M  V30 27 1 27 28
M  V30 28 1 27 29
M  V30 29 1 29 30
M  V30 30 1 30 31
M  V30 31 2 31 32
M  V30 32 1 31 33
M  V30 33 1 33 34
M  V30 34 1 33 35
M  V30 35 1 35 36
M  V30 36 2 29 2
M  V30 37 1 26 6
M  V30 38 1 26 10
M  V30 39 1 24 19
M  V30 40 1 1 37
M  V30 41 1 1 38
M  V30 42 1 1 39
M  V30 43 1 3 40
M  V30 44 1 5 41
M  V30 45 1 9 42
M  V30 46 1 11 43
M  V30 47 1 12 44
M  V30 48 1 16 45
M  V30 49 1 17 46 CFG=1
M  V30 50 1 18 47
M  V30 51 1 18 48
M  V30 52 1 18 49
M  V30 53 1 20 50
M  V30 54 1 21 51
M  V30 55 1 22 52
M  V30 56 1 23 53
M  V30 57 1 24 54
M  V30 58 1 25 55
M  V30 59 1 28 56
M  V30 60 1 28 57
M  V30 61 1 28 58
M  V30 62 1 30 59
M  V30 63 1 33 60
M  V30 64 1 34 61
M  V30 65 1 35 62
M  V30 66 1 35 63
M  V30 END BOND
M  V30 END CTAB
M  END
>  <Dataset>  (290) 
ChEMBL_Kinases

>  <Ligand_Instance>  (290) 
nan

>  <PDB_ID>  (290) 
nan

>  <Standardized_SMILES>  (290) 
Cc1[nH]c(/C=C2\C(=O)Nc3ccc(C(=O)N[C@H](C)c4ccccc4)cc32)c(C)c1NC(=O)C(O)CCl

>  <Name>  (290) 
nan

>  <Pocket>  (290) 
nan

>  <ATP_Site>  (290) 
nan

>  <Peripheral>  (290) 
nan

>  <Num_H_Atoms_ProtBoundConf>  (290) 
nan

>  <Num_Resolved_Atoms>  (290) 
nan

>  <Num_Not_Resolved_Atoms>  (290) 
nan

$$$$
CHEMBL1682280
     RDKit          3D

  0  0  0  0  0  0  0  0  0  0999 V3000
M  V30 BEGIN CTAB
M  V30 COUNTS 36 39 0 0 0
M  V30 BEGIN ATOM
M  V30 1 O 0.175309 -2.899629 5.085683 0
M  V30 2 C 1.255438 -3.171766 4.503038 0
M  V30 3 O 2.142572 -3.991650 5.154439 0
M  V30 4 C 1.553716 -2.627108 3.167797 0
M  V30 5 C 2.752241 -2.958579 2.577257 0
M  V30 6 C 3.055269 -2.454150 1.313401 0
M  V30 7 C 2.153847 -1.640902 0.689029 0
M  V30 8 C 0.976937 -1.336558 1.308991 0
M  V30 9 C 0.609178 -1.804360 2.569263 0
M  V30 10 N 0.108123 -0.538096 0.679501 0
M  V30 11 C 0.268799 0.014716 -0.531276 0
M  V30 12 N -0.646097 0.861725 -1.205956 0
M  V30 13 C -1.913655 1.299424 -0.746829 0
M  V30 14 C -2.500546 0.979445 0.455398 0
M  V30 15 C -3.731573 1.405393 0.899649 0
M  V30 16 C -4.461105 2.233130 0.073520 0
M  V30 17 F -5.671221 2.679641 0.457587 0
M  V30 18 C -3.928232 2.590540 -1.144701 0
M  V30 19 Cl -4.836278 3.641504 -2.212143 0
M  V30 20 C -2.692217 2.128609 -1.525877 0
M  V30 21 C 1.466671 -0.309838 -1.134258 0
M  V30 22 N 1.727213 0.192516 -2.350978 0
M  V30 23 C 2.881271 -0.099672 -2.970746 0
M  V30 24 N 3.807189 -0.904565 -2.387128 0
M  V30 25 C 3.578193 -1.430414 -1.157970 0
M  V30 26 C 2.402473 -1.125608 -0.540083 0
M  V30 27 H 1.938271 -4.329765 6.095341 0
M  V30 28 H 3.430887 -3.614001 3.129103 0
M  V30 29 H 3.995546 -2.762913 0.942402 0
M  V30 30 H -0.334546 -1.537137 3.022475 0
M  V30 31 H -0.368413 1.211551 -2.150867 0
M  V30 32 H -1.981593 0.336573 1.145450 0
M  V30 33 H -4.131594 1.112354 1.860967 0
M  V30 34 H -2.328522 2.448847 -2.501818 0
M  V30 35 H 3.081711 0.313840 -3.958022 0
M  V30 36 H 4.378402 -2.039969 -0.816654 0
M  V30 END ATOM
M  V30 BEGIN BOND
M  V30 1 2 1 2
M  V30 2 1 2 3
M  V30 3 1 2 4
M  V30 4 2 4 5
M  V30 5 1 5 6
M  V30 6 2 6 7
M  V30 7 1 7 8
M  V30 8 2 8 9
M  V30 9 1 8 10
M  V30 10 2 10 11
M  V30 11 1 11 12
M  V30 12 1 12 13
M  V30 13 2 13 14
M  V30 14 1 14 15
M  V30 15 2 15 16
M  V30 16 1 16 17
M  V30 17 1 16 18
M  V30 18 1 18 19
M  V30 19 2 18 20
M  V30 20 1 11 21
M  V30 21 2 21 22
M  V30 22 1 22 23
M  V30 23 2 23 24
M  V30 24 1 24 25
M  V30 25 2 25 26
M  V30 26 1 9 4
M  V30 27 1 20 13
M  V30 28 1 26 21
M  V30 29 1 26 7
M  V30 30 1 3 27
M  V30 31 1 5 28
M  V30 32 1 6 29
M  V30 33 1 9 30
M  V30 34 1 12 31
M  V30 35 1 14 32
M  V30 36 1 15 33
M  V30 37 1 20 34
M  V30 38 1 23 35
M  V30 39 1 25 36
M  V30 END BOND
M  V30 END CTAB
M  END
>  <Dataset>  (291) 
ChEMBL_Kinases

>  <Ligand_Instance>  (291) 
nan

>  <PDB_ID>  (291) 
nan

>  <Standardized_SMILES>  (291) 
O=C(O)c1ccc2c(c1)nc(Nc1ccc(F)c(Cl)c1)c1ncncc12

>  <Name>  (291) 
nan

>  <Pocket>  (291) 
nan

>  <ATP_Site>  (291) 
nan

>  <Peripheral>  (291) 
nan

>  <Num_H_Atoms_ProtBoundConf>  (291) 
nan

>  <Num_Resolved_Atoms>  (291) 
nan

>  <Num_Not_Resolved_Atoms>  (291) 
nan

$$$$
CHEMBL1681988
     RDKit          3D

  0  0  0  0  0  0  0  0  0  0999 V3000
M  V30 BEGIN CTAB
M  V30 COUNTS 60 64 0 0 0
M  V30 BEGIN ATOM
M  V30 1 N 6.428081 -2.504967 3.945699 0
M  V30 2 C 5.321605 -1.670409 3.598519 0
M  V30 3 O 4.222353 -1.353633 4.168687 0
M  V30 4 N 5.365537 -0.989451 2.336971 0
M  V30 5 C 4.255616 -0.169359 2.019628 0
M  V30 6 S 2.816431 -0.985477 1.086343 0
M  V30 7 C 1.882283 0.437177 1.023239 0
M  V30 8 C 2.541491 1.449332 1.627695 0
M  V30 9 C 3.770346 1.132831 2.142999 0
M  V30 10 C 4.792626 1.881211 2.853430 0
M  V30 11 N 4.621388 3.258889 3.156973 0
M  V30 12 O 5.867677 1.452672 3.259331 0
M  V30 13 C 2.064003 2.845769 1.772585 0
M  V30 14 C 0.731759 3.082156 1.223269 0
M  V30 15 C 0.050791 1.947559 0.565679 0
M  V30 16 N -1.149230 1.902529 -0.028989 0
M  V30 17 N -1.378499 0.675470 -0.488027 0
M  V30 18 C -2.575095 0.217451 -1.194291 0
M  V30 19 C -3.730405 1.137461 -1.018643 0
M  V30 20 C -4.896346 0.565835 -0.284390 0
M  V30 21 C -5.252904 -0.844014 -0.671491 0
M  V30 22 N -4.158938 -1.678122 -1.009854 0
M  V30 23 C -4.314925 -3.078694 -0.690324 0
M  V30 24 C -3.041660 -3.751103 -1.121870 0
M  V30 25 C -2.118174 -4.099802 -0.131262 0
M  V30 26 C -0.930459 -4.714220 -0.472092 0
M  V30 27 C -0.673702 -4.974884 -1.788895 0
M  V30 28 N 0.559558 -5.607882 -2.099672 0
M  V30 29 C -1.608230 -4.614065 -2.713639 0
M  V30 30 C -2.815539 -3.998970 -2.458787 0
M  V30 31 F -3.710003 -3.661693 -3.414930 0
M  V30 32 C -2.853007 -1.182613 -0.770788 0
M  V30 33 C -0.343620 -0.162848 -0.224281 0
M  V30 34 C 0.529493 0.668797 0.434927 0
M  V30 35 H 7.122272 -2.282884 4.691365 0
M  V30 36 H 6.362157 -3.340695 3.298813 0
M  V30 37 H 6.153493 -1.056196 1.640141 0
M  V30 38 H 4.499638 4.243424 3.372747 0
M  V30 39 H 4.123926 3.153048 4.089562 0
M  V30 40 H 2.088519 3.177716 2.839615 0
M  V30 41 H 2.800405 3.487605 1.183239 0
M  V30 42 H 0.087890 3.509395 2.044695 0
M  V30 43 H 0.782682 3.957314 0.489981 0
M  V30 44 H -2.264904 0.194143 -2.270757 0
M  V30 45 H -3.440065 2.076059 -0.478068 0
M  V30 46 H -4.090037 1.495059 -2.028662 0
M  V30 47 H -4.749548 0.696099 0.794314 0
M  V30 48 H -5.786418 1.202419 -0.563326 0
M  V30 49 H -5.718482 -1.293841 0.255279 0
M  V30 50 H -6.062573 -0.906142 -1.428067 0
M  V30 51 H -4.452327 -3.168345 0.401112 0
M  V30 52 H -5.137358 -3.578672 -1.199415 0
M  V30 53 H -2.302328 -3.900603 0.934304 0
M  V30 54 H -0.239193 -4.970020 0.318065 0
M  V30 55 H 1.246231 -4.844858 -2.318023 0
M  V30 56 H 0.964133 -6.561549 -2.170793 0
M  V30 57 H -1.381569 -4.833585 -3.766434 0
M  V30 58 H -2.142242 -1.852687 -1.337090 0
M  V30 59 H -2.552427 -1.352946 0.302092 0
M  V30 60 H -0.225504 -1.207154 -0.463565 0
M  V30 END ATOM
M  V30 BEGIN BOND
M  V30 1 1 1 2
M  V30 2 2 2 3
M  V30 3 1 2 4
M  V30 4 1 4 5
M  V30 5 1 5 6
M  V30 6 1 6 7
M  V30 7 2 7 8
M  V30 8 1 8 9
M  V30 9 1 9 10
M  V30 10 1 10 11
M  V30 11 2 10 12
M  V30 12 1 8 13
M  V30 13 1 13 14
M  V30 14 1 14 15
M  V30 15 2 15 16
M  V30 16 1 16 17
M  V30 17 1 17 18
M  V30 18 1 18 19
M  V30 19 1 19 20
M  V30 20 1 20 21
M  V30 21 1 21 22
M  V30 22 1 22 23
M  V30 23 1 23 24
M  V30 24 2 24 25
M  V30 25 1 25 26
M  V30 26 2 26 27
M  V30 27 1 27 28
M  V30 28 1 27 29
M  V30 29 2 29 30
M  V30 30 1 30 31
M  V30 31 1 22 32
M  V30 32 1 17 33
M  V30 33 2 33 34
M  V30 34 2 9 5
M  V30 35 1 34 15
M  V30 36 1 34 7
M  V30 37 1 32 18
M  V30 38 1 30 24
M  V30 39 1 1 35
M  V30 40 1 1 36
M  V30 41 1 4 37
M  V30 42 1 11 38
M  V30 43 1 11 39
M  V30 44 1 13 40
M  V30 45 1 13 41
M  V30 46 1 14 42
M  V30 47 1 14 43
M  V30 48 1 18 44
M  V30 49 1 19 45
M  V30 50 1 19 46
M  V30 51 1 20 47
M  V30 52 1 20 48
M  V30 53 1 21 49
M  V30 54 1 21 50
M  V30 55 1 23 51
M  V30 56 1 23 52
M  V30 57 1 25 53
M  V30 58 1 26 54
M  V30 59 1 28 55
M  V30 60 1 28 56
M  V30 61 1 29 57
M  V30 62 1 32 58
M  V30 63 1 32 59
M  V30 64 1 33 60
M  V30 END BOND
M  V30 END CTAB
M  END
>  <Dataset>  (292) 
ChEMBL_Kinases

>  <Ligand_Instance>  (292) 
nan

>  <PDB_ID>  (292) 
nan

>  <Standardized_SMILES>  (292) 
NC(=O)Nc1sc2c(c1C(N)=O)CCc1nn(C3CCCN(Cc4ccc(N)cc4F)C3)cc1-2

>  <Name>  (292) 
nan

>  <Pocket>  (292) 
nan

>  <ATP_Site>  (292) 
nan

>  <Peripheral>  (292) 
nan

>  <Num_H_Atoms_ProtBoundConf>  (292) 
nan

>  <Num_Resolved_Atoms>  (292) 
nan

>  <Num_Not_Resolved_Atoms>  (292) 
nan

$$$$
CHEMBL4787812
     RDKit          3D

  0  0  0  0  0  0  0  0  0  0999 V3000
M  V30 BEGIN CTAB
M  V30 COUNTS 52 55 0 0 0
M  V30 BEGIN ATOM
M  V30 1 O -1.881671 -2.338768 3.138898 0
M  V30 2 C -2.018580 -2.798041 1.970193 0
M  V30 3 N -1.033196 -2.391456 1.064430 0
M  V30 4 C 0.094986 -1.556850 1.214757 0
M  V30 5 C 0.925685 -1.316562 0.120873 0
M  V30 6 C 2.034718 -0.510780 0.217024 0
M  V30 7 C 2.370650 0.095297 1.408003 0
M  V30 8 O 3.475489 0.885748 1.463570 0
M  V30 9 C 4.003743 1.589209 2.534627 0
M  V30 10 C 3.180717 2.635520 3.167018 0
M  V30 11 N 2.743720 3.741570 2.430706 0
M  V30 12 C 2.009213 4.616232 3.378265 0
M  V30 13 C 1.416535 5.644151 2.409273 0
M  V30 14 C 0.912236 4.761661 1.298698 0
M  V30 15 C 1.882228 3.583211 1.327301 0
M  V30 16 N 1.583967 -0.118403 2.488628 0
M  V30 17 C 0.514283 -0.914967 2.333845 0
M  V30 18 C -3.165900 -3.659338 1.777079 0
M  V30 19 N -4.017449 -3.916838 2.782615 0
M  V30 20 N -4.984462 -4.733489 2.348068 0
M  V30 21 C -4.827582 -5.051649 1.063279 0
M  V30 22 C -3.685180 -4.371930 0.719772 0
M  V30 23 C -3.083768 -4.390381 -0.581330 0
M  V30 24 C -2.589226 -4.423226 -1.679976 0
M  V30 25 C -2.015104 -4.472898 -3.001292 0
M  V30 26 C -1.565344 -5.680585 -3.537594 0
M  V30 27 C -1.003361 -5.813782 -4.790642 0
M  V30 28 C -0.915681 -4.631771 -5.496304 0
M  V30 29 N -1.325357 -3.433038 -5.049903 0
M  V30 30 C -1.873709 -3.355851 -3.804554 0
M  V30 31 H -1.183205 -2.790530 0.114156 0
M  V30 32 H 0.717282 -1.767825 -0.858773 0
M  V30 33 H 2.657440 -0.348101 -0.659707 0
M  V30 34 H 5.068785 1.922985 2.339819 0
M  V30 35 H 4.171354 0.806403 3.341061 0
M  V30 36 H 2.258212 2.114323 3.569944 0
M  V30 37 H 3.706664 2.962430 4.094592 0
M  V30 38 H 1.194480 4.096398 3.878145 0
M  V30 39 H 2.699600 5.130727 4.057014 0
M  V30 40 H 0.603517 6.226187 2.892965 0
M  V30 41 H 2.220398 6.291497 1.988995 0
M  V30 42 H 0.950567 5.275619 0.310287 0
M  V30 43 H -0.123814 4.464452 1.558106 0
M  V30 44 H 1.229087 2.699558 1.506682 0
M  V30 45 H 2.347438 3.440884 0.336790 0
M  V30 46 H -0.044980 -1.020451 3.249824 0
M  V30 47 H -5.748460 -5.040787 3.021547 0
M  V30 48 H -5.471412 -5.684920 0.503639 0
M  V30 49 H -1.687167 -6.536063 -2.890731 0
M  V30 50 H -0.665245 -6.764336 -5.175313 0
M  V30 51 H -0.486578 -4.632875 -6.496663 0
M  V30 52 H -2.212217 -2.414119 -3.414018 0
M  V30 END ATOM
M  V30 BEGIN BOND
M  V30 1 2 1 2
M  V30 2 1 2 3
M  V30 3 1 3 4
M  V30 4 2 4 5
M  V30 5 1 5 6
M  V30 6 2 6 7
M  V30 7 1 7 8
M  V30 8 1 8 9
M  V30 9 1 9 10
M  V30 10 1 10 11
M  V30 11 1 11 12
M  V30 12 1 12 13
M  V30 13 1 13 14
M  V30 14 1 14 15
M  V30 15 1 7 16
M  V30 16 2 16 17
M  V30 17 1 2 18
M  V30 18 2 18 19
M  V30 19 1 19 20
M  V30 20 1 20 21
M  V30 21 2 21 22
M  V30 22 1 22 23
M  V30 23 3 23 24
M  V30 24 1 24 25
M  V30 25 2 25 26
M  V30 26 1 26 27
M  V30 27 2 27 28
M  V30 28 1 28 29
M  V30 29 2 29 30
M  V30 30 1 17 4
M  V30 31 1 22 18
M  V30 32 1 30 25
M  V30 33 1 15 11
M  V30 34 1 3 31
M  V30 35 1 5 32
M  V30 36 1 6 33
M  V30 37 1 9 34
M  V30 38 1 9 35
M  V30 39 1 10 36
M  V30 40 1 10 37
M  V30 41 1 12 38
M  V30 42 1 12 39
M  V30 43 1 13 40
M  V30 44 1 13 41
M  V30 45 1 14 42
M  V30 46 1 14 43
M  V30 47 1 15 44
M  V30 48 1 15 45
M  V30 49 1 17 46
M  V30 50 1 20 47
M  V30 51 1 21 48
M  V30 52 1 26 49
M  V30 53 1 27 50
M  V30 54 1 28 51
M  V30 55 1 30 52
M  V30 END BOND
M  V30 END CTAB
M  END
>  <Dataset>  (293) 
ChEMBL_Kinases

>  <Ligand_Instance>  (293) 
nan

>  <PDB_ID>  (293) 
nan

>  <Standardized_SMILES>  (293) 
O=C(Nc1ccc(OCCN2CCCC2)nc1)c1n[nH]cc1C#Cc1cccnc1

>  <Name>  (293) 
nan

>  <Pocket>  (293) 
nan

>  <ATP_Site>  (293) 
nan

>  <Peripheral>  (293) 
nan

>  <Num_H_Atoms_ProtBoundConf>  (293) 
nan

>  <Num_Resolved_Atoms>  (293) 
nan

>  <Num_Not_Resolved_Atoms>  (293) 
nan

$$$$
CHEMBL493742
     RDKit          3D

  0  0  0  0  0  0  0  0  0  0999 V3000
M  V30 BEGIN CTAB
M  V30 COUNTS 27 28 0 0 0
M  V30 BEGIN ATOM
M  V30 1 C -2.574203 -2.914997 2.465980 0
M  V30 2 C -1.174606 -3.441776 2.240229 0
M  V30 3 C -0.216982 -2.382386 1.831129 0
M  V30 4 C 0.597157 -1.650124 2.667276 0
M  V30 5 C 1.433892 -0.683661 2.140737 0
M  V30 6 C 1.463017 -0.442829 0.785783 0
M  V30 7 C 2.352400 0.584045 0.190629 0
M  V30 8 C 1.759656 1.400683 -0.649687 0
M  V30 9 S -0.013243 1.279699 -1.043185 0
M  V30 10 C -0.120861 2.911559 -1.776137 0
M  V30 11 O -1.332657 3.211965 -1.838205 0
M  V30 12 N 1.219323 3.298395 -2.032115 0
M  V30 13 C 2.205807 2.510966 -1.445072 0
M  V30 14 O 3.434504 2.746994 -1.593224 0
M  V30 15 C 0.654262 -1.163427 -0.097745 0
M  V30 16 C -0.170172 -2.123794 0.475701 0
M  V30 17 H -2.889344 -3.023388 3.534151 0
M  V30 18 H -2.618676 -1.843054 2.196950 0
M  V30 19 H -3.323469 -3.453926 1.848319 0
M  V30 20 H -0.794712 -3.852604 3.223447 0
M  V30 21 H -1.145279 -4.280463 1.512612 0
M  V30 22 H 0.539911 -1.872281 3.716616 0
M  V30 23 H 2.080726 -0.105822 2.799389 0
M  V30 24 H 3.407931 0.745680 0.355754 0
M  V30 25 H 1.261092 4.143799 -2.641893 0
M  V30 26 H 0.614554 -1.061380 -1.180891 0
M  V30 27 H -0.804367 -2.682237 -0.208311 0
M  V30 END ATOM
M  V30 BEGIN BOND
M  V30 1 1 1 2
M  V30 2 1 2 3
M  V30 3 2 3 4
M  V30 4 1 4 5
M  V30 5 2 5 6
M  V30 6 1 6 7
M  V30 7 2 7 8
M  V30 8 1 8 9
M  V30 9 1 9 10
M  V30 10 2 10 11
M  V30 11 1 10 12
M  V30 12 1 12 13
M  V30 13 2 13 14
M  V30 14 1 6 15
M  V30 15 2 15 16
M  V30 16 1 16 3
M  V30 17 1 13 8
M  V30 18 1 1 17
M  V30 19 1 1 18
M  V30 20 1 1 19
M  V30 21 1 2 20
M  V30 22 1 2 21
M  V30 23 1 4 22
M  V30 24 1 5 23
M  V30 25 1 7 24
M  V30 26 1 12 25
M  V30 27 1 15 26
M  V30 28 1 16 27
M  V30 END BOND
M  V30 END CTAB
M  END
>  <Dataset>  (294) 
ChEMBL_Kinases

>  <Ligand_Instance>  (294) 
nan

>  <PDB_ID>  (294) 
nan

>  <Standardized_SMILES>  (294) 
CCc1ccc(/C=C2\SC(=O)NC2=O)cc1

>  <Name>  (294) 
nan

>  <Pocket>  (294) 
nan

>  <ATP_Site>  (294) 
nan

>  <Peripheral>  (294) 
nan

>  <Num_H_Atoms_ProtBoundConf>  (294) 
nan

>  <Num_Resolved_Atoms>  (294) 
nan

>  <Num_Not_Resolved_Atoms>  (294) 
nan

$$$$
CHEMBL4788045
     RDKit          3D

  0  0  0  0  0  0  0  0  0  0999 V3000
M  V30 BEGIN CTAB
M  V30 COUNTS 62 67 0 0 0
M  V30 BEGIN ATOM
M  V30 1 C 3.578345 -1.957963 4.885338 0
M  V30 2 N 3.999568 -2.621167 3.693113 0
M  V30 3 C 5.292287 -2.173008 3.190934 0
M  V30 4 C 5.084507 -1.357747 2.002377 0
M  V30 5 C 4.133179 -0.813800 1.270959 0
M  V30 6 C 4.233401 -0.019993 0.087918 0
M  V30 7 C 5.456261 0.157383 -0.515794 0
M  V30 8 O 6.671213 -0.353303 -0.093275 0
M  V30 9 C 5.691452 0.882148 -1.661477 0
M  V30 10 C 4.604405 1.495927 -2.275652 0
M  V30 11 O 4.730223 2.248843 -3.435767 0
M  V30 12 C 3.376342 1.299419 -1.640343 0
M  V30 13 C 2.314418 1.931526 -2.294872 0
M  V30 14 O 2.479733 2.605507 -3.351677 0
M  V30 15 C 1.085443 1.761056 -1.699037 0
M  V30 16 C 0.855786 1.024943 -0.530464 0
M  V30 17 C -0.527394 1.010891 -0.109525 0
M  V30 18 C -1.543506 1.305497 -1.021796 0
M  V30 19 C -2.875617 1.352816 -0.711063 0
M  V30 20 C -3.297339 1.101212 0.571494 0
M  V30 21 S -5.032655 1.148984 1.000572 0
M  V30 22 C -5.792920 -0.453282 0.790466 0
M  V30 23 N -5.877344 -1.433624 1.733538 0
M  V30 24 C -6.530414 -2.477173 1.152609 0
M  V30 25 C -6.906860 -3.721293 1.590673 0
M  V30 26 C -7.576759 -4.663396 0.840578 0
M  V30 27 C -7.873256 -4.272069 -0.464853 0
M  V30 28 C -7.531307 -3.045936 -0.978798 0
M  V30 29 C -6.862280 -2.155598 -0.168606 0
M  V30 30 N -6.378576 -0.895479 -0.325103 0
M  V30 31 C -6.496137 -0.146388 -1.558027 0
M  V30 32 C -2.358369 0.804087 1.530790 0
M  V30 33 C -1.043941 0.777717 1.138342 0
M  V30 34 Cl 0.045769 0.462443 2.462408 0
M  V30 35 O 1.916579 0.474425 0.000841 0
M  V30 36 C 3.126103 0.563250 -0.470867 0
M  V30 37 C 2.920358 -1.262961 1.961412 0
M  V30 38 C 3.042708 -2.622786 2.617678 0
M  V30 39 H 2.922253 -2.625384 5.497409 0
M  V30 40 H 3.193014 -0.938257 4.756085 0
M  V30 41 H 4.500718 -1.834018 5.520486 0
M  V30 42 H 5.717426 -1.579462 4.042049 0
M  V30 43 H 5.903971 -3.099038 3.022016 0
M  V30 44 H 6.122469 -1.204965 1.733837 0
M  V30 45 H 7.141105 -1.044649 -0.693874 0
M  V30 46 H 6.625080 1.053558 -2.175862 0
M  V30 47 H 5.408134 1.862443 -4.110244 0
M  V30 48 H 0.316147 2.304557 -2.277612 0
M  V30 49 H -1.398878 1.515148 -2.069558 0
M  V30 50 H -3.662564 1.580129 -1.416513 0
M  V30 51 H -6.650182 -3.969050 2.611142 0
M  V30 52 H -7.864007 -5.636980 1.203905 0
M  V30 53 H -8.402741 -4.984387 -1.096421 0
M  V30 54 H -7.780587 -2.786537 -1.992326 0
M  V30 55 H -6.866294 0.869445 -1.374687 0
M  V30 56 H -5.457500 -0.042503 -1.966955 0
M  V30 57 H -7.185886 -0.659869 -2.278391 0
M  V30 58 H -2.709199 0.610292 2.530197 0
M  V30 59 H 2.741595 -0.559279 2.806558 0
M  V30 60 H 2.034887 -1.375370 1.307655 0
M  V30 61 H 2.054705 -2.884260 3.038367 0
M  V30 62 H 3.361747 -3.354913 1.851405 0
M  V30 END ATOM
M  V30 BEGIN BOND
M  V30 1 1 1 2
M  V30 2 1 2 3
M  V30 3 1 3 4
M  V30 4 2 4 5
M  V30 5 1 5 6
M  V30 6 2 6 7
M  V30 7 1 7 8
M  V30 8 1 7 9
M  V30 9 2 9 10
M  V30 10 1 10 11
M  V30 11 1 10 12
M  V30 12 1 12 13
M  V30 13 2 13 14
M  V30 14 1 13 15
M  V30 15 2 15 16
M  V30 16 1 16 17
M  V30 17 2 17 18
M  V30 18 1 18 19
M  V30 19 2 19 20
M  V30 20 1 20 21
M  V30 21 1 21 22
M  V30 22 2 22 23
M  V30 23 1 23 24
M  V30 24 2 24 25
M  V30 25 1 25 26
M  V30 26 2 26 27
M  V30 27 1 27 28
M  V30 28 2 28 29
M  V30 29 1 29 30
M  V30 30 1 30 31
M  V30 31 1 20 32
M  V30 32 2 32 33
M  V30 33 1 33 34
M  V30 34 1 16 35
M  V30 35 1 35 36
M  V30 36 1 5 37
M  V30 37 1 37 38
M  V30 38 1 38 2
M  V30 39 1 36 6
M  V30 40 2 36 12
M  V30 41 1 33 17
M  V30 42 1 30 22
M  V30 43 1 29 24
M  V30 44 1 1 39
M  V30 45 1 1 40
M  V30 46 1 1 41
M  V30 47 1 3 42
M  V30 48 1 3 43
M  V30 49 1 4 44
M  V30 50 1 8 45
M  V30 51 1 9 46
M  V30 52 1 11 47
M  V30 53 1 15 48
M  V30 54 1 18 49
M  V30 55 1 19 50
M  V30 56 1 25 51
M  V30 57 1 26 52
M  V30 58 1 27 53
M  V30 59 1 28 54
M  V30 60 1 31 55
M  V30 61 1 31 56
M  V30 62 1 31 57
M  V30 63 1 32 58
M  V30 64 1 37 59
M  V30 65 1 37 60
M  V30 66 1 38 61
M  V30 67 1 38 62
M  V30 END BOND
M  V30 END CTAB
M  END
>  <Dataset>  (295) 
ChEMBL_Kinases

>  <Ligand_Instance>  (295) 
nan

>  <PDB_ID>  (295) 
nan

>  <Standardized_SMILES>  (295) 
CN1CC=C(c2c(O)cc(O)c3c(=O)cc(-c4ccc(Sc5nc6ccccc6n5C)cc4Cl)oc23)CC1

>  <Name>  (295) 
nan

>  <Pocket>  (295) 
nan

>  <ATP_Site>  (295) 
nan

>  <Peripheral>  (295) 
nan

>  <Num_H_Atoms_ProtBoundConf>  (295) 
nan

>  <Num_Resolved_Atoms>  (295) 
nan

>  <Num_Not_Resolved_Atoms>  (295) 
nan

$$$$
CHEMBL493847
     RDKit          3D

  0  0  0  0  0  0  0  0  0  0999 V3000
M  V30 BEGIN CTAB
M  V30 COUNTS 29 30 0 0 0
M  V30 BEGIN ATOM
M  V30 1 C -1.073290 -3.855916 3.440248 0
M  V30 2 N -0.612674 -2.496903 3.413696 0
M  V30 3 C -0.314559 -1.743752 4.630552 0
M  V30 4 C -0.429978 -1.831325 2.181161 0
M  V30 5 C -0.672382 -2.416887 0.957277 0
M  V30 6 C -0.494363 -1.767522 -0.258317 0
M  V30 7 C -0.047336 -0.452338 -0.269681 0
M  V30 8 C 0.114386 0.162990 -1.580878 0
M  V30 9 C 1.128493 0.984701 -1.793437 0
M  V30 10 S 2.465382 1.548689 -0.704901 0
M  V30 11 C 2.840490 3.031358 -1.679312 0
M  V30 12 O 3.429603 4.066044 -1.287818 0
M  V30 13 N 2.315676 2.743778 -2.969972 0
M  V30 14 C 1.413608 1.670217 -3.048328 0
M  V30 15 O 0.870901 1.309152 -4.147893 0
M  V30 16 C 0.208833 0.176916 0.929994 0
M  V30 17 C 0.010505 -0.527216 2.094961 0
M  V30 18 H -0.683974 -4.488731 2.618809 0
M  V30 19 H -0.785768 -4.311589 4.432070 0
M  V30 20 H -2.192534 -3.904121 3.427137 0
M  V30 21 H 0.718985 -1.342431 4.595817 0
M  V30 22 H -0.500939 -2.430174 5.477058 0
M  V30 23 H -1.071958 -0.927088 4.701006 0
M  V30 24 H -1.022388 -3.439209 0.907278 0
M  V30 25 H -0.710983 -2.307803 -1.184547 0
M  V30 26 H -0.583773 -0.043993 -2.380460 0
M  V30 27 H 2.624991 3.337641 -3.776906 0
M  V30 28 H 0.548452 1.180290 0.921916 0
M  V30 29 H 0.229491 0.022821 3.002164 0
M  V30 END ATOM
M  V30 BEGIN BOND
M  V30 1 1 1 2
M  V30 2 1 2 3
M  V30 3 1 2 4
M  V30 4 2 4 5
M  V30 5 1 5 6
M  V30 6 2 6 7
M  V30 7 1 7 8
M  V30 8 2 8 9
M  V30 9 1 9 10
M  V30 10 1 10 11
M  V30 11 2 11 12
M  V30 12 1 11 13
M  V30 13 1 13 14
M  V30 14 2 14 15
M  V30 15 1 7 16
M  V30 16 2 16 17
M  V30 17 1 17 4
M  V30 18 1 14 9
M  V30 19 1 1 18
M  V30 20 1 1 19
M  V30 21 1 1 20
M  V30 22 1 3 21
M  V30 23 1 3 22
M  V30 24 1 3 23
M  V30 25 1 5 24
M  V30 26 1 6 25
M  V30 27 1 8 26
M  V30 28 1 13 27
M  V30 29 1 16 28
M  V30 30 1 17 29
M  V30 END BOND
M  V30 END CTAB
M  END
>  <Dataset>  (296) 
ChEMBL_Kinases

>  <Ligand_Instance>  (296) 
nan

>  <PDB_ID>  (296) 
nan

>  <Standardized_SMILES>  (296) 
CN(C)c1ccc(/C=C2\SC(=O)NC2=O)cc1

>  <Name>  (296) 
nan

>  <Pocket>  (296) 
nan

>  <ATP_Site>  (296) 
nan

>  <Peripheral>  (296) 
nan

>  <Num_H_Atoms_ProtBoundConf>  (296) 
nan

>  <Num_Resolved_Atoms>  (296) 
nan

>  <Num_Not_Resolved_Atoms>  (296) 
nan

$$$$
CHEMBL1738733
     RDKit          3D

  0  0  0  0  0  0  0  0  0  0999 V3000
M  V30 BEGIN CTAB
M  V30 COUNTS 36 39 0 0 0
M  V30 BEGIN ATOM
M  V30 1 O -1.235339 -0.693053 4.426894 0
M  V30 2 C -0.521969 -0.651093 3.393288 0
M  V30 3 N 0.664462 -1.416031 3.113518 0
M  V30 4 C 1.038655 -1.022357 1.930387 0
M  V30 5 N 2.183759 -1.537087 1.275084 0
M  V30 6 C 2.544194 -2.886357 1.315339 0
M  V30 7 C 1.868452 -3.881792 1.937326 0
M  V30 8 C 2.249676 -5.221766 1.964830 0
M  V30 9 C 3.399943 -5.587661 1.315985 0
M  V30 10 C 4.143435 -4.628752 0.658686 0
M  V30 11 C 3.709286 -3.326165 0.671865 0
M  V30 12 N 0.148998 -0.019307 1.399774 0
M  V30 13 C -0.797510 0.222782 2.257813 0
M  V30 14 C -1.897969 1.213437 2.032618 0
M  V30 15 C -1.739033 1.869553 0.687055 0
M  V30 16 C -0.992656 3.043324 0.532895 0
M  V30 17 C -0.914565 3.560510 -0.757777 0
M  V30 18 C -1.533643 2.959434 -1.833761 0
M  V30 19 C -2.268013 1.791762 -1.640785 0
M  V30 20 C -2.366421 1.251626 -0.374995 0
M  V30 21 O -2.758969 1.444163 -2.911253 0
M  V30 22 C -1.918184 2.055015 -3.898870 0
M  V30 23 O -1.608011 3.271081 -3.203541 0
M  V30 24 H 2.793725 -0.859058 0.726618 0
M  V30 25 H 0.963161 -3.663013 2.459980 0
M  V30 26 H 1.714598 -5.999570 2.455308 0
M  V30 27 H 3.811980 -6.584636 1.255898 0
M  V30 28 H 5.073889 -4.870841 0.123089 0
M  V30 29 H 4.328481 -2.588528 0.136601 0
M  V30 30 H -2.866282 0.675394 2.058764 0
M  V30 31 H -1.813204 1.949707 2.864381 0
M  V30 32 H -0.530063 3.478024 1.383524 0
M  V30 33 H -0.336892 4.474800 -0.895927 0
M  V30 34 H -2.939328 0.344381 -0.236387 0
M  V30 35 H -0.955560 1.490280 -3.982327 0
M  V30 36 H -2.429416 2.214927 -4.846914 0
M  V30 END ATOM
M  V30 BEGIN BOND
M  V30 1 2 1 2
M  V30 2 1 2 3
M  V30 3 2 3 4
M  V30 4 1 4 5
M  V30 5 1 5 6
M  V30 6 2 6 7
M  V30 7 1 7 8
M  V30 8 2 8 9
M  V30 9 1 9 10
M  V30 10 2 10 11
M  V30 11 1 4 12
M  V30 12 2 12 13
M  V30 13 1 13 14
M  V30 14 1 14 15
M  V30 15 2 15 16
M  V30 16 1 16 17
M  V30 17 2 17 18
M  V30 18 1 18 19
M  V30 19 2 19 20
M  V30 20 1 19 21
M  V30 21 1 21 22
M  V30 22 1 22 23
M  V30 23 1 13 2
M  V30 24 1 20 15
M  V30 25 1 11 6
M  V30 26 1 23 18
M  V30 27 1 5 24
M  V30 28 1 7 25
M  V30 29 1 8 26
M  V30 30 1 9 27
M  V30 31 1 10 28
M  V30 32 1 11 29
M  V30 33 1 14 30
M  V30 34 1 14 31
M  V30 35 1 16 32
M  V30 36 1 17 33
M  V30 37 1 20 34
M  V30 38 1 22 35
M  V30 39 1 22 36
M  V30 END BOND
M  V30 END CTAB
M  END
>  <Dataset>  (297) 
ChEMBL_Kinases

>  <Ligand_Instance>  (297) 
nan

>  <PDB_ID>  (297) 
nan

>  <Standardized_SMILES>  (297) 
O=C1N=C(Nc2ccccc2)N=C1Cc1ccc2c(c1)OCO2

>  <Name>  (297) 
nan

>  <Pocket>  (297) 
nan

>  <ATP_Site>  (297) 
nan

>  <Peripheral>  (297) 
nan

>  <Num_H_Atoms_ProtBoundConf>  (297) 
nan

>  <Num_Resolved_Atoms>  (297) 
nan

>  <Num_Not_Resolved_Atoms>  (297) 
nan

$$$$
CHEMBL495398
     RDKit          3D

  0  0  0  0  0  0  0  0  0  0999 V3000
M  V30 BEGIN CTAB
M  V30 COUNTS 21 22 0 0 0
M  V30 BEGIN ATOM
M  V30 1 O -0.523602 -3.099789 3.890022 0
M  V30 2 C 0.226824 -2.236702 3.382729 0
M  V30 3 N 1.470535 -1.797971 3.904792 0
M  V30 4 C 2.131183 -0.756715 3.219058 0
M  V30 5 O 3.235200 -0.256414 3.554885 0
M  V30 6 C 1.431334 -0.260852 2.038005 0
M  V30 7 C 1.721593 0.748331 1.229728 0
M  V30 8 C 0.820019 1.013004 0.105163 0
M  V30 9 C 0.552937 -0.167953 -0.585785 0
M  V30 10 C -0.283906 -0.225539 -1.682878 0
M  V30 11 C -0.874223 0.946644 -2.099917 0
M  V30 12 C -0.609888 2.123611 -1.412549 0
M  V30 13 Cl -1.319438 3.650023 -1.878443 0
M  V30 14 C 0.224923 2.171690 -0.322026 0
M  V30 15 S -0.035429 -1.314024 1.873345 0
M  V30 16 H 1.875437 -2.244469 4.779968 0
M  V30 17 H 2.603219 1.293576 1.463330 0
M  V30 18 H 0.953227 -1.171106 -0.378668 0
M  V30 19 H -0.521105 -1.103933 -2.247004 0
M  V30 20 H -1.538329 0.966960 -2.953244 0
M  V30 21 H 0.507328 3.006794 0.288043 0
M  V30 END ATOM
M  V30 BEGIN BOND
M  V30 1 2 1 2
M  V30 2 1 2 3
M  V30 3 1 3 4
M  V30 4 2 4 5
M  V30 5 1 4 6
M  V30 6 2 6 7
M  V30 7 1 7 8
M  V30 8 2 8 9
M  V30 9 1 9 10
M  V30 10 2 10 11
M  V30 11 1 11 12
M  V30 12 1 12 13
M  V30 13 2 12 14
M  V30 14 1 6 15
M  V30 15 1 15 2
M  V30 16 1 14 8
M  V30 17 1 3 16
M  V30 18 1 7 17
M  V30 19 1 9 18
M  V30 20 1 10 19
M  V30 21 1 11 20
M  V30 22 1 14 21
M  V30 END BOND
M  V30 END CTAB
M  END
>  <Dataset>  (298) 
ChEMBL_Kinases

>  <Ligand_Instance>  (298) 
nan

>  <PDB_ID>  (298) 
nan

>  <Standardized_SMILES>  (298) 
O=C1NC(=O)/C(=C/c2cccc(Cl)c2)S1

>  <Name>  (298) 
nan

>  <Pocket>  (298) 
nan

>  <ATP_Site>  (298) 
nan

>  <Peripheral>  (298) 
nan

>  <Num_H_Atoms_ProtBoundConf>  (298) 
nan

>  <Num_Resolved_Atoms>  (298) 
nan

>  <Num_Not_Resolved_Atoms>  (298) 
nan

$$$$
CHEMBL4785328
     RDKit          3D

  0  0  0  0  0  0  0  0  0  0999 V3000
M  V30 BEGIN CTAB
M  V30 COUNTS 42 46 0 0 0
M  V30 BEGIN ATOM
M  V30 1 C 3.761868 -2.439659 3.197776 0
M  V30 2 C 2.654718 -1.902768 2.352481 0
M  V30 3 C 2.937678 -0.866214 1.488973 0
M  V30 4 C 1.939464 -0.332681 0.681111 0
M  V30 5 C 2.327827 0.760010 -0.200727 0
M  V30 6 C 3.471522 0.789616 -0.980296 0
M  V30 7 N 3.481931 1.963404 -1.656328 0
M  V30 8 C 2.366545 2.663758 -1.311732 0
M  V30 9 N 1.966372 3.879807 -1.738044 0
M  V30 10 C 0.813213 4.405233 -1.268541 0
M  V30 11 C 0.056532 3.701220 -0.362629 0
M  V30 12 C 0.441577 2.450532 0.093517 0
M  V30 13 C 1.623076 1.939839 -0.403284 0
M  V30 14 C 0.671956 -0.859602 0.763247 0
M  V30 15 C 0.449914 -1.894890 1.645610 0
M  V30 16 C -0.848993 -2.355874 1.649885 0
M  V30 17 C -2.010727 -1.901184 0.900584 0
M  V30 18 C -2.675046 -2.933710 0.226347 0
M  V30 19 C -3.807349 -2.734438 -0.535543 0
M  V30 20 C -4.297875 -1.451927 -0.629117 0
M  V30 21 N -3.660615 -0.462315 0.017813 0
M  V30 22 C -2.563758 -0.645822 0.758037 0
M  V30 23 C -1.103783 -3.413682 2.532232 0
M  V30 24 C -0.129084 -3.972846 3.354986 0
M  V30 25 N 1.120234 -3.478062 3.305338 0
M  V30 26 C 1.398721 -2.462714 2.468720 0
M  V30 27 H 3.574099 -3.503977 3.384190 0
M  V30 28 H 4.755731 -2.232617 2.752739 0
M  V30 29 H 3.714552 -1.941910 4.194904 0
M  V30 30 H 3.945800 -0.468243 1.443204 0
M  V30 31 H 4.251513 0.046702 -1.076967 0
M  V30 32 H 4.226947 2.264621 -2.324858 0
M  V30 33 H 0.441409 5.384812 -1.578983 0
M  V30 34 H -0.878045 4.101647 0.032358 0
M  V30 35 H -0.134745 1.876042 0.805324 0
M  V30 36 H -0.086335 -0.442822 0.127614 0
M  V30 37 H -2.343967 -3.974273 0.254920 0
M  V30 38 H -4.309876 -3.540719 -1.050561 0
M  V30 39 H -5.187979 -1.281263 -1.225527 0
M  V30 40 H -2.030159 0.122007 1.300476 0
M  V30 41 H -2.088510 -3.859672 2.622449 0
M  V30 42 H -0.371460 -4.787913 4.020017 0
M  V30 END ATOM
M  V30 BEGIN BOND
M  V30 1 1 1 2
M  V30 2 2 2 3
M  V30 3 1 3 4
M  V30 4 1 4 5
M  V30 5 2 5 6
M  V30 6 1 6 7
M  V30 7 1 7 8
M  V30 8 2 8 9
M  V30 9 1 9 10
M  V30 10 2 10 11
M  V30 11 1 11 12
M  V30 12 2 12 13
M  V30 13 2 4 14
M  V30 14 1 14 15
M  V30 15 2 15 16
M  V30 16 1 16 17
M  V30 17 2 17 18
M  V30 18 1 18 19
M  V30 19 2 19 20
M  V30 20 1 20 21
M  V30 21 2 21 22
M  V30 22 1 16 23
M  V30 23 2 23 24
M  V30 24 1 24 25
M  V30 25 2 25 26
M  V30 26 1 26 2
M  V30 27 1 13 5
M  V30 28 1 26 15
M  V30 29 1 13 8
M  V30 30 1 22 17
M  V30 31 1 1 27
M  V30 32 1 1 28
M  V30 33 1 1 29
M  V30 34 1 3 30
M  V30 35 1 6 31
M  V30 36 1 7 32
M  V30 37 1 10 33
M  V30 38 1 11 34
M  V30 39 1 12 35
M  V30 40 1 14 36
M  V30 41 1 18 37
M  V30 42 1 19 38
M  V30 43 1 20 39
M  V30 44 1 22 40
M  V30 45 1 23 41
M  V30 46 1 24 42
M  V30 END BOND
M  V30 END CTAB
M  END
>  <Dataset>  (299) 
ChEMBL_Kinases

>  <Ligand_Instance>  (299) 
nan

>  <PDB_ID>  (299) 
nan

>  <Standardized_SMILES>  (299) 
Cc1cc(-c2c[nH]c3ncccc23)cc2c(-c3cccnc3)ccnc12

>  <Name>  (299) 
nan

>  <Pocket>  (299) 
nan

>  <ATP_Site>  (299) 
nan

>  <Peripheral>  (299) 
nan

>  <Num_H_Atoms_ProtBoundConf>  (299) 
nan

>  <Num_Resolved_Atoms>  (299) 
nan

>  <Num_Not_Resolved_Atoms>  (299) 
nan

$$$$
CHEMBL1708
     RDKit          3D

  0  0  0  0  0  0  0  0  0  0999 V3000
M  V30 BEGIN CTAB
M  V30 COUNTS 44 47 0 0 0
M  V30 BEGIN ATOM
M  V30 1 F 1.371034 -5.616253 -2.132828 0
M  V30 2 C 1.697265 -4.426732 -1.554738 0
M  V30 3 C 2.634234 -3.604506 -2.182709 0
M  V30 4 C 2.896213 -2.407792 -1.505702 0
M  V30 5 C 2.320906 -2.008148 -0.322445 0
M  V30 6 C 2.656412 -0.731457 0.317943 0 CFG=2
M  V30 7 C 3.235380 -0.867708 1.697359 0
M  V30 8 C 2.698355 0.137919 2.673070 0
M  V30 9 N 2.570240 1.464682 2.178611 0
M  V30 10 C 2.211911 1.561562 0.777492 0
M  V30 11 C 1.492022 0.227089 0.457581 0 CFG=1
M  V30 12 C 0.725611 0.450951 -0.778774 0
M  V30 13 O -0.325935 1.329816 -0.570434 0
M  V30 14 C -1.387867 1.092624 0.240349 0
M  V30 15 C -2.201837 2.228602 0.199672 0
M  V30 16 C -3.393712 2.350283 0.912779 0
M  V30 17 C -3.843593 1.318385 1.722028 0
M  V30 18 C -3.044248 0.198384 1.763518 0
M  V30 19 C -1.876516 0.105217 1.051250 0
M  V30 20 O -3.607811 -0.745401 2.602735 0
M  V30 21 C -4.663563 -0.113968 3.307619 0
M  V30 22 O -4.913701 1.042911 2.555432 0
M  V30 23 C 1.414356 -2.912388 0.189363 0
M  V30 24 C 1.064681 -4.121607 -0.372082 0
M  V30 25 H 3.121270 -3.851929 -3.104482 0
M  V30 26 H 3.623669 -1.773337 -1.996508 0
M  V30 27 H 3.401765 -0.230284 -0.334594 0
M  V30 28 H 4.353933 -0.771845 1.699955 0
M  V30 29 H 3.015111 -1.868465 2.155347 0
M  V30 30 H 3.439352 0.185574 3.524662 0
M  V30 31 H 1.777815 -0.263314 3.138442 0
M  V30 32 H 1.823101 1.954362 2.720248 0
M  V30 33 H 3.163763 1.629608 0.210783 0
M  V30 34 H 1.560408 2.425041 0.547169 0
M  V30 35 H 0.845795 -0.022427 1.296767 0
M  V30 36 H 1.326003 0.890913 -1.611318 0
M  V30 37 H 0.232896 -0.508626 -1.134329 0
M  V30 38 H -2.065141 3.159942 -0.355670 0
M  V30 39 H -4.066456 3.200511 0.923332 0
M  V30 40 H -1.265178 -0.769197 1.063894 0
M  V30 41 H -4.311538 0.202943 4.311198 0
M  V30 42 H -5.567301 -0.766860 3.379709 0
M  V30 43 H 0.914049 -2.658741 1.136028 0
M  V30 44 H 0.344731 -4.787151 0.079864 0
M  V30 END ATOM
M  V30 BEGIN BOND
M  V30 1 1 1 2
M  V30 2 2 2 3
M  V30 3 1 3 4
M  V30 4 2 4 5
M  V30 5 1 5 6
M  V30 6 1 6 7
M  V30 7 1 7 8
M  V30 8 1 8 9
M  V30 9 1 9 10
M  V30 10 1 10 11
M  V30 11 1 11 12
M  V30 12 1 12 13
M  V30 13 1 13 14
M  V30 14 2 14 15
M  V30 15 1 15 16
M  V30 16 2 16 17
M  V30 17 1 17 18
M  V30 18 2 18 19
M  V30 19 1 18 20
M  V30 20 1 20 21
M  V30 21 1 21 22
M  V30 22 1 5 23
M  V30 23 2 23 24
M  V30 24 1 24 2
M  V30 25 1 11 6
M  V30 26 1 19 14
M  V30 27 1 22 17
M  V30 28 1 3 25
M  V30 29 1 4 26
M  V30 30 1 6 27 CFG=3
M  V30 31 1 7 28
M  V30 32 1 7 29
M  V30 33 1 8 30
M  V30 34 1 8 31
M  V30 35 1 9 32
M  V30 36 1 10 33
M  V30 37 1 10 34
M  V30 38 1 11 35 CFG=1
M  V30 39 1 12 36
M  V30 40 1 12 37
M  V30 41 1 15 38
M  V30 42 1 16 39
M  V30 43 1 19 40
M  V30 44 1 21 41
M  V30 45 1 21 42
M  V30 46 1 23 43
M  V30 47 1 24 44
M  V30 END BOND
M  V30 END CTAB
M  END
>  <Dataset>  (300) 
ChEMBL_Kinases

>  <Ligand_Instance>  (300) 
nan

>  <PDB_ID>  (300) 
nan

>  <Standardized_SMILES>  (300) 
Fc1ccc([C@@H]2CCNC[C@H]2COc2ccc3c(c2)OCO3)cc1

>  <Name>  (300) 
PAROXETINE HYDROCHLORIDE

>  <Pocket>  (300) 
nan

>  <ATP_Site>  (300) 
nan

>  <Peripheral>  (300) 
nan

>  <Num_H_Atoms_ProtBoundConf>  (300) 
nan

>  <Num_Resolved_Atoms>  (300) 
nan

>  <Num_Not_Resolved_Atoms>  (300) 
nan

$$$$
CHEMBL4785479
     RDKit          3D

  0  0  0  0  0  0  0  0  0  0999 V3000
M  V30 BEGIN CTAB
M  V30 COUNTS 59 63 0 0 0
M  V30 BEGIN ATOM
M  V30 1 C 4.720714 -3.090740 6.604284 0
M  V30 2 C 5.533214 -3.796869 5.545197 0
M  V30 3 C 5.524413 -3.091783 4.260275 0
M  V30 4 O 4.762560 -2.315795 4.929129 0
M  V30 5 N 5.568766 -2.480834 3.002941 0
M  V30 6 C 4.970445 -1.328280 2.460758 0
M  V30 7 N 5.378506 -0.041784 2.440198 0
M  V30 8 C 4.455584 0.700900 1.788281 0
M  V30 9 C 4.366345 2.042485 1.484542 0
M  V30 10 C 3.256562 2.477110 0.790278 0
M  V30 11 C 2.233151 1.639645 0.384726 0
M  V30 12 C 1.039893 2.053919 -0.343261 0
M  V30 13 C 0.954124 3.093264 -1.251594 0
M  V30 14 C -0.237372 3.378399 -1.883548 0
M  V30 15 C -1.393357 2.659551 -1.653889 0
M  V30 16 N -2.571252 2.895015 -2.245622 0
M  V30 17 C -3.655471 2.120272 -1.952124 0
M  V30 18 N -3.642735 1.078350 -1.067201 0
M  V30 19 C -4.852022 0.327198 -0.860702 0
M  V30 20 C -5.068324 -0.806728 -1.805201 0
M  V30 21 N -4.092075 -1.833643 -1.819464 0
M  V30 22 C -3.986786 -2.673295 -0.695536 0
M  V30 23 C -4.397158 -4.099687 -0.906375 0
M  V30 24 O -4.282373 -4.524839 -2.218720 0
M  V30 25 C -3.246663 -3.827758 -2.837342 0
M  V30 26 C -3.807673 -2.422951 -3.095995 0
M  V30 27 C -2.449365 0.871545 -0.493414 0
M  V30 28 O -2.365945 -0.058108 0.322613 0
M  V30 29 C -1.323200 1.621390 -0.751685 0
M  V30 30 C -0.127994 1.335865 -0.117677 0
M  V30 31 C 2.381963 0.305583 0.719727 0
M  V30 32 C 3.471162 -0.192470 1.414974 0
M  V30 33 N 3.790281 -1.453982 1.832571 0
M  V30 34 H 5.065720 -2.033686 6.783721 0
M  V30 35 H 3.655546 -3.023765 6.306984 0
M  V30 36 H 4.796096 -3.629212 7.589662 0
M  V30 37 H 6.581791 -3.910769 5.899329 0
M  V30 38 H 5.076164 -4.805779 5.439096 0
M  V30 39 H 6.173428 -3.289749 2.847093 0
M  V30 40 H 5.138615 2.725180 1.780241 0
M  V30 41 H 3.169947 3.516103 0.544776 0
M  V30 42 H 1.863426 3.650682 -1.425506 0
M  V30 43 H -0.274605 4.197440 -2.588629 0
M  V30 44 H -4.545876 2.388755 -2.475003 0
M  V30 45 H -4.834455 -0.055732 0.198328 0
M  V30 46 H -5.759683 0.965030 -0.900780 0
M  V30 47 H -5.327430 -0.425911 -2.826665 0
M  V30 48 H -6.033007 -1.297259 -1.472330 0
M  V30 49 H -4.593680 -2.265956 0.138386 0
M  V30 50 H -2.922601 -2.644380 -0.348157 0
M  V30 51 H -5.420580 -4.305794 -0.549321 0
M  V30 52 H -3.716056 -4.741855 -0.299575 0
M  V30 53 H -2.449766 -3.735829 -2.077217 0
M  V30 54 H -2.900159 -4.315428 -3.772074 0
M  V30 55 H -4.665754 -2.459078 -3.788071 0
M  V30 56 H -2.993947 -1.876519 -3.653848 0
M  V30 57 H -0.147406 0.521432 0.570144 0
M  V30 58 H 1.641867 -0.413269 0.445834 0
M  V30 59 H 3.183356 -2.310537 1.661991 0
M  V30 END ATOM
M  V30 BEGIN BOND
M  V30 1 1 1 2
M  V30 2 1 2 3
M  V30 3 2 3 4
M  V30 4 1 3 5
M  V30 5 1 5 6
M  V30 6 2 6 7
M  V30 7 1 7 8
M  V30 8 2 8 9
M  V30 9 1 9 10
M  V30 10 2 10 11
M  V30 11 1 11 12
M  V30 12 2 12 13
M  V30 13 1 13 14
M  V30 14 2 14 15
M  V30 15 1 15 16
M  V30 16 2 16 17
M  V30 17 1 17 18
M  V30 18 1 18 19
M  V30 19 1 19 20
M  V30 20 1 20 21
M  V30 21 1 21 22
M  V30 22 1 22 23
M  V30 23 1 23 24
M  V30 24 1 24 25
M  V30 25 1 25 26
M  V30 26 1 18 27
M  V30 27 2 27 28
M  V30 28 1 27 29
M  V30 29 2 29 30
M  V30 30 1 11 31
M  V30 31 2 31 32
M  V30 32 1 32 33
M  V30 33 1 33 6
M  V30 34 1 32 8
M  V30 35 1 30 12
M  V30 36 1 29 15
M  V30 37 1 26 21
M  V30 38 1 1 34
M  V30 39 1 1 35
M  V30 40 1 1 36
M  V30 41 1 2 37
M  V30 42 1 2 38
M  V30 43 1 5 39
M  V30 44 1 9 40
M  V30 45 1 10 41
M  V30 46 1 13 42
M  V30 47 1 14 43
M  V30 48 1 17 44
M  V30 49 1 19 45
M  V30 50 1 19 46
M  V30 51 1 20 47
M  V30 52 1 20 48
M  V30 53 1 22 49
M  V30 54 1 22 50
M  V30 55 1 23 51
M  V30 56 1 23 52
M  V30 57 1 25 53
M  V30 58 1 25 54
M  V30 59 1 26 55
M  V30 60 1 26 56
M  V30 61 1 30 57
M  V30 62 1 31 58
M  V30 63 1 33 59
M  V30 END BOND
M  V30 END CTAB
M  END
>  <Dataset>  (301) 
ChEMBL_Kinases

>  <Ligand_Instance>  (301) 
nan

>  <PDB_ID>  (301) 
nan

>  <Standardized_SMILES>  (301) 
CCC(=O)Nc1nc2ccc(-c3ccc4ncn(CCN5CCOCC5)c(=O)c4c3)cc2[nH]1

>  <Name>  (301) 
nan

>  <Pocket>  (301) 
nan

>  <ATP_Site>  (301) 
nan

>  <Peripheral>  (301) 
nan

>  <Num_H_Atoms_ProtBoundConf>  (301) 
nan

>  <Num_Resolved_Atoms>  (301) 
nan

>  <Num_Not_Resolved_Atoms>  (301) 
nan

$$$$
CHEMBL16958
     RDKit          3D

  0  0  0  0  0  0  0  0  0  0999 V3000
M  V30 BEGIN CTAB
M  V30 COUNTS 37 42 0 0 0
M  V30 BEGIN ATOM
M  V30 1 O 2.655661 -0.889648 3.793133 0
M  V30 2 C 1.876604 -1.343443 2.973735 0
M  V30 3 N 1.567443 -2.715541 3.135578 0
M  V30 4 C 0.630683 -3.159177 2.108925 0
M  V30 5 C 0.444633 -1.895640 1.352446 0
M  V30 6 C 1.165058 -0.835790 1.848594 0
M  V30 7 C 1.077058 0.373301 1.240984 0
M  V30 8 C 1.688181 1.550990 1.547992 0
M  V30 9 C 2.556322 2.090457 2.447331 0
M  V30 10 C 2.995211 3.393969 2.480757 0
M  V30 11 C 2.508816 4.263810 1.497898 0
M  V30 12 C 1.625722 3.766231 0.562151 0
M  V30 13 C 1.236335 2.442986 0.600645 0
M  V30 14 N 0.372707 1.831150 -0.263305 0
M  V30 15 C 0.279557 0.551071 0.139654 0
M  V30 16 C -0.451598 -0.498521 -0.374531 0
M  V30 17 N -1.297389 -0.576719 -1.433536 0
M  V30 18 C -1.774738 -1.820866 -1.540821 0
M  V30 19 C -2.649854 -2.464173 -2.406709 0
M  V30 20 C -2.925496 -3.797473 -2.217381 0
M  V30 21 C -2.359383 -4.533143 -1.186531 0
M  V30 22 C -1.493912 -3.866936 -0.342444 0
M  V30 23 C -1.197685 -2.529409 -0.506948 0
M  V30 24 C -0.361919 -1.727540 0.243392 0
M  V30 25 H 1.852696 -3.459766 3.807309 0
M  V30 26 H -0.275032 -3.498737 2.611053 0
M  V30 27 H 1.162600 -3.924703 1.509533 0
M  V30 28 H 2.962892 1.484650 3.219338 0
M  V30 29 H 3.686049 3.773462 3.216768 0
M  V30 30 H 2.790484 5.305732 1.435422 0
M  V30 31 H 1.253668 4.442298 -0.194029 0
M  V30 32 H -0.126582 2.233759 -1.071855 0
M  V30 33 H -1.553263 0.195715 -2.079235 0
M  V30 34 H -3.069201 -1.854481 -3.196769 0
M  V30 35 H -3.614728 -4.249909 -2.921493 0
M  V30 36 H -2.596486 -5.594460 -1.058639 0
M  V30 37 H -1.043464 -4.419934 0.464558 0
M  V30 END ATOM
M  V30 BEGIN BOND
M  V30 1 2 1 2
M  V30 2 1 2 3
M  V30 3 1 3 4
M  V30 4 1 4 5
M  V30 5 2 5 6
M  V30 6 1 6 7
M  V30 7 1 7 8
M  V30 8 2 8 9
M  V30 9 1 9 10
M  V30 10 2 10 11
M  V30 11 1 11 12
M  V30 12 2 12 13
M  V30 13 1 13 14
M  V30 14 1 14 15
M  V30 15 1 15 16
M  V30 16 1 16 17
M  V30 17 1 17 18
M  V30 18 2 18 19
M  V30 19 1 19 20
M  V30 20 2 20 21
M  V30 21 1 21 22
M  V30 22 2 22 23
M  V30 23 1 23 24
M  V30 24 1 6 2
M  V30 25 2 15 7
M  V30 26 2 24 16
M  V30 27 1 24 5
M  V30 28 1 13 8
M  V30 29 1 23 18
M  V30 30 1 3 25
M  V30 31 1 4 26
M  V30 32 1 4 27
M  V30 33 1 9 28
M  V30 34 1 10 29
M  V30 35 1 11 30
M  V30 36 1 12 31
M  V30 37 1 14 32
M  V30 38 1 17 33
M  V30 39 1 19 34
M  V30 40 1 20 35
M  V30 41 1 21 36
M  V30 42 1 22 37
M  V30 END BOND
M  V30 END CTAB
M  END
>  <Dataset>  (302) 
ChEMBL_Kinases

>  <Ligand_Instance>  (302) 
nan

>  <PDB_ID>  (302) 
nan

>  <Standardized_SMILES>  (302) 
O=C1NCc2c1c1c3ccccc3[nH]c1c1[nH]c3ccccc3c21

>  <Name>  (302) 
STAUROSPORINONE

>  <Pocket>  (302) 
nan

>  <ATP_Site>  (302) 
nan

>  <Peripheral>  (302) 
nan

>  <Num_H_Atoms_ProtBoundConf>  (302) 
nan

>  <Num_Resolved_Atoms>  (302) 
nan

>  <Num_Not_Resolved_Atoms>  (302) 
nan

$$$$
CHEMBL1685066
     RDKit          3D

  0  0  0  0  0  0  0  0  0  0999 V3000
M  V30 BEGIN CTAB
M  V30 COUNTS 96 96 0 0 0
M  V30 BEGIN ATOM
M  V30 1 C 1.416082 -3.266175 4.772394 0
M  V30 2 C 1.382375 -4.728454 5.045183 0
M  V30 3 C 2.455663 -5.581762 4.513079 0
M  V30 4 C 2.594421 -5.700792 3.054715 0
M  V30 5 C 2.866374 -4.400882 2.360939 0
M  V30 6 C 3.059069 -4.615439 0.859357 0
M  V30 7 C 3.316534 -3.254166 0.161999 0
M  V30 8 C 4.531450 -2.584417 0.660690 0
M  V30 9 C 5.021906 -1.333555 0.084453 0
M  V30 10 C 4.212207 -0.086777 0.073521 0
M  V30 11 C 2.976661 -0.030472 -0.715090 0
M  V30 12 C 2.211987 1.301248 -0.622283 0
M  V30 13 C 3.023109 2.432710 -1.116087 0
M  V30 14 C 2.415406 3.792772 -1.099368 0
M  V30 15 C 1.244561 4.123101 -1.900946 0
M  V30 16 C -0.054993 3.458716 -1.735318 0
M  V30 17 C -0.676893 3.535889 -0.365726 0
M  V30 18 C -1.997210 2.800704 -0.443856 0
M  V30 19 O -2.724668 2.785189 0.705918 0
M  V30 20 C -2.178305 2.207472 1.810478 0
M  V30 21 C -1.835095 0.760103 1.699211 0 CFG=2
M  V30 22 C -3.025240 -0.134191 1.447409 0
M  V30 23 O -3.680148 0.108739 0.262773 0
M  V30 24 P -4.993131 -0.963007 0.088724 0
M  V30 25 O -4.535150 -2.355661 0.503804 0
M  V30 26 O -6.219805 -0.492626 1.174624 0
M  V30 27 O -5.543248 -1.074883 -1.480495 0
M  V30 28 C -4.615090 -0.623453 -2.415035 0 CFG=1
M  V30 29 C -4.343251 -1.704237 -3.414789 0 CFG=2
M  V30 30 O -3.754555 -2.827227 -2.827597 0
M  V30 31 C -3.368953 -1.207825 -4.469357 0 CFG=1
M  V30 32 O -3.221613 -2.199590 -5.445089 0
M  V30 33 C -3.873342 0.039548 -5.155326 0 CFG=2
M  V30 34 O -2.939001 0.418211 -6.100083 0
M  V30 35 C -4.072136 1.090085 -4.077071 0
M  V30 36 C -5.168940 0.576588 -3.149828 0 CFG=1
M  V30 37 O -6.231046 0.229610 -3.996383 0
M  V30 38 O -1.312060 0.356948 2.946971 0
M  V30 39 C -0.008489 -0.065759 2.718812 0
M  V30 40 H 1.151681 -2.693053 5.739017 0
M  V30 41 H 0.602613 -2.928603 4.090382 0
M  V30 42 H 2.385489 -2.854055 4.473557 0
M  V30 43 H 1.324646 -4.862448 6.163311 0
M  V30 44 H 0.380884 -5.127300 4.700276 0
M  V30 45 H 3.433918 -5.145320 4.930008 0
M  V30 46 H 2.390839 -6.624507 4.966124 0
M  V30 47 H 3.483739 -6.349998 2.838768 0
M  V30 48 H 1.668136 -6.196142 2.634170 0
M  V30 49 H 3.733874 -3.927228 2.829475 0
M  V30 50 H 1.914626 -3.807863 2.432965 0
M  V30 51 H 2.119476 -4.992300 0.457700 0
M  V30 52 H 3.887233 -5.308117 0.669927 0
M  V30 53 H 2.371479 -2.665849 0.398061 0
M  V30 54 H 3.323448 -3.462707 -0.908270 0
M  V30 55 H 5.380961 -3.341815 0.548570 0
M  V30 56 H 4.484459 -2.428513 1.786973 0
M  V30 57 H 5.233709 -1.566863 -1.024989 0
M  V30 58 H 6.072182 -1.084661 0.443092 0
M  V30 59 H 4.885886 0.746734 -0.341994 0
M  V30 60 H 3.956659 0.223328 1.145622 0
M  V30 61 H 2.247876 -0.832147 -0.655378 0
M  V30 62 H 3.311816 -0.057864 -1.815732 0
M  V30 63 H 1.241082 1.203120 -1.120089 0
M  V30 64 H 1.958825 1.400604 0.474191 0
M  V30 65 H 3.976738 2.437568 -0.480243 0
M  V30 66 H 3.444736 2.225874 -2.155559 0
M  V30 67 H 3.252340 4.488372 -1.473129 0
M  V30 68 H 2.332846 4.145971 -0.022190 0
M  V30 69 H 1.544739 3.919672 -2.994563 0
M  V30 70 H 1.148906 5.257772 -1.935979 0
M  V30 71 H -0.120976 2.499666 -2.214186 0
M  V30 72 H -0.780699 4.101342 -2.375124 0
M  V30 73 H -0.063747 3.104361 0.430445 0
M  V30 74 H -0.891696 4.586477 -0.085368 0
M  V30 75 H -2.644788 3.253496 -1.246386 0
M  V30 76 H -1.771265 1.777709 -0.839679 0
M  V30 77 H -1.263340 2.733784 2.172146 0
M  V30 78 H -2.907607 2.307318 2.643770 0
M  V30 79 H -1.021320 0.594668 0.971808 0
M  V30 80 H -3.752691 -0.038260 2.278063 0
M  V30 81 H -2.663609 -1.189426 1.497599 0
M  V30 82 H -6.178391 -1.024236 2.027765 0
M  V30 83 H -3.708319 -0.287940 -1.886304 0
M  V30 84 H -5.289314 -1.956543 -3.929890 0
M  V30 85 H -3.207827 -3.290277 -3.512078 0
M  V30 86 H -2.402159 -0.980399 -4.000860 0
M  V30 87 H -2.903989 -1.815808 -6.297964 0
M  V30 88 H -4.873555 -0.199164 -5.600250 0
M  V30 89 H -3.180813 1.298844 -6.466885 0
M  V30 90 H -3.108998 1.219021 -3.520574 0
M  V30 91 H -4.412720 2.067031 -4.514251 0
M  V30 92 H -5.519055 1.377907 -2.456986 0
M  V30 93 H -6.696602 -0.523824 -3.535688 0
M  V30 94 H 0.594243 0.754611 2.306144 0
M  V30 95 H 0.049563 -0.978038 2.082284 0
M  V30 96 H 0.427459 -0.309419 3.716731 0
M  V30 END ATOM
M  V30 BEGIN BOND
M  V30 1 1 1 2
M  V30 2 1 2 3
M  V30 3 1 3 4
M  V30 4 1 4 5
M  V30 5 1 5 6
M  V30 6 1 6 7
M  V30 7 1 7 8
M  V30 8 1 8 9
M  V30 9 1 9 10
M  V30 10 1 10 11
M  V30 11 1 11 12
M  V30 12 1 12 13
M  V30 13 1 13 14
M  V30 14 1 14 15
M  V30 15 1 15 16
M  V30 16 1 16 17
M  V30 17 1 17 18
M  V30 18 1 18 19
M  V30 19 1 19 20
M  V30 20 1 20 21
M  V30 21 1 21 22
M  V30 22 1 22 23
M  V30 23 1 23 24
M  V30 24 2 24 25
M  V30 25 1 24 26
M  V30 26 1 24 27
M  V30 27 1 27 28
M  V30 28 1 28 29
M  V30 29 1 29 30
M  V30 30 1 29 31
M  V30 31 1 31 32
M  V30 32 1 31 33
M  V30 33 1 33 34
M  V30 34 1 33 35
M  V30 35 1 35 36
M  V30 36 1 36 37
M  V30 37 1 21 38
M  V30 38 1 38 39
M  V30 39 1 36 28
M  V30 40 1 1 40
M  V30 41 1 1 41
M  V30 42 1 1 42
M  V30 43 1 2 43
M  V30 44 1 2 44
M  V30 45 1 3 45
M  V30 46 1 3 46
M  V30 47 1 4 47
M  V30 48 1 4 48
M  V30 49 1 5 49
M  V30 50 1 5 50
M  V30 51 1 6 51
M  V30 52 1 6 52
M  V30 53 1 7 53
M  V30 54 1 7 54
M  V30 55 1 8 55
M  V30 56 1 8 56
M  V30 57 1 9 57
M  V30 58 1 9 58
M  V30 59 1 10 59
M  V30 60 1 10 60
M  V30 61 1 11 61
M  V30 62 1 11 62
M  V30 63 1 12 63
M  V30 64 1 12 64
M  V30 65 1 13 65
M  V30 66 1 13 66
M  V30 67 1 14 67
M  V30 68 1 14 68
M  V30 69 1 15 69
M  V30 70 1 15 70
M  V30 71 1 16 71
M  V30 72 1 16 72
M  V30 73 1 17 73
M  V30 74 1 17 74
M  V30 75 1 18 75
M  V30 76 1 18 76
M  V30 77 1 20 77
M  V30 78 1 20 78
M  V30 79 1 21 79 CFG=3
M  V30 80 1 22 80
M  V30 81 1 22 81
M  V30 82 1 26 82
M  V30 83 1 28 83 CFG=1
M  V30 84 1 29 84 CFG=3
M  V30 85 1 30 85
M  V30 86 1 31 86 CFG=1
M  V30 87 1 32 87
M  V30 88 1 33 88 CFG=3
M  V30 89 1 34 89
M  V30 90 1 35 90
M  V30 91 1 35 91
M  V30 92 1 36 92 CFG=1
M  V30 93 1 37 93
M  V30 94 1 39 94
M  V30 95 1 39 95
M  V30 96 1 39 96
M  V30 END BOND
M  V30 END CTAB
M  END
>  <Dataset>  (303) 
ChEMBL_Kinases

>  <Ligand_Instance>  (303) 
nan

>  <PDB_ID>  (303) 
nan

>  <Standardized_SMILES>  (303) 
CCCCCCCCCCCCCCCCCCOC[C@H](COP(=O)(O)O[C@H]1[C@H](O)[C@@H](O)[C@H](O)C[C@H]1O)OC

>  <Name>  (303) 
nan

>  <Pocket>  (303) 
nan

>  <ATP_Site>  (303) 
nan

>  <Peripheral>  (303) 
nan

>  <Num_H_Atoms_ProtBoundConf>  (303) 
nan

>  <Num_Resolved_Atoms>  (303) 
nan

>  <Num_Not_Resolved_Atoms>  (303) 
nan

$$$$
CHEMBL1685058
     RDKit          3D

  0  0  0  0  0  0  0  0  0  0999 V3000
M  V30 BEGIN CTAB
M  V30 COUNTS 63 64 0 0 0
M  V30 BEGIN ATOM
M  V30 1 C 7.901446 -0.447246 3.106873 0
M  V30 2 C 6.602770 -1.163538 3.368103 0
M  V30 3 C 6.019374 -1.800548 2.118118 0
M  V30 4 C 5.723906 -0.840688 1.041538 0
M  V30 5 C 5.151053 -1.386884 -0.213007 0
M  V30 6 C 3.855007 -2.097335 -0.101368 0
M  V30 7 C 2.713524 -1.303396 0.428836 0
M  V30 8 C 2.343848 -0.097635 -0.355020 0
M  V30 9 C 1.939362 -0.395840 -1.774878 0
M  V30 10 C 0.760900 -1.296996 -1.885890 0
M  V30 11 C -0.487993 -0.771390 -1.244887 0
M  V30 12 C -0.945430 0.539459 -1.835749 0
M  V30 13 C -2.183616 0.994045 -1.150823 0
M  V30 14 C -2.191297 1.793689 -0.028623 0
M  V30 15 C -3.388845 2.184908 0.565052 0
M  V30 16 C -4.616581 1.775303 0.036362 0
M  V30 17 S -5.961687 2.404823 0.955620 0
M  V30 18 O -7.196138 2.509756 0.068038 0
M  V30 19 O -5.694110 3.789185 1.437177 0
M  V30 20 N -6.326485 1.438917 2.306811 0
M  V30 21 C -6.765357 -0.010060 2.238159 0
M  V30 22 N -7.062975 -0.865712 2.992799 0
M  V30 23 N -7.413734 -2.053938 2.633919 0
M  V30 24 C -7.498273 -2.483957 1.549625 0
M  V30 25 S -7.881552 -3.864849 0.546816 0
M  V30 26 N -6.501523 -4.842312 0.251049 0
M  V30 27 O -8.458209 -3.416451 -0.766311 0
M  V30 28 O -8.927793 -4.708818 1.213837 0
M  V30 29 S -6.969751 -0.901250 0.646133 0
M  V30 30 C -4.603824 0.977191 -1.084535 0
M  V30 31 C -3.411510 0.598654 -1.659954 0
M  V30 32 H 7.788573 0.392284 2.388116 0
M  V30 33 H 8.171369 0.041783 4.067270 0
M  V30 34 H 8.745996 -1.130273 2.872522 0
M  V30 35 H 6.798217 -1.923838 4.150863 0
M  V30 36 H 5.909359 -0.421844 3.815631 0
M  V30 37 H 5.164557 -2.396329 2.476385 0
M  V30 38 H 6.775888 -2.559995 1.788197 0
M  V30 39 H 6.664247 -0.318178 0.760939 0
M  V30 40 H 5.075687 -0.028947 1.433202 0
M  V30 41 H 5.859753 -2.064424 -0.733819 0
M  V30 42 H 4.989618 -0.534643 -0.909916 0
M  V30 43 H 3.905853 -3.045787 0.482433 0
M  V30 44 H 3.582521 -2.447953 -1.119985 0
M  V30 45 H 2.850236 -0.981349 1.484225 0
M  V30 46 H 1.827552 -1.973016 0.450224 0
M  V30 47 H 3.131313 0.652042 -0.315100 0
M  V30 48 H 1.459972 0.356965 0.151168 0
M  V30 49 H 2.793457 -0.946404 -2.251901 0
M  V30 50 H 1.833397 0.522226 -2.381124 0
M  V30 51 H 0.988566 -2.263340 -1.389270 0
M  V30 52 H 0.583404 -1.496416 -2.946861 0
M  V30 53 H -0.393110 -0.668651 -0.151307 0
M  V30 54 H -1.297586 -1.506743 -1.431937 0
M  V30 55 H -0.185997 1.338042 -1.764047 0
M  V30 56 H -1.194932 0.439322 -2.911295 0
M  V30 57 H -1.210495 2.069220 0.321662 0
M  V30 58 H -3.201708 2.811572 1.437751 0
M  V30 59 H -6.292475 1.717087 3.286022 0
M  V30 60 H -6.525133 -5.314941 -0.684745 0
M  V30 61 H -5.661716 -4.191926 0.204444 0
M  V30 62 H -5.588922 0.721784 -1.416030 0
M  V30 63 H -3.527430 -0.036985 -2.547242 0
M  V30 END ATOM
M  V30 BEGIN BOND
M  V30 1 1 1 2
M  V30 2 1 2 3
M  V30 3 1 3 4
M  V30 4 1 4 5
M  V30 5 1 5 6
M  V30 6 1 6 7
M  V30 7 1 7 8
M  V30 8 1 8 9
M  V30 9 1 9 10
M  V30 10 1 10 11
M  V30 11 1 11 12
M  V30 12 1 12 13
M  V30 13 2 13 14
M  V30 14 1 14 15
M  V30 15 2 15 16
M  V30 16 1 16 17
M  V30 17 2 17 18
M  V30 18 2 17 19
M  V30 19 1 17 20
M  V30 20 1 20 21
M  V30 21 2 21 22
M  V30 22 1 22 23
M  V30 23 2 23 24
M  V30 24 1 24 25
M  V30 25 1 25 26
M  V30 26 2 25 27
M  V30 27 2 25 28
M  V30 28 1 24 29
M  V30 29 1 16 30
M  V30 30 2 30 31
M  V30 31 1 31 13
M  V30 32 1 29 21
M  V30 33 1 1 32
M  V30 34 1 1 33
M  V30 35 1 1 34
M  V30 36 1 2 35
M  V30 37 1 2 36
M  V30 38 1 3 37
M  V30 39 1 3 38
M  V30 40 1 4 39
M  V30 41 1 4 40
M  V30 42 1 5 41
M  V30 43 1 5 42
M  V30 44 1 6 43
M  V30 45 1 6 44
M  V30 46 1 7 45
M  V30 47 1 7 46
M  V30 48 1 8 47
M  V30 49 1 8 48
M  V30 50 1 9 49
M  V30 51 1 9 50
M  V30 52 1 10 51
M  V30 53 1 10 52
M  V30 54 1 11 53
M  V30 55 1 11 54
M  V30 56 1 12 55
M  V30 57 1 12 56
M  V30 58 1 14 57
M  V30 59 1 15 58
M  V30 60 1 20 59
M  V30 61 1 26 60
M  V30 62 1 26 61
M  V30 63 1 30 62
M  V30 64 1 31 63
M  V30 END BOND
M  V30 END CTAB
M  END
>  <Dataset>  (304) 
ChEMBL_Kinases

>  <Ligand_Instance>  (304) 
nan

>  <PDB_ID>  (304) 
nan

>  <Standardized_SMILES>  (304) 
CCCCCCCCCCCCc1ccc(S(=O)(=O)Nc2nnc(S(N)(=O)=O)s2)cc1

>  <Name>  (304) 
nan

>  <Pocket>  (304) 
nan

>  <ATP_Site>  (304) 
nan

>  <Peripheral>  (304) 
nan

>  <Num_H_Atoms_ProtBoundConf>  (304) 
nan

>  <Num_Resolved_Atoms>  (304) 
nan

>  <Num_Not_Resolved_Atoms>  (304) 
nan

$$$$
CHEMBL1685055
     RDKit          3D

  0  0  0  0  0  0  0  0  0  0999 V3000
M  V30 BEGIN CTAB
M  V30 COUNTS 70 71 0 0 0
M  V30 BEGIN ATOM
M  V30 1 C 6.969864 2.002385 3.333278 0
M  V30 2 C 6.685765 1.149988 2.107525 0
M  V30 3 C 6.843804 -0.301911 2.427144 0
M  V30 4 C 6.571687 -1.185170 1.234542 0
M  V30 5 C 5.165705 -1.003666 0.711863 0
M  V30 6 C 5.000231 -1.925633 -0.467248 0
M  V30 7 C 3.642432 -1.870172 -1.107962 0
M  V30 8 C 3.300024 -0.483711 -1.634026 0
M  V30 9 C 1.922261 -0.479060 -2.276581 0
M  V30 10 C 1.513487 0.831147 -2.814713 0
M  V30 11 C 1.416324 1.971248 -1.873190 0
M  V30 12 C 0.460617 1.852855 -0.755107 0
M  V30 13 C -0.959142 1.661519 -1.117795 0
M  V30 14 C -1.605496 0.451149 -1.275647 0
M  V30 15 C -2.938431 0.373043 -1.625691 0
M  V30 16 C -3.707810 1.499243 -1.839622 0
M  V30 17 S -5.376984 1.261034 -2.275531 0
M  V30 18 O -5.818563 2.268027 -3.318813 0
M  V30 19 O -5.542560 -0.086603 -2.926039 0
M  V30 20 N -6.472525 1.347860 -0.983350 0
M  V30 21 C -6.608926 0.582547 0.182100 0
M  V30 22 N -7.262584 0.441731 1.197118 0
M  V30 23 N -7.051153 -0.450033 2.093689 0
M  V30 24 C -6.190383 -1.286912 2.093180 0
M  V30 25 C -5.632947 -2.411530 2.852183 0
M  V30 26 C -6.211275 -3.738907 2.460398 0
M  V30 27 O -7.080469 -4.044428 1.600029 0
M  V30 28 O -5.657213 -4.754143 3.201240 0
M  V30 29 C -5.943077 -6.115158 3.117903 0
M  V30 30 C -7.366777 -6.488319 3.386857 0
M  V30 31 S -5.364223 -0.830306 0.446350 0
M  V30 32 C -3.090928 2.732829 -1.689467 0
M  V30 33 C -1.747141 2.777677 -1.336246 0
M  V30 34 H 7.712180 1.524189 4.005490 0
M  V30 35 H 7.392771 2.966788 3.000569 0
M  V30 36 H 5.995902 2.170295 3.836228 0
M  V30 37 H 7.460890 1.418607 1.348052 0
M  V30 38 H 5.707788 1.432808 1.713782 0
M  V30 39 H 6.091071 -0.592101 3.196528 0
M  V30 40 H 7.856956 -0.477254 2.824055 0
M  V30 41 H 7.272427 -0.967773 0.401252 0
M  V30 42 H 6.635930 -2.248686 1.565165 0
M  V30 43 H 4.477381 -1.232488 1.526203 0
M  V30 44 H 4.976792 0.054196 0.397054 0
M  V30 45 H 5.830654 -1.787511 -1.193164 0
M  V30 46 H 5.128950 -2.969246 -0.086800 0
M  V30 47 H 2.896363 -2.210462 -0.361079 0
M  V30 48 H 3.657888 -2.613575 -1.934891 0
M  V30 49 H 4.070136 -0.180115 -2.351473 0
M  V30 50 H 3.311878 0.194898 -0.754306 0
M  V30 51 H 2.022734 -1.179625 -3.151944 0
M  V30 52 H 1.258754 -0.986503 -1.580773 0
M  V30 53 H 0.493975 0.731373 -3.293354 0
M  V30 54 H 2.174123 1.043394 -3.691507 0
M  V30 55 H 1.331512 2.953562 -2.392253 0
M  V30 56 H 2.438777 2.049756 -1.388313 0
M  V30 57 H 0.834911 1.049866 -0.064780 0
M  V30 58 H 0.499081 2.783262 -0.146552 0
M  V30 59 H -1.014848 -0.439448 -1.109373 0
M  V30 60 H -3.317683 -0.640557 -1.718564 0
M  V30 61 H -7.241077 2.084931 -0.950421 0
M  V30 62 H -4.538475 -2.474196 2.675276 0
M  V30 63 H -5.815432 -2.228752 3.923682 0
M  V30 64 H -5.323639 -6.625873 3.905451 0
M  V30 65 H -5.602085 -6.551554 2.139703 0
M  V30 66 H -7.460521 -7.491474 3.887101 0
M  V30 67 H -7.853535 -5.693496 3.995330 0
M  V30 68 H -7.917608 -6.620992 2.412730 0
M  V30 69 H -3.694291 3.602067 -1.857741 0
M  V30 70 H -1.332456 3.768742 -1.236229 0
M  V30 END ATOM
M  V30 BEGIN BOND
M  V30 1 1 1 2
M  V30 2 1 2 3
M  V30 3 1 3 4
M  V30 4 1 4 5
M  V30 5 1 5 6
M  V30 6 1 6 7
M  V30 7 1 7 8
M  V30 8 1 8 9
M  V30 9 1 9 10
M  V30 10 1 10 11
M  V30 11 1 11 12
M  V30 12 1 12 13
M  V30 13 2 13 14
M  V30 14 1 14 15
M  V30 15 2 15 16
M  V30 16 1 16 17
M  V30 17 2 17 18
M  V30 18 2 17 19
M  V30 19 1 17 20
M  V30 20 1 20 21
M  V30 21 2 21 22
M  V30 22 1 22 23
M  V30 23 2 23 24
M  V30 24 1 24 25
M  V30 25 1 25 26
M  V30 26 2 26 27
M  V30 27 1 26 28
M  V30 28 1 28 29
M  V30 29 1 29 30
M  V30 30 1 24 31
M  V30 31 1 16 32
M  V30 32 2 32 33
M  V30 33 1 33 13
M  V30 34 1 31 21
M  V30 35 1 1 34
M  V30 36 1 1 35
M  V30 37 1 1 36
M  V30 38 1 2 37
M  V30 39 1 2 38
M  V30 40 1 3 39
M  V30 41 1 3 40
M  V30 42 1 4 41
M  V30 43 1 4 42
M  V30 44 1 5 43
M  V30 45 1 5 44
M  V30 46 1 6 45
M  V30 47 1 6 46
M  V30 48 1 7 47
M  V30 49 1 7 48
M  V30 50 1 8 49
M  V30 51 1 8 50
M  V30 52 1 9 51
M  V30 53 1 9 52
M  V30 54 1 10 53
M  V30 55 1 10 54
M  V30 56 1 11 55
M  V30 57 1 11 56
M  V30 58 1 12 57
M  V30 59 1 12 58
M  V30 60 1 14 59
M  V30 61 1 15 60
M  V30 62 1 20 61
M  V30 63 1 25 62
M  V30 64 1 25 63
M  V30 65 1 29 64
M  V30 66 1 29 65
M  V30 67 1 30 66
M  V30 68 1 30 67
M  V30 69 1 30 68
M  V30 70 1 32 69
M  V30 71 1 33 70
M  V30 END BOND
M  V30 END CTAB
M  END
>  <Dataset>  (305) 
ChEMBL_Kinases

>  <Ligand_Instance>  (305) 
nan

>  <PDB_ID>  (305) 
nan

>  <Standardized_SMILES>  (305) 
CCCCCCCCCCCCc1ccc(S(=O)(=O)Nc2nnc(CC(=O)OCC)s2)cc1

>  <Name>  (305) 
nan

>  <Pocket>  (305) 
nan

>  <ATP_Site>  (305) 
nan

>  <Peripheral>  (305) 
nan

>  <Num_H_Atoms_ProtBoundConf>  (305) 
nan

>  <Num_Resolved_Atoms>  (305) 
nan

>  <Num_Not_Resolved_Atoms>  (305) 
nan

$$$$
CHEMBL494165
     RDKit          3D

  0  0  0  0  0  0  0  0  0  0999 V3000
M  V30 BEGIN CTAB
M  V30 COUNTS 49 52 0 0 0
M  V30 BEGIN ATOM
M  V30 1 C 0.933808 -3.623908 4.847346 0
M  V30 2 O 1.198588 -4.006558 3.506229 0
M  V30 3 C 1.424067 -3.002605 2.586381 0
M  V30 4 C 1.385042 -1.686057 2.994487 0
M  V30 5 C 1.603420 -0.650331 2.114143 0
M  V30 6 C 1.873122 -0.856771 0.778903 0
M  V30 7 C 2.121651 0.106189 -0.267304 0
M  V30 8 C 3.243431 -0.182418 -1.014477 0
M  V30 9 N 3.661332 0.590424 -2.027768 0
M  V30 10 C 2.950837 1.690319 -2.319513 0
M  V30 11 C 1.826362 1.994204 -1.582620 0
M  V30 12 C 1.158341 3.183609 -1.958909 0
M  V30 13 N 0.593243 4.170736 -2.253668 0
M  V30 14 C 1.360876 1.221983 -0.529425 0
M  V30 15 N 0.214378 1.540642 0.216311 0
M  V30 16 C -1.119080 1.139710 0.322756 0
M  V30 17 C -1.487342 0.708142 1.605510 0
M  V30 18 C -2.761670 0.262051 1.899215 0
M  V30 19 C -3.481549 -0.218518 2.968104 0
M  V30 20 C -4.779870 -0.510084 2.623068 0
M  V30 21 N -4.884617 -0.214337 1.333582 0
M  V30 22 C -3.707505 0.243151 0.883188 0
M  V30 23 C -3.404203 0.654645 -0.393666 0
M  V30 24 C -2.118482 1.088154 -0.625669 0
M  V30 25 C -1.749136 1.531532 -1.976125 0
M  V30 26 C 1.901244 -2.210893 0.417124 0
M  V30 27 C 1.689089 -3.280615 1.261703 0
M  V30 28 O 1.741751 -4.577993 0.790882 0
M  V30 29 C 2.016202 -4.816765 -0.572509 0
M  V30 30 H 0.816163 -4.513732 5.506778 0
M  V30 31 H 0.081205 -2.920587 4.924445 0
M  V30 32 H 1.836199 -3.055118 5.199968 0
M  V30 33 H 1.181923 -1.394650 4.022978 0
M  V30 34 H 1.581063 0.401935 2.397370 0
M  V30 35 H 3.891929 -1.054705 -0.857534 0
M  V30 36 H 3.294150 2.318277 -3.145719 0
M  V30 37 H 0.497645 2.310152 0.868514 0
M  V30 38 H -0.890531 0.658473 2.523698 0
M  V30 39 H -3.034959 -0.340361 3.964474 0
M  V30 40 H -5.564629 -0.899649 3.257469 0
M  V30 41 H -5.779307 -0.338108 0.791000 0
M  V30 42 H -4.109979 0.656568 -1.214137 0
M  V30 43 H -1.738962 2.639246 -2.068536 0
M  V30 44 H -0.803812 1.054631 -2.333138 0
M  V30 45 H -2.519913 1.192326 -2.697519 0
M  V30 46 H 2.109431 -2.474958 -0.631028 0
M  V30 47 H 1.989145 -5.907594 -0.791867 0
M  V30 48 H 1.310314 -4.253671 -1.230354 0
M  V30 49 H 3.042494 -4.473567 -0.868541 0
M  V30 END ATOM
M  V30 BEGIN BOND
M  V30 1 1 1 2
M  V30 2 1 2 3
M  V30 3 2 3 4
M  V30 4 1 4 5
M  V30 5 2 5 6
M  V30 6 1 6 7
M  V30 7 2 7 8
M  V30 8 1 8 9
M  V30 9 2 9 10
M  V30 10 1 10 11
M  V30 11 1 11 12
M  V30 12 3 12 13
M  V30 13 2 11 14
M  V30 14 1 14 15
M  V30 15 1 15 16
M  V30 16 2 16 17
M  V30 17 1 17 18
M  V30 18 1 18 19
M  V30 19 2 19 20
M  V30 20 1 20 21
M  V30 21 1 21 22
M  V30 22 1 22 23
M  V30 23 2 23 24
M  V30 24 1 24 25
M  V30 25 1 6 26
M  V30 26 2 26 27
M  V30 27 1 27 28
M  V30 28 1 28 29
M  V30 29 1 27 3
M  V30 30 1 14 7
M  V30 31 1 24 16
M  V30 32 2 22 18
M  V30 33 1 1 30
M  V30 34 1 1 31
M  V30 35 1 1 32
M  V30 36 1 4 33
M  V30 37 1 5 34
M  V30 38 1 8 35
M  V30 39 1 10 36
M  V30 40 1 15 37
M  V30 41 1 17 38
M  V30 42 1 19 39
M  V30 43 1 20 40
M  V30 44 1 21 41
M  V30 45 1 23 42
M  V30 46 1 25 43
M  V30 47 1 25 44
M  V30 48 1 25 45
M  V30 49 1 26 46
M  V30 50 1 29 47
M  V30 51 1 29 48
M  V30 52 1 29 49
M  V30 END BOND
M  V30 END CTAB
M  END
>  <Dataset>  (306) 
ChEMBL_Kinases

>  <Ligand_Instance>  (306) 
nan

>  <PDB_ID>  (306) 
nan

>  <Standardized_SMILES>  (306) 
COc1ccc(-c2cncc(C#N)c2Nc2cc3cc[nH]c3cc2C)cc1OC

>  <Name>  (306) 
nan

>  <Pocket>  (306) 
nan

>  <ATP_Site>  (306) 
nan

>  <Peripheral>  (306) 
nan

>  <Num_H_Atoms_ProtBoundConf>  (306) 
nan

>  <Num_Resolved_Atoms>  (306) 
nan

>  <Num_Not_Resolved_Atoms>  (306) 
nan

$$$$
CHEMBL478649
     RDKit          3D

  0  0  0  0  0  0  0  0  0  0999 V3000
M  V30 BEGIN CTAB
M  V30 COUNTS 50 53 0 0 0
M  V30 BEGIN ATOM
M  V30 1 C 0.944348 1.090636 4.378133 0
M  V30 2 C 1.949963 1.073387 3.306032 0
M  V30 3 C 3.221101 1.516204 3.601165 0
M  V30 4 C 4.188623 1.506062 2.597354 0
M  V30 5 C 3.856524 1.055187 1.334197 0
M  V30 6 C 4.911088 1.068147 0.324986 0
M  V30 7 O 6.039993 1.478368 0.656345 0
M  V30 8 N 4.726763 0.642471 -1.006928 0
M  V30 9 C 5.791243 0.671141 -1.970011 0
M  V30 10 C 5.779384 -0.042552 -3.231640 0
M  V30 11 C 5.383825 1.404194 -3.289620 0
M  V30 12 C 2.580518 0.626862 1.095160 0
M  V30 13 C 1.578146 0.615861 2.059010 0
M  V30 14 C 0.244759 0.141603 1.709631 0
M  V30 15 C -0.961316 0.693669 1.996836 0
M  V30 16 C -2.135657 0.079602 1.570690 0
M  V30 17 C -2.102455 -1.096313 0.851338 0
M  V30 18 C -3.378635 -1.672767 0.444052 0
M  V30 19 O -4.427715 -1.063507 0.772246 0
M  V30 20 N -3.495606 -2.878956 -0.299247 0
M  V30 21 C -4.791911 -3.367569 -0.653583 0
M  V30 22 C -5.684225 -3.661941 0.536996 0
M  V30 23 C -7.065492 -4.179518 0.267684 0
M  V30 24 C -6.838465 -2.751462 0.778533 0
M  V30 25 C -0.884982 -1.668127 0.552450 0
M  V30 26 C 0.291871 -1.045819 0.983788 0
M  V30 27 H 1.397241 0.881773 5.383361 0
M  V30 28 H 0.419412 2.065814 4.483961 0
M  V30 29 H 0.159294 0.318378 4.264697 0
M  V30 30 H 3.472340 1.866139 4.587917 0
M  V30 31 H 5.176098 1.857235 2.851837 0
M  V30 32 H 3.790911 0.294259 -1.310959 0
M  V30 33 H 6.750309 1.051909 -1.562627 0
M  V30 34 H 6.784662 -0.230187 -3.696537 0
M  V30 35 H 5.056905 -0.795477 -3.536081 0
M  V30 36 H 6.082052 2.155039 -3.686030 0
M  V30 37 H 4.322226 1.591165 -3.451567 0
M  V30 38 H 2.324829 0.275653 0.108347 0
M  V30 39 H -0.923196 1.599775 2.552863 0
M  V30 40 H -3.049484 0.582979 1.840477 0
M  V30 41 H -2.635404 -3.393752 -0.577713 0
M  V30 42 H -4.687317 -4.339672 -1.207731 0
M  V30 43 H -5.348866 -2.712212 -1.347524 0
M  V30 44 H -5.156520 -4.037627 1.429665 0
M  V30 45 H -7.553385 -4.888976 0.959260 0
M  V30 46 H -7.307559 -4.334436 -0.791758 0
M  V30 47 H -7.145338 -2.537507 1.818146 0
M  V30 48 H -7.107208 -1.979032 0.006180 0
M  V30 49 H -0.849185 -2.590678 -0.011518 0
M  V30 50 H 1.207013 -1.576866 0.697002 0
M  V30 END ATOM
M  V30 BEGIN BOND
M  V30 1 1 1 2
M  V30 2 2 2 3
M  V30 3 1 3 4
M  V30 4 2 4 5
M  V30 5 1 5 6
M  V30 6 2 6 7
M  V30 7 1 6 8
M  V30 8 1 8 9
M  V30 9 1 9 10
M  V30 10 1 10 11
M  V30 11 1 5 12
M  V30 12 2 12 13
M  V30 13 1 13 14
M  V30 14 2 14 15
M  V30 15 1 15 16
M  V30 16 2 16 17
M  V30 17 1 17 18
M  V30 18 2 18 19
M  V30 19 1 18 20
M  V30 20 1 20 21
M  V30 21 1 21 22
M  V30 22 1 22 23
M  V30 23 1 23 24
M  V30 24 1 17 25
M  V30 25 2 25 26
M  V30 26 1 13 2
M  V30 27 1 26 14
M  V30 28 1 11 9
M  V30 29 1 24 22
M  V30 30 1 1 27
M  V30 31 1 1 28
M  V30 32 1 1 29
M  V30 33 1 3 30
M  V30 34 1 4 31
M  V30 35 1 8 32
M  V30 36 1 9 33
M  V30 37 1 10 34
M  V30 38 1 10 35
M  V30 39 1 11 36
M  V30 40 1 11 37
M  V30 41 1 12 38
M  V30 42 1 15 39
M  V30 43 1 16 40
M  V30 44 1 20 41
M  V30 45 1 21 42
M  V30 46 1 21 43
M  V30 47 1 22 44
M  V30 48 1 23 45
M  V30 49 1 23 46
M  V30 50 1 24 47
M  V30 51 1 24 48
M  V30 52 1 25 49
M  V30 53 1 26 50
M  V30 END BOND
M  V30 END CTAB
M  END
>  <Dataset>  (307) 
ChEMBL_Kinases

>  <Ligand_Instance>  (307) 
nan

>  <PDB_ID>  (307) 
nan

>  <Standardized_SMILES>  (307) 
Cc1ccc(C(=O)NC2CC2)cc1-c1ccc(C(=O)NCC2CC2)cc1

>  <Name>  (307) 
nan

>  <Pocket>  (307) 
nan

>  <ATP_Site>  (307) 
nan

>  <Peripheral>  (307) 
nan

>  <Num_H_Atoms_ProtBoundConf>  (307) 
nan

>  <Num_Resolved_Atoms>  (307) 
nan

>  <Num_Not_Resolved_Atoms>  (307) 
nan

$$$$
CHEMBL4786529
     RDKit          3D

  0  0  0  0  0  0  0  0  0  0999 V3000
M  V30 BEGIN CTAB
M  V30 COUNTS 57 62 0 0 0
M  V30 BEGIN ATOM
M  V30 1 C 2.833272 -7.238502 4.548251 0
M  V30 2 C 2.705521 -6.678360 3.189454 0
M  V30 3 C 2.669844 -5.319424 2.955633 0
M  V30 4 C 2.549218 -4.737944 1.682739 0
M  V30 5 C 2.542427 -3.286769 1.687441 0
M  V30 6 C 3.594125 -2.611389 2.317884 0
M  V30 7 N 3.368972 -1.272885 2.232366 0
M  V30 8 C 2.210884 -1.098077 1.569739 0
M  V30 9 C 1.516076 0.044784 1.221506 0
M  V30 10 C 0.315303 -0.019621 0.542734 0
M  V30 11 C -0.483930 1.134674 0.135017 0
M  V30 12 C -1.243418 1.041416 -1.014557 0
M  V30 13 C -2.013886 2.104922 -1.440022 0
M  V30 14 C -2.074658 3.302971 -0.760950 0
M  V30 15 N -2.846329 4.431538 -1.149876 0
M  V30 16 C -2.963304 5.682551 -0.452370 0
M  V30 17 C -4.381919 6.149316 -0.289172 0
M  V30 18 N -5.342356 5.111993 -0.616268 0
M  V30 19 C -5.120056 4.770852 -2.008407 0
M  V30 20 C -3.661171 4.557171 -2.313002 0
M  V30 21 C -1.310346 3.377598 0.383645 0
M  V30 22 C -0.532893 2.328576 0.828394 0
M  V30 23 C -0.124862 -1.295557 0.246775 0
M  V30 24 C 0.565232 -2.435319 0.591824 0
M  V30 25 N 1.729036 -2.312190 1.251138 0
M  V30 26 C 2.469433 -5.654454 0.660721 0
M  V30 27 C 2.370356 -5.095103 -0.581844 0
M  V30 28 C 2.295062 -5.887052 -1.702896 0
M  V30 29 F 2.194142 -5.449817 -2.978579 0
M  V30 30 C 2.324103 -7.259826 -1.524514 0
M  V30 31 C 2.427038 -7.814983 -0.251109 0
M  V30 32 F 2.459489 -9.166910 -0.027066 0
M  V30 33 C 2.504166 -7.012090 0.888855 0
M  V30 34 N 2.620069 -7.508345 2.134416 0
M  V30 35 H 2.127482 -8.093860 4.658176 0
M  V30 36 H 2.586805 -6.496450 5.337766 0
M  V30 37 H 3.852932 -7.584644 4.756288 0
M  V30 38 H 2.745046 -4.705191 3.866791 0
M  V30 39 H 4.487776 -2.924548 2.823870 0
M  V30 40 H 1.886940 1.037686 1.467872 0
M  V30 41 H -1.245654 0.129926 -1.600788 0
M  V30 42 H -2.586007 1.980467 -2.339908 0
M  V30 43 H -2.465110 6.455991 -1.097882 0
M  V30 44 H -2.519684 5.674871 0.566352 0
M  V30 45 H -4.649134 7.018489 -0.924795 0
M  V30 46 H -4.622308 6.460572 0.750528 0
M  V30 47 H -6.290623 5.546504 -0.558613 0
M  V30 48 H -5.468997 5.618551 -2.629336 0
M  V30 49 H -5.730226 3.877707 -2.249237 0
M  V30 50 H -3.247865 5.377547 -2.951856 0
M  V30 51 H -3.597244 3.619601 -2.898974 0
M  V30 52 H -1.226767 4.218833 1.040015 0
M  V30 53 H 0.084516 2.335199 1.718719 0
M  V30 54 H -1.056193 -1.440967 -0.282747 0
M  V30 55 H 0.195004 -3.440019 0.347390 0
M  V30 56 H 2.362482 -4.038966 -0.769229 0
M  V30 57 H 2.274203 -8.024795 -2.297210 0
M  V30 END ATOM
M  V30 BEGIN BOND
M  V30 1 1 1 2
M  V30 2 2 2 3
M  V30 3 1 3 4
M  V30 4 1 4 5
M  V30 5 2 5 6
M  V30 6 1 6 7
M  V30 7 2 7 8
M  V30 8 1 8 9
M  V30 9 2 9 10
M  V30 10 1 10 11
M  V30 11 2 11 12
M  V30 12 1 12 13
M  V30 13 2 13 14
M  V30 14 1 14 15
M  V30 15 1 15 16
M  V30 16 1 16 17
M  V30 17 1 17 18
M  V30 18 1 18 19
M  V30 19 1 19 20
M  V30 20 1 14 21
M  V30 21 2 21 22
M  V30 22 1 10 23
M  V30 23 2 23 24
M  V30 24 1 24 25
M  V30 25 2 4 26
M  V30 26 1 26 27
M  V30 27 2 27 28
M  V30 28 1 28 29
M  V30 29 1 28 30
M  V30 30 2 30 31
M  V30 31 1 31 32
M  V30 32 1 31 33
M  V30 33 2 33 34
M  V30 34 1 34 2
M  V30 35 1 25 5
M  V30 36 1 33 26
M  V30 37 1 25 8
M  V30 38 1 22 11
M  V30 39 1 20 15
M  V30 40 1 1 35
M  V30 41 1 1 36
M  V30 42 1 1 37
M  V30 43 1 3 38
M  V30 44 1 6 39
M  V30 45 1 9 40
M  V30 46 1 12 41
M  V30 47 1 13 42
M  V30 48 1 16 43
M  V30 49 1 16 44
M  V30 50 1 17 45
M  V30 51 1 17 46
M  V30 52 1 18 47
M  V30 53 1 19 48
M  V30 54 1 19 49
M  V30 55 1 20 50
M  V30 56 1 20 51
M  V30 57 1 21 52
M  V30 58 1 22 53
M  V30 59 1 23 54
M  V30 60 1 24 55
M  V30 61 1 27 56
M  V30 62 1 30 57
M  V30 END BOND
M  V30 END CTAB
M  END
>  <Dataset>  (308) 
ChEMBL_Kinases

>  <Ligand_Instance>  (308) 
nan

>  <PDB_ID>  (308) 
nan

>  <Standardized_SMILES>  (308) 
Cc1cc(-c2cnc3cc(-c4ccc(N5CCNCC5)cc4)ccn23)c2cc(F)cc(F)c2n1

>  <Name>  (308) 
nan

>  <Pocket>  (308) 
nan

>  <ATP_Site>  (308) 
nan

>  <Peripheral>  (308) 
nan

>  <Num_H_Atoms_ProtBoundConf>  (308) 
nan

>  <Num_Resolved_Atoms>  (308) 
nan

>  <Num_Not_Resolved_Atoms>  (308) 
nan

$$$$
CHEMBL4786599
     RDKit          3D

  0  0  0  0  0  0  0  0  0  0999 V3000
M  V30 BEGIN CTAB
M  V30 COUNTS 62 65 0 0 0
M  V30 BEGIN ATOM
M  V30 1 C 3.699320 -5.965314 -0.443618 0
M  V30 2 C 3.463973 -4.524479 -0.753469 0
M  V30 3 N 2.861389 -3.622443 0.026371 0
M  V30 4 C 2.814077 -2.390862 -0.563039 0
M  V30 5 C 2.159413 -1.293458 0.120470 0
M  V30 6 C 2.597842 -0.106998 0.490167 0
M  V30 7 C 3.935384 0.353182 0.265610 0
M  V30 8 O 4.854885 -0.290488 -0.274984 0
M  V30 9 N 3.997483 1.664208 0.777628 0
M  V30 10 C 2.715625 1.988851 1.304074 0
M  V30 11 C 2.239196 3.144725 1.919649 0
M  V30 12 C 0.919958 3.241465 2.365248 0
M  V30 13 C 0.039948 2.191141 2.210282 0
M  V30 14 C -1.327575 2.341310 2.693781 0
M  V30 15 O -1.642887 3.403625 3.243666 0
M  V30 16 N -2.287170 1.303391 2.545171 0
M  V30 17 C -3.675708 1.377743 3.003519 0 CFG=2
M  V30 18 C -3.885576 0.180505 3.907429 0
M  V30 19 C -4.518148 1.178028 1.738429 0
M  V30 20 C -5.960996 1.224401 2.016839 0
M  V30 21 C -6.670093 2.407572 1.971146 0
M  V30 22 C -8.035587 2.408022 2.241243 0
M  V30 23 C -8.723512 1.239904 2.560852 0
M  V30 24 F -10.042178 1.345911 2.805169 0
M  V30 25 C -7.969360 0.072264 2.595133 0
M  V30 26 C -6.631895 0.046135 2.334701 0
M  V30 27 C 0.532206 1.058198 1.599144 0
M  V30 28 C 1.830397 0.940657 1.151633 0
M  V30 29 C 3.435196 -2.599332 -1.775259 0
M  V30 30 C 3.603150 -1.555619 -2.815788 0
M  V30 31 C 3.848557 -3.904061 -1.923360 0
M  V30 32 N 4.520753 -4.429447 -3.063574 0
M  V30 33 C 3.660304 -4.963302 -4.088084 0
M  V30 34 O 2.410539 -4.983338 -4.020227 0
M  V30 35 C 4.098757 -5.572898 -5.382102 0
M  V30 36 Cl 5.851703 -5.566999 -5.537636 0
M  V30 37 H 4.374871 -6.408243 -1.182259 0
M  V30 38 H 2.714465 -6.485690 -0.421654 0
M  V30 39 H 4.104230 -6.059588 0.606410 0
M  V30 40 H 2.486362 -3.900844 0.981959 0
M  V30 41 H 1.103950 -1.501846 0.368546 0
M  V30 42 H 4.872408 2.234349 0.739190 0
M  V30 43 H 2.952824 3.971587 2.035370 0
M  V30 44 H 0.630941 4.189596 2.838769 0
M  V30 45 H -2.056038 0.395679 2.086423 0
M  V30 46 H -3.908310 2.325039 3.490766 0
M  V30 47 H -3.651397 -0.726083 3.278660 0
M  V30 48 H -4.901799 0.112185 4.307670 0
M  V30 49 H -3.130933 0.261779 4.732964 0
M  V30 50 H -4.178213 1.975915 1.046825 0
M  V30 51 H -4.278107 0.224305 1.249015 0
M  V30 52 H -6.128288 3.321882 1.720122 0
M  V30 53 H -8.547431 3.377458 2.190156 0
M  V30 54 H -8.560608 -0.818413 2.851997 0
M  V30 55 H -6.165220 -0.919179 2.393850 0
M  V30 56 H -0.128729 0.214557 1.460498 0
M  V30 57 H 3.057391 -0.630334 -2.543012 0
M  V30 58 H 4.697837 -1.336928 -2.990608 0
M  V30 59 H 3.241082 -1.897723 -3.810621 0
M  V30 60 H 5.540368 -4.490996 -3.278922 0
M  V30 61 H 3.691395 -4.990882 -6.231781 0
M  V30 62 H 3.646396 -6.602018 -5.482841 0
M  V30 END ATOM
M  V30 BEGIN BOND
M  V30 1 1 1 2
M  V30 2 1 2 3
M  V30 3 1 3 4
M  V30 4 1 4 5
M  V30 5 2 5 6
M  V30 6 1 6 7
M  V30 7 2 7 8
M  V30 8 1 7 9
M  V30 9 1 9 10
M  V30 10 2 10 11
M  V30 11 1 11 12
M  V30 12 2 12 13
M  V30 13 1 13 14
M  V30 14 2 14 15
M  V30 15 1 14 16
M  V30 16 1 16 17
M  V30 17 1 17 18
M  V30 18 1 17 19
M  V30 19 1 19 20
M  V30 20 2 20 21
M  V30 21 1 21 22
M  V30 22 2 22 23
M  V30 23 1 23 24
M  V30 24 1 23 25
M  V30 25 2 25 26
M  V30 26 1 13 27
M  V30 27 2 27 28
M  V30 28 2 4 29
M  V30 29 1 29 30
M  V30 30 1 29 31
M  V30 31 1 31 32
M  V30 32 1 32 33
M  V30 33 2 33 34
M  V30 34 1 33 35
M  V30 35 1 35 36
M  V30 36 2 31 2
M  V30 37 1 28 6
M  V30 38 1 28 10
M  V30 39 1 26 20
M  V30 40 1 1 37
M  V30 41 1 1 38
M  V30 42 1 1 39
M  V30 43 1 3 40
M  V30 44 1 5 41
M  V30 45 1 9 42
M  V30 46 1 11 43
M  V30 47 1 12 44
M  V30 48 1 16 45
M  V30 49 1 17 46 CFG=1
M  V30 50 1 18 47
M  V30 51 1 18 48
M  V30 52 1 18 49
M  V30 53 1 19 50
M  V30 54 1 19 51
M  V30 55 1 21 52
M  V30 56 1 22 53
M  V30 57 1 25 54
M  V30 58 1 26 55
M  V30 59 1 27 56
M  V30 60 1 30 57
M  V30 61 1 30 58
M  V30 62 1 30 59
M  V30 63 1 32 60
M  V30 64 1 35 61
M  V30 65 1 35 62
M  V30 END BOND
M  V30 END CTAB
M  END
>  <Dataset>  (309) 
ChEMBL_Kinases

>  <Ligand_Instance>  (309) 
nan

>  <PDB_ID>  (309) 
nan

>  <Standardized_SMILES>  (309) 
Cc1[nH]c(/C=C2\C(=O)Nc3ccc(C(=O)N[C@H](C)Cc4ccc(F)cc4)cc32)c(C)c1NC(=O)CCl

>  <Name>  (309) 
nan

>  <Pocket>  (309) 
nan

>  <ATP_Site>  (309) 
nan

>  <Peripheral>  (309) 
nan

>  <Num_H_Atoms_ProtBoundConf>  (309) 
nan

>  <Num_Resolved_Atoms>  (309) 
nan

>  <Num_Not_Resolved_Atoms>  (309) 
nan

$$$$
CHEMBL494882
     RDKit          3D

  0  0  0  0  0  0  0  0  0  0999 V3000
M  V30 BEGIN CTAB
M  V30 COUNTS 48 51 0 0 0
M  V30 BEGIN ATOM
M  V30 1 C 0.851840 -3.997382 0.059298 0
M  V30 2 C 0.850511 -2.861867 -0.971911 0
M  V30 3 N 0.999650 -1.578463 -0.314327 0
M  V30 4 C 2.176073 -0.981247 -0.060856 0
M  V30 5 C 3.522512 -1.445212 -0.365265 0
M  V30 6 N 3.958989 -2.566343 -0.966836 0
M  V30 7 O 5.248410 -2.579686 -1.034938 0
M  V30 8 N 5.722246 -1.489838 -0.492774 0
M  V30 9 C 4.672573 -0.749201 -0.059236 0
M  V30 10 N 4.814098 0.514401 0.588707 0
M  V30 11 N 1.928086 0.187146 0.556441 0
M  V30 12 C 0.595025 0.315054 0.686248 0
M  V30 13 C -0.156702 1.322615 1.244482 0
M  V30 14 C 0.400535 2.507055 1.831788 0
M  V30 15 C 0.872292 3.493499 2.342298 0
M  V30 16 C 1.451635 4.681025 2.981891 0
M  V30 17 C 2.696577 4.534967 3.829342 0
M  V30 18 C 1.401447 4.819425 4.456312 0
M  V30 19 N -1.496885 1.204391 1.247277 0
M  V30 20 C -2.112351 0.130615 0.720110 0
M  V30 21 C -1.431767 -0.918473 0.144035 0
M  V30 22 O -1.857312 -2.061450 -0.428526 0
M  V30 23 C -3.112237 -2.589620 -0.636135 0
M  V30 24 C -3.947225 -2.880112 0.558269 0
M  V30 25 C -5.281663 -3.456747 0.058847 0
M  V30 26 N -5.961780 -2.526552 -0.789028 0
M  V30 27 C -0.035144 -0.807766 0.134424 0
M  V30 28 H 1.861731 -4.211355 0.409538 0
M  V30 29 H 0.291026 -3.572573 0.938050 0
M  V30 30 H 0.280919 -4.871003 -0.263638 0
M  V30 31 H 1.726164 -2.986292 -1.669836 0
M  V30 32 H -0.029870 -2.876961 -1.614840 0
M  V30 33 H 4.837700 0.870519 1.589893 0
M  V30 34 H 4.920251 1.265015 -0.137097 0
M  V30 35 H 1.343877 5.628037 2.418450 0
M  V30 36 H 3.124942 3.522214 3.990037 0
M  V30 37 H 3.491657 5.311078 3.744472 0
M  V30 38 H 0.915527 4.047643 5.096615 0
M  V30 39 H 1.283422 5.833351 4.905689 0
M  V30 40 H -3.184906 0.023570 0.709449 0
M  V30 41 H -3.073392 -3.536383 -1.249297 0
M  V30 42 H -3.655436 -1.876623 -1.326581 0
M  V30 43 H -3.458806 -3.647686 1.207007 0
M  V30 44 H -4.210040 -2.038610 1.189465 0
M  V30 45 H -5.881754 -3.795069 0.933986 0
M  V30 46 H -5.059588 -4.357890 -0.557973 0
M  V30 47 H -6.004656 -1.560023 -0.399624 0
M  V30 48 H -5.544179 -2.558403 -1.738976 0
M  V30 END ATOM
M  V30 BEGIN BOND
M  V30 1 1 1 2
M  V30 2 1 2 3
M  V30 3 1 3 4
M  V30 4 1 4 5
M  V30 5 2 5 6
M  V30 6 1 6 7
M  V30 7 1 7 8
M  V30 8 2 8 9
M  V30 9 1 9 10
M  V30 10 2 4 11
M  V30 11 1 11 12
M  V30 12 2 12 13
M  V30 13 1 13 14
M  V30 14 3 14 15
M  V30 15 1 15 16
M  V30 16 1 16 17
M  V30 17 1 17 18
M  V30 18 1 13 19
M  V30 19 2 19 20
M  V30 20 1 20 21
M  V30 21 1 21 22
M  V30 22 1 22 23
M  V30 23 1 23 24
M  V30 24 1 24 25
M  V30 25 1 25 26
M  V30 26 2 21 27
M  V30 27 1 27 3
M  V30 28 1 9 5
M  V30 29 1 27 12
M  V30 30 1 18 16
M  V30 31 1 1 28
M  V30 32 1 1 29
M  V30 33 1 1 30
M  V30 34 1 2 31
M  V30 35 1 2 32
M  V30 36 1 10 33
M  V30 37 1 10 34
M  V30 38 1 16 35
M  V30 39 1 17 36
M  V30 40 1 17 37
M  V30 41 1 18 38
M  V30 42 1 18 39
M  V30 43 1 20 40
M  V30 44 1 23 41
M  V30 45 1 23 42
M  V30 46 1 24 43
M  V30 47 1 24 44
M  V30 48 1 25 45
M  V30 49 1 25 46
M  V30 50 1 26 47
M  V30 51 1 26 48
M  V30 END BOND
M  V30 END CTAB
M  END
>  <Dataset>  (310) 
ChEMBL_Kinases

>  <Ligand_Instance>  (310) 
nan

>  <PDB_ID>  (310) 
nan

>  <Standardized_SMILES>  (310) 
CCn1c(-c2nonc2N)nc2c(C#CC3CC3)ncc(OCCCN)c21

>  <Name>  (310) 
nan

>  <Pocket>  (310) 
nan

>  <ATP_Site>  (310) 
nan

>  <Peripheral>  (310) 
nan

>  <Num_H_Atoms_ProtBoundConf>  (310) 
nan

>  <Num_Resolved_Atoms>  (310) 
nan

>  <Num_Not_Resolved_Atoms>  (310) 
nan

$$$$
CHEMBL494595
     RDKit          3D

  0  0  0  0  0  0  0  0  0  0999 V3000
M  V30 BEGIN CTAB
M  V30 COUNTS 49 52 0 0 0
M  V30 BEGIN ATOM
M  V30 1 C -4.508884 -3.470241 -0.182920 0
M  V30 2 O -3.169890 -3.772908 -0.432547 0
M  V30 3 C -2.191872 -2.833753 -0.696029 0
M  V30 4 C -2.577977 -1.510219 -0.710559 0
M  V30 5 C -1.628030 -0.567740 -0.968585 0
M  V30 6 C -0.313988 -0.910508 -1.210282 0
M  V30 7 C 0.822531 -0.045657 -1.499694 0
M  V30 8 C 1.691695 -0.392792 -2.539103 0
M  V30 9 N 2.775400 0.336215 -2.892644 0
M  V30 10 C 3.093344 1.475523 -2.245661 0
M  V30 11 C 2.263424 1.857686 -1.212063 0
M  V30 12 C 2.534805 3.070873 -0.464566 0
M  V30 13 N 2.745315 4.050964 0.126277 0
M  V30 14 C 1.156013 1.121294 -0.843858 0
M  V30 15 N 0.300076 1.515697 0.222311 0
M  V30 16 C 0.663043 0.998485 1.502006 0
M  V30 17 C 1.772911 0.176990 1.651432 0
M  V30 18 C 2.183442 -0.360777 2.864926 0
M  V30 19 C 1.453429 -0.067950 3.992262 0
M  V30 20 N 1.564780 -0.410246 5.294037 0
M  V30 21 C 0.576778 0.146105 6.027264 0
M  V30 22 C -0.211222 0.882958 5.160623 0
M  V30 23 C 0.342449 0.744237 3.892836 0
M  V30 24 C -0.045698 1.266717 2.676002 0
M  V30 25 C -1.230338 2.143995 2.514618 0
M  V30 26 C 0.038887 -2.260006 -1.187235 0
M  V30 27 C -0.897224 -3.248650 -0.928793 0
M  V30 28 O -0.635702 -4.603088 -0.886943 0
M  V30 29 C 0.602690 -5.212548 -1.095093 0
M  V30 30 H -5.045980 -4.401579 0.052912 0
M  V30 31 H -4.985596 -3.033247 -1.092600 0
M  V30 32 H -4.618387 -2.721704 0.627765 0
M  V30 33 H -3.584375 -1.163600 -0.531312 0
M  V30 34 H -1.808072 0.494370 -1.006857 0
M  V30 35 H 1.564565 -1.278904 -3.147132 0
M  V30 36 H 3.939610 2.110461 -2.468454 0
M  V30 37 H -0.562989 2.130361 0.226176 0
M  V30 38 H 2.398999 -0.095761 0.791474 0
M  V30 39 H 3.059506 -0.995878 2.916832 0
M  V30 40 H 2.339371 -1.035253 5.654213 0
M  V30 41 H 0.393855 0.062798 7.085567 0
M  V30 42 H -1.086319 1.451642 5.434039 0
M  V30 43 H -1.732037 2.194885 3.504782 0
M  V30 44 H -1.925492 1.735010 1.764187 0
M  V30 45 H -0.877636 3.162312 2.225905 0
M  V30 46 H 1.043170 -2.640027 -1.363658 0
M  V30 47 H 1.071485 -5.354796 -0.087461 0
M  V30 48 H 0.517256 -6.218223 -1.569388 0
M  V30 49 H 1.321778 -4.630974 -1.699408 0
M  V30 END ATOM
M  V30 BEGIN BOND
M  V30 1 1 1 2
M  V30 2 1 2 3
M  V30 3 2 3 4
M  V30 4 1 4 5
M  V30 5 2 5 6
M  V30 6 1 6 7
M  V30 7 2 7 8
M  V30 8 1 8 9
M  V30 9 2 9 10
M  V30 10 1 10 11
M  V30 11 1 11 12
M  V30 12 3 12 13
M  V30 13 2 11 14
M  V30 14 1 14 15
M  V30 15 1 15 16
M  V30 16 2 16 17
M  V30 17 1 17 18
M  V30 18 2 18 19
M  V30 19 1 19 20
M  V30 20 1 20 21
M  V30 21 2 21 22
M  V30 22 1 22 23
M  V30 23 2 23 24
M  V30 24 1 24 25
M  V30 25 1 6 26
M  V30 26 2 26 27
M  V30 27 1 27 28
M  V30 28 1 28 29
M  V30 29 1 27 3
M  V30 30 1 14 7
M  V30 31 1 24 16
M  V30 32 1 23 19
M  V30 33 1 1 30
M  V30 34 1 1 31
M  V30 35 1 1 32
M  V30 36 1 4 33
M  V30 37 1 5 34
M  V30 38 1 8 35
M  V30 39 1 10 36
M  V30 40 1 15 37
M  V30 41 1 17 38
M  V30 42 1 18 39
M  V30 43 1 20 40
M  V30 44 1 21 41
M  V30 45 1 22 42
M  V30 46 1 25 43
M  V30 47 1 25 44
M  V30 48 1 25 45
M  V30 49 1 26 46
M  V30 50 1 29 47
M  V30 51 1 29 48
M  V30 52 1 29 49
M  V30 END BOND
M  V30 END CTAB
M  END
>  <Dataset>  (311) 
ChEMBL_Kinases

>  <Ligand_Instance>  (311) 
nan

>  <PDB_ID>  (311) 
nan

>  <Standardized_SMILES>  (311) 
COc1ccc(-c2cncc(C#N)c2Nc2ccc3[nH]ccc3c2C)cc1OC

>  <Name>  (311) 
nan

>  <Pocket>  (311) 
nan

>  <ATP_Site>  (311) 
nan

>  <Peripheral>  (311) 
nan

>  <Num_H_Atoms_ProtBoundConf>  (311) 
nan

>  <Num_Resolved_Atoms>  (311) 
nan

>  <Num_Not_Resolved_Atoms>  (311) 
nan

$$$$
CHEMBL494412
     RDKit          3D

  0  0  0  0  0  0  0  0  0  0999 V3000
M  V30 BEGIN CTAB
M  V30 COUNTS 60 64 0 0 0
M  V30 BEGIN ATOM
M  V30 1 C 4.329983 -0.570706 3.437096 0
M  V30 2 C 3.441160 -1.583841 2.850128 0
M  V30 3 C 3.183196 -1.469974 1.508575 0
M  V30 4 N 3.624713 -0.527032 0.579559 0
M  V30 5 C 3.627551 0.856656 0.350698 0
M  V30 6 C 4.756506 1.652455 0.584054 0
M  V30 7 C 5.991478 1.059460 1.035669 0
M  V30 8 N 6.985057 0.561752 1.393147 0
M  V30 9 C 4.807313 3.012527 0.400623 0
M  V30 10 N 3.692418 3.616463 -0.034020 0
M  V30 11 C 2.556790 2.946461 -0.288760 0
M  V30 12 C 2.542203 1.580780 -0.093161 0
M  V30 13 C 1.270571 0.956933 -0.410611 0
M  V30 14 C 0.128321 1.562701 0.128785 0
M  V30 15 C -1.168168 1.134702 -0.060300 0
M  V30 16 C -1.365378 0.017032 -0.845144 0
M  V30 17 O -2.650705 -0.459712 -1.070233 0
M  V30 18 C -3.743427 0.194503 -0.500439 0
M  V30 19 C -5.082328 -0.398058 -0.803815 0
M  V30 20 N -5.433794 -0.449342 -2.191474 0
M  V30 21 C -6.756011 -1.048471 -2.259597 0
M  V30 22 C -6.456188 -2.480166 -1.866149 0
M  V30 23 C -5.018849 -2.738997 -2.292238 0
M  V30 24 C -4.680608 -1.423909 -2.957413 0
M  V30 25 C -0.267469 -0.611464 -1.396835 0
M  V30 26 C 1.010267 -0.141959 -1.176218 0
M  V30 27 C 2.334866 -2.433064 0.965519 0
M  V30 28 C 1.797658 -3.432314 1.749455 0
M  V30 29 C 2.101762 -3.486445 3.099347 0
M  V30 30 N 1.757911 -4.308673 4.129147 0
M  V30 31 C 2.340693 -3.914114 5.273879 0
M  V30 32 C 3.096434 -2.802440 5.022467 0
M  V30 33 C 2.935753 -2.557445 3.683405 0
M  V30 34 H 4.055982 0.467040 3.130926 0
M  V30 35 H 4.238333 -0.554241 4.543664 0
M  V30 36 H 5.412955 -0.802784 3.262531 0
M  V30 37 H 4.140548 -0.913120 -0.265110 0
M  V30 38 H 5.697074 3.595106 0.591573 0
M  V30 39 H 1.721607 3.517713 -0.632048 0
M  V30 40 H 0.240044 2.456098 0.760374 0
M  V30 41 H -1.993242 1.662377 0.394079 0
M  V30 42 H -3.687310 1.281507 -0.711529 0
M  V30 43 H -3.635793 0.131504 0.620127 0
M  V30 44 H -5.835084 0.256374 -0.309549 0
M  V30 45 H -5.179031 -1.378355 -0.291299 0
M  V30 46 H -7.436376 -0.618259 -1.496290 0
M  V30 47 H -7.169954 -1.004403 -3.293103 0
M  V30 48 H -7.152125 -3.109056 -2.456875 0
M  V30 49 H -6.648655 -2.690670 -0.812528 0
M  V30 50 H -5.016273 -3.568239 -3.030028 0
M  V30 51 H -4.350871 -3.009655 -1.474082 0
M  V30 52 H -3.617963 -1.215371 -3.054858 0
M  V30 53 H -5.202705 -1.469898 -3.957780 0
M  V30 54 H -0.377757 -1.489650 -2.017623 0
M  V30 55 H 1.911270 -0.612553 -1.596519 0
M  V30 56 H 1.970676 -2.584132 -0.059208 0
M  V30 57 H 1.132089 -4.231532 1.450931 0
M  V30 58 H 1.133422 -5.129064 4.052742 0
M  V30 59 H 2.236129 -4.388702 6.236683 0
M  V30 60 H 3.680005 -2.257296 5.734520 0
M  V30 END ATOM
M  V30 BEGIN BOND
M  V30 1 1 1 2
M  V30 2 2 2 3
M  V30 3 1 3 4
M  V30 4 1 4 5
M  V30 5 2 5 6
M  V30 6 1 6 7
M  V30 7 3 7 8
M  V30 8 1 6 9
M  V30 9 2 9 10
M  V30 10 1 10 11
M  V30 11 2 11 12
M  V30 12 1 12 13
M  V30 13 2 13 14
M  V30 14 1 14 15
M  V30 15 2 15 16
M  V30 16 1 16 17
M  V30 17 1 17 18
M  V30 18 1 18 19
M  V30 19 1 19 20
M  V30 20 1 20 21
M  V30 21 1 21 22
M  V30 22 1 22 23
M  V30 23 1 23 24
M  V30 24 1 16 25
M  V30 25 2 25 26
M  V30 26 1 3 27
M  V30 27 2 27 28
M  V30 28 1 28 29
M  V30 29 1 29 30
M  V30 30 1 30 31
M  V30 31 2 31 32
M  V30 32 1 32 33
M  V30 33 1 33 2
M  V30 34 1 12 5
M  V30 35 1 26 13
M  V30 36 2 33 29
M  V30 37 1 24 20
M  V30 38 1 1 34
M  V30 39 1 1 35
M  V30 40 1 1 36
M  V30 41 1 4 37
M  V30 42 1 9 38
M  V30 43 1 11 39
M  V30 44 1 14 40
M  V30 45 1 15 41
M  V30 46 1 18 42
M  V30 47 1 18 43
M  V30 48 1 19 44
M  V30 49 1 19 45
M  V30 50 1 21 46
M  V30 51 1 21 47
M  V30 52 1 22 48
M  V30 53 1 22 49
M  V30 54 1 23 50
M  V30 55 1 23 51
M  V30 56 1 24 52
M  V30 57 1 24 53
M  V30 58 1 25 54
M  V30 59 1 26 55
M  V30 60 1 27 56
M  V30 61 1 28 57
M  V30 62 1 30 58
M  V30 63 1 31 59
M  V30 64 1 32 60
M  V30 END BOND
M  V30 END CTAB
M  END
>  <Dataset>  (312) 
ChEMBL_Kinases

>  <Ligand_Instance>  (312) 
nan

>  <PDB_ID>  (312) 
nan

>  <Standardized_SMILES>  (312) 
Cc1c(Nc2c(C#N)cncc2-c2ccc(OCCN3CCCC3)cc2)ccc2[nH]ccc12

>  <Name>  (312) 
nan

>  <Pocket>  (312) 
nan

>  <ATP_Site>  (312) 
nan

>  <Peripheral>  (312) 
nan

>  <Num_H_Atoms_ProtBoundConf>  (312) 
nan

>  <Num_Resolved_Atoms>  (312) 
nan

>  <Num_Not_Resolved_Atoms>  (312) 
nan

$$$$
CHEMBL494361
     RDKit          3D

  0  0  0  0  0  0  0  0  0  0999 V3000
M  V30 BEGIN CTAB
M  V30 COUNTS 64 64 0 0 0
M  V30 BEGIN ATOM
M  V30 1 C 1.122264 -4.633347 3.404772 0
M  V30 2 C 2.250142 -3.626372 3.358222 0
M  V30 3 C 1.624164 -2.247244 3.258275 0
M  V30 4 C 2.722133 -1.243101 3.211369 0
M  V30 5 C 2.258308 0.184119 3.111047 0
M  V30 6 C 1.404460 0.628762 4.247507 0
M  V30 7 C 2.199462 0.494358 5.524028 0
M  V30 8 O 1.688644 0.432189 1.839189 0
M  V30 9 C 2.216715 1.286335 0.908955 0
M  V30 10 O 3.272798 1.867626 1.241361 0
M  V30 11 C 1.641589 1.552658 -0.406319 0
M  V30 12 C 2.336728 2.460471 -1.208258 0
M  V30 13 C 1.805493 2.727135 -2.463681 0
M  V30 14 C 2.526451 3.695946 -3.348259 0
M  V30 15 O 2.031830 4.984592 -3.101826 0
M  V30 16 C 0.639676 2.097501 -2.855589 0
M  V30 17 C -0.041256 1.202412 -2.058715 0
M  V30 18 C -1.269657 0.592488 -2.575020 0
M  V30 19 O -1.665250 0.892888 -3.705511 0
M  V30 20 O -1.970224 -0.316013 -1.781370 0
M  V30 21 C -3.146146 -0.969889 -2.139431 0
M  V30 22 C -4.414993 -0.582952 -1.496665 0
M  V30 23 C -4.735580 0.895801 -1.769449 0
M  V30 24 C -3.020011 -2.425109 -2.455350 0
M  V30 25 C -2.472389 -3.330888 -1.427806 0
M  V30 26 C -3.229309 -3.371219 -0.135976 0
M  V30 27 C -2.547304 -4.397147 0.776527 0
M  V30 28 C 0.477349 0.934784 -0.818928 0
M  V30 29 H 0.291700 -4.219322 2.811425 0
M  V30 30 H 1.385046 -5.601271 2.972457 0
M  V30 31 H 0.774446 -4.748240 4.450908 0
M  V30 32 H 2.892086 -3.696468 4.275974 0
M  V30 33 H 2.886450 -3.871456 2.503778 0
M  V30 34 H 0.958070 -2.252049 2.397280 0
M  V30 35 H 1.073866 -2.108953 4.227076 0
M  V30 36 H 3.356468 -1.441041 2.322617 0
M  V30 37 H 3.380951 -1.396282 4.090021 0
M  V30 38 H 3.176313 0.815434 3.153859 0
M  V30 39 H 0.426023 0.117100 4.305753 0
M  V30 40 H 1.179743 1.698515 4.101200 0
M  V30 41 H 3.251730 0.196640 5.358042 0
M  V30 42 H 1.751504 -0.332089 6.131110 0
M  V30 43 H 2.236879 1.445596 6.077810 0
M  V30 44 H 3.250454 2.949877 -0.893189 0
M  V30 45 H 2.335010 3.450826 -4.397781 0
M  V30 46 H 3.618474 3.678321 -3.192081 0
M  V30 47 H 1.757164 5.017760 -2.156912 0
M  V30 48 H 0.245249 2.325092 -3.845386 0
M  V30 49 H -3.301736 -0.520509 -3.224632 0
M  V30 50 H -4.615632 -0.851582 -0.473372 0
M  V30 51 H -5.225623 -1.114816 -2.086204 0
M  V30 52 H -4.458691 1.187347 -2.779633 0
M  V30 53 H -5.832890 1.021011 -1.662262 0
M  V30 54 H -4.223701 1.515100 -1.007750 0
M  V30 55 H -2.408969 -2.511272 -3.415546 0
M  V30 56 H -4.049132 -2.771310 -2.769752 0
M  V30 57 H -2.558720 -4.383930 -1.848766 0
M  V30 58 H -1.374547 -3.221438 -1.267869 0
M  V30 59 H -3.194074 -2.373845 0.391265 0
M  V30 60 H -4.284107 -3.655133 -0.211166 0
M  V30 61 H -2.916193 -4.368142 1.801746 0
M  V30 62 H -2.784937 -5.389444 0.333413 0
M  V30 63 H -1.460517 -4.200072 0.699289 0
M  V30 64 H -0.033777 0.237882 -0.172109 0
M  V30 END ATOM
M  V30 BEGIN BOND
M  V30 1 1 1 2
M  V30 2 1 2 3
M  V30 3 1 3 4
M  V30 4 1 4 5
M  V30 5 1 5 6
M  V30 6 1 6 7
M  V30 7 1 5 8
M  V30 8 1 8 9
M  V30 9 2 9 10
M  V30 10 1 9 11
M  V30 11 2 11 12
M  V30 12 1 12 13
M  V30 13 1 13 14
M  V30 14 1 14 15
M  V30 15 2 13 16
M  V30 16 1 16 17
M  V30 17 1 17 18
M  V30 18 2 18 19
M  V30 19 1 18 20
M  V30 20 1 20 21
M  V30 21 1 21 22
M  V30 22 1 22 23
M  V30 23 1 21 24
M  V30 24 1 24 25
M  V30 25 1 25 26
M  V30 26 1 26 27
M  V30 27 2 17 28
M  V30 28 1 28 11
M  V30 29 1 1 29
M  V30 30 1 1 30
M  V30 31 1 1 31
M  V30 32 1 2 32
M  V30 33 1 2 33
M  V30 34 1 3 34
M  V30 35 1 3 35
M  V30 36 1 4 36
M  V30 37 1 4 37
M  V30 38 1 5 38
M  V30 39 1 6 39
M  V30 40 1 6 40
M  V30 41 1 7 41
M  V30 42 1 7 42
M  V30 43 1 7 43
M  V30 44 1 12 44
M  V30 45 1 14 45
M  V30 46 1 14 46
M  V30 47 1 15 47
M  V30 48 1 16 48
M  V30 49 1 21 49
M  V30 50 1 22 50
M  V30 51 1 22 51
M  V30 52 1 23 52
M  V30 53 1 23 53
M  V30 54 1 23 54
M  V30 55 1 24 55
M  V30 56 1 24 56
M  V30 57 1 25 57
M  V30 58 1 25 58
M  V30 59 1 26 59
M  V30 60 1 26 60
M  V30 61 1 27 61
M  V30 62 1 27 62
M  V30 63 1 27 63
M  V30 64 1 28 64
M  V30 END BOND
M  V30 END CTAB
M  END
>  <Dataset>  (313) 
ChEMBL_Kinases

>  <Ligand_Instance>  (313) 
nan

>  <PDB_ID>  (313) 
nan

>  <Standardized_SMILES>  (313) 
CCCCC(CC)OC(=O)c1cc(CO)cc(C(=O)OC(CC)CCCC)c1

>  <Name>  (313) 
nan

>  <Pocket>  (313) 
nan

>  <ATP_Site>  (313) 
nan

>  <Peripheral>  (313) 
nan

>  <Num_H_Atoms_ProtBoundConf>  (313) 
nan

>  <Num_Resolved_Atoms>  (313) 
nan

>  <Num_Not_Resolved_Atoms>  (313) 
nan

$$$$
CHEMBL4786972
     RDKit          3D

  0  0  0  0  0  0  0  0  0  0999 V3000
M  V30 BEGIN CTAB
M  V30 COUNTS 56 58 0 0 0
M  V30 BEGIN ATOM
M  V30 1 C 4.189956 -1.548149 4.162637 0
M  V30 2 C 3.701111 -0.802781 2.935236 0
M  V30 3 N 4.564282 0.198068 2.443762 0
M  V30 4 C 4.752760 1.363678 3.240952 0
M  V30 5 C 5.500431 1.139747 4.505146 0
M  V30 6 C 4.629520 0.412928 1.048426 0
M  V30 7 C 3.456985 1.007467 0.360772 0
M  V30 8 N 2.242535 0.236308 0.435846 0
M  V30 9 C 1.221023 0.923173 -0.271064 0
M  V30 10 O 1.652790 2.011735 -0.765027 0
M  V30 11 C -0.174011 0.563275 -0.490501 0
M  V30 12 C -1.023260 1.488254 -1.117986 0
M  V30 13 C -0.853866 2.883007 -1.647554 0
M  V30 14 N -2.226151 0.871464 -1.192944 0
M  V30 15 C -2.243098 -0.364160 -0.676634 0
M  V30 16 C -3.240423 -1.417142 -0.541830 0
M  V30 17 C -4.050080 -1.934547 -1.466333 0
M  V30 18 C -4.071138 -1.510254 -2.853730 0
M  V30 19 O -3.351071 -0.645671 -3.362146 0
M  V30 20 N -5.080920 -2.310751 -3.434776 0
M  V30 21 C -5.639001 -3.177481 -2.435169 0
M  V30 22 C -6.647627 -4.114209 -2.586479 0
M  V30 23 C -7.047601 -4.857193 -1.486300 0
M  V30 24 Cl -8.288606 -6.084240 -1.437756 0
M  V30 25 C -6.419207 -4.637115 -0.256777 0
M  V30 26 C -5.419775 -3.706335 -0.115770 0
M  V30 27 C -5.026451 -2.970177 -1.215280 0
M  V30 28 C -0.928733 -0.558514 -0.227425 0
M  V30 29 C -0.367249 -1.763073 0.429611 0
M  V30 30 H 5.268396 -1.647036 4.238879 0
M  V30 31 H 3.798458 -2.612034 4.152962 0
M  V30 32 H 3.694480 -1.092269 5.041609 0
M  V30 33 H 3.645023 -1.600698 2.135140 0
M  V30 34 H 2.699994 -0.391316 3.068942 0
M  V30 35 H 3.813826 1.893869 3.500138 0
M  V30 36 H 5.348010 2.077348 2.607381 0
M  V30 37 H 6.376187 0.449257 4.394792 0
M  V30 38 H 4.888959 0.931272 5.400372 0
M  V30 39 H 6.000746 2.129830 4.749022 0
M  V30 40 H 4.775375 -0.611997 0.580036 0
M  V30 41 H 5.593730 0.931160 0.783436 0
M  V30 42 H 3.263517 2.063408 0.667207 0
M  V30 43 H 3.729755 1.088814 -0.726872 0
M  V30 44 H 1.916101 -0.659437 0.850891 0
M  V30 45 H -0.760182 2.868945 -2.746539 0
M  V30 46 H -1.828099 3.423784 -1.459969 0
M  V30 47 H -0.085575 3.444737 -1.125280 0
M  V30 48 H -3.096353 1.298715 -1.598981 0
M  V30 49 H -3.319940 -1.827414 0.475975 0
M  V30 50 H -5.333492 -2.230085 -4.455596 0
M  V30 51 H -7.181438 -4.343597 -3.498669 0
M  V30 52 H -6.670190 -5.173869 0.657663 0
M  V30 53 H -4.903417 -3.497107 0.808438 0
M  V30 54 H -0.131115 -1.649708 1.486052 0
M  V30 55 H 0.470138 -2.202278 -0.187127 0
M  V30 56 H -1.162514 -2.565471 0.342037 0
M  V30 END ATOM
M  V30 BEGIN BOND
M  V30 1 1 1 2
M  V30 2 1 2 3
M  V30 3 1 3 4
M  V30 4 1 4 5
M  V30 5 1 3 6
M  V30 6 1 6 7
M  V30 7 1 7 8
M  V30 8 1 8 9
M  V30 9 2 9 10
M  V30 10 1 9 11
M  V30 11 2 11 12
M  V30 12 1 12 13
M  V30 13 1 12 14
M  V30 14 1 14 15
M  V30 15 1 15 16
M  V30 16 2 16 17
M  V30 17 1 17 18
M  V30 18 2 18 19
M  V30 19 1 18 20
M  V30 20 1 20 21
M  V30 21 2 21 22
M  V30 22 1 22 23
M  V30 23 1 23 24
M  V30 24 2 23 25
M  V30 25 1 25 26
M  V30 26 2 26 27
M  V30 27 2 15 28
M  V30 28 1 28 29
M  V30 29 1 28 11
M  V30 30 1 27 17
M  V30 31 1 27 21
M  V30 32 1 1 30
M  V30 33 1 1 31
M  V30 34 1 1 32
M  V30 35 1 2 33
M  V30 36 1 2 34
M  V30 37 1 4 35
M  V30 38 1 4 36
M  V30 39 1 5 37
M  V30 40 1 5 38
M  V30 41 1 5 39
M  V30 42 1 6 40
M  V30 43 1 6 41
M  V30 44 1 7 42
M  V30 45 1 7 43
M  V30 46 1 8 44
M  V30 47 1 13 45
M  V30 48 1 13 46
M  V30 49 1 13 47
M  V30 50 1 14 48
M  V30 51 1 16 49
M  V30 52 1 20 50
M  V30 53 1 22 51
M  V30 54 1 25 52
M  V30 55 1 26 53
M  V30 56 1 29 54
M  V30 57 1 29 55
M  V30 58 1 29 56
M  V30 END BOND
M  V30 END CTAB
M  END
>  <Dataset>  (314) 
ChEMBL_Kinases

>  <Ligand_Instance>  (314) 
nan

>  <PDB_ID>  (314) 
nan

>  <Standardized_SMILES>  (314) 
CCN(CC)CCNC(=O)c1c(C)[nH]c(/C=C2\C(=O)Nc3cc(Cl)ccc32)c1C

>  <Name>  (314) 
nan

>  <Pocket>  (314) 
nan

>  <ATP_Site>  (314) 
nan

>  <Peripheral>  (314) 
nan

>  <Num_H_Atoms_ProtBoundConf>  (314) 
nan

>  <Num_Resolved_Atoms>  (314) 
nan

>  <Num_Not_Resolved_Atoms>  (314) 
nan

$$$$
CHEMBL494229
     RDKit          3D

  0  0  0  0  0  0  0  0  0  0999 V3000
M  V30 BEGIN CTAB
M  V30 COUNTS 49 52 0 0 0
M  V30 BEGIN ATOM
M  V30 1 C -2.498348 -3.649765 4.580804 0
M  V30 2 O -1.881427 -4.092935 3.416324 0
M  V30 3 C -0.884451 -3.333494 2.820456 0
M  V30 4 C -0.567906 -2.136978 3.464709 0
M  V30 5 C 0.409652 -1.318267 2.944508 0
M  V30 6 C 1.108293 -1.618877 1.799195 0
M  V30 7 C 2.152450 -0.891623 1.105454 0
M  V30 8 C 3.300540 -1.626631 0.790885 0
M  V30 9 N 4.373994 -1.136148 0.162994 0
M  V30 10 C 4.425682 0.133897 -0.220405 0
M  V30 11 C 3.326178 0.917629 0.058042 0
M  V30 12 C 3.312894 2.300477 -0.327108 0
M  V30 13 N 3.315552 3.432916 -0.630598 0
M  V30 14 C 2.215421 0.419394 0.704890 0
M  V30 15 N 1.103122 1.262197 0.960709 0
M  V30 16 C 0.777762 2.133303 2.102240 0
M  V30 17 C 0.145878 1.231637 -0.119149 0
M  V30 18 C 0.257981 0.474433 -1.288426 0
M  V30 19 C -0.699718 0.509678 -2.263187 0
M  V30 20 C -1.816920 1.291091 -2.138948 0
M  V30 21 N -2.900996 1.519977 -2.922315 0
M  V30 22 C -3.709054 2.392395 -2.309611 0
M  V30 23 C -3.180648 2.772416 -1.089621 0
M  V30 24 C -2.001187 2.064106 -1.021015 0
M  V30 25 C -1.010953 1.996653 -0.065692 0
M  V30 26 C 0.769857 -2.823971 1.175200 0
M  V30 27 C -0.199011 -3.676720 1.655322 0
M  V30 28 O -0.648634 -4.887466 1.167294 0
M  V30 29 C -0.103116 -5.438726 -0.008837 0
M  V30 30 H -1.822930 -3.398029 5.405530 0
M  V30 31 H -3.131497 -2.763138 4.340393 0
M  V30 32 H -3.205587 -4.420149 4.978387 0
M  V30 33 H -1.061272 -1.811985 4.370567 0
M  V30 34 H 0.701056 -0.388680 3.403064 0
M  V30 35 H 3.396811 -2.678111 1.044682 0
M  V30 36 H 5.253253 0.624982 -0.736218 0
M  V30 37 H -0.191525 1.779573 2.491821 0
M  V30 38 H 0.802842 3.199033 1.832912 0
M  V30 39 H 1.547149 1.874445 2.882698 0
M  V30 40 H 1.161373 -0.137875 -1.354920 0
M  V30 41 H -0.542326 -0.110530 -3.150842 0
M  V30 42 H -3.054771 1.070145 -3.854575 0
M  V30 43 H -4.671696 2.801268 -2.653367 0
M  V30 44 H -3.548844 3.449856 -0.333824 0
M  V30 45 H -1.162203 2.617266 0.827681 0
M  V30 46 H 1.233414 -3.172526 0.284041 0
M  V30 47 H 0.886257 -5.074672 -0.284963 0
M  V30 48 H -0.043326 -6.551052 0.084135 0
M  V30 49 H -0.846164 -5.237873 -0.835716 0
M  V30 END ATOM
M  V30 BEGIN BOND
M  V30 1 1 1 2
M  V30 2 1 2 3
M  V30 3 2 3 4
M  V30 4 1 4 5
M  V30 5 2 5 6
M  V30 6 1 6 7
M  V30 7 2 7 8
M  V30 8 1 8 9
M  V30 9 2 9 10
M  V30 10 1 10 11
M  V30 11 1 11 12
M  V30 12 3 12 13
M  V30 13 2 11 14
M  V30 14 1 14 15
M  V30 15 1 15 16
M  V30 16 1 15 17
M  V30 17 2 17 18
M  V30 18 1 18 19
M  V30 19 2 19 20
M  V30 20 1 20 21
M  V30 21 1 21 22
M  V30 22 2 22 23
M  V30 23 1 23 24
M  V30 24 2 24 25
M  V30 25 1 6 26
M  V30 26 2 26 27
M  V30 27 1 27 28
M  V30 28 1 28 29
M  V30 29 1 27 3
M  V30 30 1 14 7
M  V30 31 1 25 17
M  V30 32 1 24 20
M  V30 33 1 1 30
M  V30 34 1 1 31
M  V30 35 1 1 32
M  V30 36 1 4 33
M  V30 37 1 5 34
M  V30 38 1 8 35
M  V30 39 1 10 36
M  V30 40 1 16 37
M  V30 41 1 16 38
M  V30 42 1 16 39
M  V30 43 1 18 40
M  V30 44 1 19 41
M  V30 45 1 21 42
M  V30 46 1 22 43
M  V30 47 1 23 44
M  V30 48 1 25 45
M  V30 49 1 26 46
M  V30 50 1 29 47
M  V30 51 1 29 48
M  V30 52 1 29 49
M  V30 END BOND
M  V30 END CTAB
M  END
>  <Dataset>  (315) 
ChEMBL_Kinases

>  <Ligand_Instance>  (315) 
nan

>  <PDB_ID>  (315) 
nan

>  <Standardized_SMILES>  (315) 
COc1ccc(-c2cncc(C#N)c2N(C)c2ccc3[nH]ccc3c2)cc1OC

>  <Name>  (315) 
nan

>  <Pocket>  (315) 
nan

>  <ATP_Site>  (315) 
nan

>  <Peripheral>  (315) 
nan

>  <Num_H_Atoms_ProtBoundConf>  (315) 
nan

>  <Num_Resolved_Atoms>  (315) 
nan

>  <Num_Not_Resolved_Atoms>  (315) 
nan

$$$$
CHEMBL494166
     RDKit          3D

  0  0  0  0  0  0  0  0  0  0999 V3000
M  V30 BEGIN CTAB
M  V30 COUNTS 64 67 0 0 0
M  V30 BEGIN ATOM
M  V30 1 C 4.121705 -1.902156 1.448355 0
M  V30 2 C 2.662307 -1.922368 1.515213 0
M  V30 3 C 2.159875 -1.131397 2.530089 0
M  V30 4 N 2.745566 -0.286548 3.500435 0
M  V30 5 C 3.563664 0.726518 2.984559 0
M  V30 6 C 4.916802 0.910527 3.116085 0
M  V30 7 C 5.578936 -0.029909 3.969515 0
M  V30 8 N 6.136644 -0.794393 4.667659 0
M  V30 9 C 5.628588 1.912189 2.503406 0
M  V30 10 N 4.928664 2.761677 1.724147 0
M  V30 11 C 3.594742 2.632873 1.557161 0
M  V30 12 C 2.872102 1.605000 2.187888 0
M  V30 13 C 1.474940 1.809664 1.824961 0
M  V30 14 C 0.545276 2.322873 2.725566 0
M  V30 15 C -0.786491 2.493370 2.321601 0
M  V30 16 C -1.169788 2.144287 1.016000 0
M  V30 17 O -2.486736 2.396911 0.845140 0
M  V30 18 C -3.337921 2.195458 -0.223320 0
M  V30 19 C -3.505122 0.683200 -0.466931 0
M  V30 20 N -4.363381 0.387777 -1.563086 0
M  V30 21 C -4.762692 -0.982123 -1.688642 0
M  V30 22 C -3.658021 -1.920511 -2.034701 0
M  V30 23 N -4.148272 -3.302975 -2.147197 0
M  V30 24 C -2.996679 -4.144491 -2.398653 0
M  V30 25 C -4.916627 -3.340162 -3.404090 0
M  V30 26 C -0.203542 1.651114 0.205170 0
M  V30 27 C 1.119176 1.453934 0.519669 0
M  V30 28 C 0.763664 -1.063008 2.702828 0
M  V30 29 C -0.113253 -1.773686 1.871954 0
M  V30 30 C 0.480039 -2.536331 0.882655 0
M  V30 31 N -0.038035 -3.325438 -0.075638 0
M  V30 32 C 0.907541 -3.902109 -0.855449 0
M  V30 33 C 2.148091 -3.461974 -0.377265 0
M  V30 34 C 1.835569 -2.633744 0.678633 0
M  V30 35 H 4.411236 -2.695795 0.714208 0
M  V30 36 H 4.529948 -0.967955 1.008557 0
M  V30 37 H 4.572437 -2.209311 2.391147 0
M  V30 38 H 2.573560 -0.424738 4.532337 0
M  V30 39 H 6.701587 1.950823 2.687397 0
M  V30 40 H 3.278891 3.432589 0.889954 0
M  V30 41 H 0.962096 2.548682 3.700944 0
M  V30 42 H -1.347849 2.895763 3.151487 0
M  V30 43 H -3.090010 2.717354 -1.154892 0
M  V30 44 H -4.353106 2.551559 0.081486 0
M  V30 45 H -4.011065 0.270265 0.452506 0
M  V30 46 H -2.534513 0.168075 -0.515875 0
M  V30 47 H -5.091892 1.070660 -1.770117 0
M  V30 48 H -5.131838 -1.302587 -0.663325 0
M  V30 49 H -5.656129 -1.082252 -2.352153 0
M  V30 50 H -2.855367 -1.934474 -1.269199 0
M  V30 51 H -3.288666 -1.680938 -3.054205 0
M  V30 52 H -3.212845 -4.900320 -3.196270 0
M  V30 53 H -2.145338 -3.492740 -2.662705 0
M  V30 54 H -2.706595 -4.660640 -1.442915 0
M  V30 55 H -4.293803 -2.768588 -4.147009 0
M  V30 56 H -5.003746 -4.370429 -3.805599 0
M  V30 57 H -5.875988 -2.832187 -3.314245 0
M  V30 58 H -0.543940 1.403280 -0.784866 0
M  V30 59 H 1.778961 1.052679 -0.236909 0
M  V30 60 H 0.204628 -0.490115 3.443362 0
M  V30 61 H -1.193967 -1.745816 1.974733 0
M  V30 62 H -1.078062 -3.453294 -0.168971 0
M  V30 63 H 0.783423 -4.574104 -1.687650 0
M  V30 64 H 3.131088 -3.694876 -0.731215 0
M  V30 END ATOM
M  V30 BEGIN BOND
M  V30 1 1 1 2
M  V30 2 2 2 3
M  V30 3 1 3 4
M  V30 4 1 4 5
M  V30 5 2 5 6
M  V30 6 1 6 7
M  V30 7 3 7 8
M  V30 8 1 6 9
M  V30 9 2 9 10
M  V30 10 1 10 11
M  V30 11 2 11 12
M  V30 12 1 12 13
M  V30 13 2 13 14
M  V30 14 1 14 15
M  V30 15 2 15 16
M  V30 16 1 16 17
M  V30 17 1 17 18
M  V30 18 1 18 19
M  V30 19 1 19 20
M  V30 20 1 20 21
M  V30 21 1 21 22
M  V30 22 1 22 23
M  V30 23 1 23 24
M  V30 24 1 23 25
M  V30 25 1 16 26
M  V30 26 2 26 27
M  V30 27 1 3 28
M  V30 28 2 28 29
M  V30 29 1 29 30
M  V30 30 1 30 31
M  V30 31 1 31 32
M  V30 32 2 32 33
M  V30 33 1 33 34
M  V30 34 1 34 2
M  V30 35 1 12 5
M  V30 36 1 27 13
M  V30 37 2 34 30
M  V30 38 1 1 35
M  V30 39 1 1 36
M  V30 40 1 1 37
M  V30 41 1 4 38
M  V30 42 1 9 39
M  V30 43 1 11 40
M  V30 44 1 14 41
M  V30 45 1 15 42
M  V30 46 1 18 43
M  V30 47 1 18 44
M  V30 48 1 19 45
M  V30 49 1 19 46
M  V30 50 1 20 47
M  V30 51 1 21 48
M  V30 52 1 21 49
M  V30 53 1 22 50
M  V30 54 1 22 51
M  V30 55 1 24 52
M  V30 56 1 24 53
M  V30 57 1 24 54
M  V30 58 1 25 55
M  V30 59 1 25 56
M  V30 60 1 25 57
M  V30 61 1 26 58
M  V30 62 1 27 59
M  V30 63 1 28 60
M  V30 64 1 29 61
M  V30 65 1 31 62
M  V30 66 1 32 63
M  V30 67 1 33 64
M  V30 END BOND
M  V30 END CTAB
M  END
>  <Dataset>  (316) 
ChEMBL_Kinases

>  <Ligand_Instance>  (316) 
nan

>  <PDB_ID>  (316) 
nan

>  <Standardized_SMILES>  (316) 
Cc1c(Nc2c(C#N)cncc2-c2ccc(OCCNCCN(C)C)cc2)ccc2[nH]ccc12

>  <Name>  (316) 
nan

>  <Pocket>  (316) 
nan

>  <ATP_Site>  (316) 
nan

>  <Peripheral>  (316) 
nan

>  <Num_H_Atoms_ProtBoundConf>  (316) 
nan

>  <Num_Resolved_Atoms>  (316) 
nan

>  <Num_Not_Resolved_Atoms>  (316) 
nan

$$$$
CHEMBL4786439
     RDKit          3D

  0  0  0  0  0  0  0  0  0  0999 V3000
M  V30 BEGIN CTAB
M  V30 COUNTS 60 65 0 0 0
M  V30 BEGIN ATOM
M  V30 1 F 3.298032 1.068254 4.494850 0
M  V30 2 C 2.513144 0.277320 3.710385 0
M  V30 3 F 2.255817 -0.985622 4.142867 0
M  V30 4 C 2.924806 0.377892 2.222951 0
M  V30 5 C 2.261600 1.774281 2.303758 0
M  V30 6 C 1.740962 2.305810 1.065015 0
M  V30 7 N 2.554969 2.661300 0.052939 0
M  V30 8 N 1.837378 3.098539 -0.969659 0
M  V30 9 C 2.514374 3.542852 -2.188044 0
M  V30 10 C 2.346621 2.657373 -3.440094 0
M  V30 11 C 3.662162 2.776147 -2.721269 0
M  V30 12 C 0.529085 3.013478 -0.583597 0
M  V30 13 C 0.437205 2.505874 0.724650 0
M  V30 14 O -0.839830 2.432272 1.084338 0
M  V30 15 C -1.733597 1.522982 1.470296 0
M  V30 16 C -2.131277 1.126809 2.740526 0
M  V30 17 C -3.068824 0.172375 3.067340 0
M  V30 18 N -3.660004 -0.439092 2.012800 0
M  V30 19 C -3.340885 -0.123114 0.755161 0
M  V30 20 N -4.111921 -0.920200 -0.136844 0
M  V30 21 C -3.651873 -2.195311 -0.600954 0
M  V30 22 C -4.358824 -3.039950 -1.397773 0
M  V30 23 C -3.882976 -4.261297 -1.824930 0
M  V30 24 N -2.630476 -4.621937 -1.413110 0
M  V30 25 C -1.897096 -3.814466 -0.623761 0
M  V30 26 N -0.606637 -4.293871 -0.257691 0
M  V30 27 C -0.215325 -5.628033 -0.700282 0
M  V30 28 C -0.032058 -6.421284 0.577999 0
M  V30 29 O 0.052750 -5.633749 1.708589 0
M  V30 30 C 0.912438 -4.551722 1.550267 0
M  V30 31 C 0.369649 -3.561290 0.524773 0
M  V30 32 C -2.377522 -2.593957 -0.199007 0
M  V30 33 C -2.408863 0.825889 0.459943 0
M  V30 34 C 1.267283 1.069970 3.239418 0
M  V30 35 H 4.003706 0.393264 2.049041 0
M  V30 36 H 2.300293 -0.290294 1.605635 0
M  V30 37 H 2.927141 2.424101 2.921503 0
M  V30 38 H 2.513974 4.621238 -2.354711 0
M  V30 39 H 1.815994 1.684192 -3.254942 0
M  V30 40 H 2.182865 3.177478 -4.400431 0
M  V30 41 H 4.059991 1.893365 -2.178754 0
M  V30 42 H 4.442535 3.344813 -3.265533 0
M  V30 43 H -0.128895 3.365638 -1.399105 0
M  V30 44 H -1.612468 1.662952 3.546170 0
M  V30 45 H -3.267434 -0.022161 4.116112 0
M  V30 46 H -5.043261 -0.622631 -0.495766 0
M  V30 47 H -5.347101 -2.695595 -1.689686 0
M  V30 48 H -4.495323 -4.893862 -2.460612 0
M  V30 49 H -1.002402 -6.078804 -1.346096 0
M  V30 50 H 0.743980 -5.607930 -1.279556 0
M  V30 51 H 0.819029 -7.128056 0.504334 0
M  V30 52 H -0.981311 -7.015807 0.703404 0
M  V30 53 H 0.946738 -4.016747 2.524056 0
M  V30 54 H 1.956848 -4.846400 1.314019 0
M  V30 55 H 1.227149 -3.302494 -0.161177 0
M  V30 56 H 0.022833 -2.638699 0.969626 0
M  V30 57 H -1.807619 -1.954271 0.422529 0
M  V30 58 H -2.244860 0.986322 -0.595409 0
M  V30 59 H 0.606767 0.409999 2.630987 0
M  V30 60 H 0.787222 1.680903 3.987383 0
M  V30 END ATOM
M  V30 BEGIN BOND
M  V30 1 1 1 2
M  V30 2 1 2 3
M  V30 3 1 2 4
M  V30 4 1 4 5
M  V30 5 1 5 6
M  V30 6 2 6 7
M  V30 7 1 7 8
M  V30 8 1 8 9
M  V30 9 1 9 10
M  V30 10 1 10 11
M  V30 11 1 8 12
M  V30 12 2 12 13
M  V30 13 1 13 14
M  V30 14 1 14 15
M  V30 15 2 15 16
M  V30 16 1 16 17
M  V30 17 2 17 18
M  V30 18 1 18 19
M  V30 19 1 19 20
M  V30 20 1 20 21
M  V30 21 2 21 22
M  V30 22 1 22 23
M  V30 23 2 23 24
M  V30 24 1 24 25
M  V30 25 1 25 26
M  V30 26 1 26 27
M  V30 27 1 27 28
M  V30 28 1 28 29
M  V30 29 1 29 30
M  V30 30 1 30 31
M  V30 31 2 25 32
M  V30 32 2 19 33
M  V30 33 1 5 34
M  V30 34 1 34 2
M  V30 35 1 13 6
M  V30 36 1 33 15
M  V30 37 1 11 9
M  V30 38 1 32 21
M  V30 39 1 31 26
M  V30 40 1 4 35
M  V30 41 1 4 36
M  V30 42 1 5 37
M  V30 43 1 9 38
M  V30 44 1 10 39
M  V30 45 1 10 40
M  V30 46 1 11 41
M  V30 47 1 11 42
M  V30 48 1 12 43
M  V30 49 1 16 44
M  V30 50 1 17 45
M  V30 51 1 20 46
M  V30 52 1 22 47
M  V30 53 1 23 48
M  V30 54 1 27 49
M  V30 55 1 27 50
M  V30 56 1 28 51
M  V30 57 1 28 52
M  V30 58 1 30 53
M  V30 59 1 30 54
M  V30 60 1 31 55
M  V30 61 1 31 56
M  V30 62 1 32 57
M  V30 63 1 33 58
M  V30 64 1 34 59
M  V30 65 1 34 60
M  V30 END BOND
M  V30 END CTAB
M  END
>  <Dataset>  (317) 
ChEMBL_Kinases

>  <Ligand_Instance>  (317) 
nan

>  <PDB_ID>  (317) 
nan

>  <Standardized_SMILES>  (317) 
FC1(F)CC(c2nn(C3CC3)cc2Oc2ccnc(Nc3ccnc(N4CCOCC4)c3)c2)C1

>  <Name>  (317) 
nan

>  <Pocket>  (317) 
nan

>  <ATP_Site>  (317) 
nan

>  <Peripheral>  (317) 
nan

>  <Num_H_Atoms_ProtBoundConf>  (317) 
nan

>  <Num_Resolved_Atoms>  (317) 
nan

>  <Num_Not_Resolved_Atoms>  (317) 
nan

$$$$
CHEMBL1652710
     RDKit          3D

  0  0  0  0  0  0  0  0  0  0999 V3000
M  V30 BEGIN CTAB
M  V30 COUNTS 37 40 0 0 0
M  V30 BEGIN ATOM
M  V30 1 O 2.645670 -2.178334 5.963154 0
M  V30 2 C 1.869338 -1.527878 5.217576 0
M  V30 3 O 1.036364 -0.626295 5.831663 0
M  V30 4 C 1.868192 -1.734924 3.772395 0
M  V30 5 C 2.742588 -2.664566 3.238533 0
M  V30 6 C 2.739844 -2.861089 1.856756 0
M  V30 7 C 1.888423 -2.147443 1.046601 0
M  V30 8 C 1.033898 -1.231469 1.619567 0
M  V30 9 C 0.999381 -1.000353 2.990205 0
M  V30 10 N 0.208889 -0.541622 0.824555 0
M  V30 11 C 0.111352 -0.638148 -0.503675 0
M  V30 12 N -0.764986 0.099076 -1.329853 0
M  V30 13 C -1.682073 1.101815 -0.934148 0
M  V30 14 C -1.724164 1.624749 0.338790 0
M  V30 15 C -2.616335 2.595733 0.741036 0
M  V30 16 C -3.537885 3.103111 -0.146005 0
M  V30 17 Cl -4.705679 4.332209 0.268087 0
M  V30 18 C -3.540613 2.617710 -1.428883 0
M  V30 19 C -2.626393 1.649427 -1.770494 0
M  V30 20 C 0.969087 -1.554358 -1.057985 0
M  V30 21 C 1.043012 -1.819681 -2.408969 0
M  V30 22 C 1.882888 -2.725715 -3.021067 0
M  V30 23 N 2.715890 -3.418828 -2.192894 0
M  V30 24 C 2.703222 -3.215478 -0.859267 0
M  V30 25 C 1.851521 -2.307356 -0.312281 0
M  V30 26 H 1.073847 -0.386469 6.835660 0
M  V30 27 H 3.392166 -3.203826 3.891955 0
M  V30 28 H 3.427653 -3.580843 1.515243 0
M  V30 29 H 0.339117 -0.287045 3.473265 0
M  V30 30 H -0.807170 -0.043732 -2.344250 0
M  V30 31 H -1.067386 1.331465 1.137645 0
M  V30 32 H -2.653325 3.007497 1.733550 0
M  V30 33 H -4.245485 2.991155 -2.146437 0
M  V30 34 H -2.673843 1.301407 -2.799248 0
M  V30 35 H 0.404602 -1.295175 -3.100698 0
M  V30 36 H 1.887062 -2.883688 -4.097145 0
M  V30 37 H 3.408979 -3.837462 -0.399966 0
M  V30 END ATOM
M  V30 BEGIN BOND
M  V30 1 2 1 2
M  V30 2 1 2 3
M  V30 3 1 2 4
M  V30 4 2 4 5
M  V30 5 1 5 6
M  V30 6 2 6 7
M  V30 7 1 7 8
M  V30 8 2 8 9
M  V30 9 1 8 10
M  V30 10 2 10 11
M  V30 11 1 11 12
M  V30 12 1 12 13
M  V30 13 2 13 14
M  V30 14 1 14 15
M  V30 15 2 15 16
M  V30 16 1 16 17
M  V30 17 1 16 18
M  V30 18 2 18 19
M  V30 19 1 11 20
M  V30 20 2 20 21
M  V30 21 1 21 22
M  V30 22 2 22 23
M  V30 23 1 23 24
M  V30 24 2 24 25
M  V30 25 1 9 4
M  V30 26 1 19 13
M  V30 27 1 25 20
M  V30 28 1 25 7
M  V30 29 1 3 26
M  V30 30 1 5 27
M  V30 31 1 6 28
M  V30 32 1 9 29
M  V30 33 1 12 30
M  V30 34 1 14 31
M  V30 35 1 15 32
M  V30 36 1 18 33
M  V30 37 1 19 34
M  V30 38 1 21 35
M  V30 39 1 22 36
M  V30 40 1 24 37
M  V30 END BOND
M  V30 END CTAB
M  END
>  <Dataset>  (318) 
ChEMBL_Kinases

>  <Ligand_Instance>  (318) 
nan

>  <PDB_ID>  (318) 
nan

>  <Standardized_SMILES>  (318) 
O=C(O)c1ccc2c(c1)nc(Nc1ccc(Cl)cc1)c1ccncc12

>  <Name>  (318) 
nan

>  <Pocket>  (318) 
nan

>  <ATP_Site>  (318) 
nan

>  <Peripheral>  (318) 
nan

>  <Num_H_Atoms_ProtBoundConf>  (318) 
nan

>  <Num_Resolved_Atoms>  (318) 
nan

>  <Num_Not_Resolved_Atoms>  (318) 
nan

$$$$
CHEMBL1652708
     RDKit          3D

  0  0  0  0  0  0  0  0  0  0999 V3000
M  V30 BEGIN CTAB
M  V30 COUNTS 37 40 0 0 0
M  V30 BEGIN ATOM
M  V30 1 O 1.963075 -2.725493 6.127692 0
M  V30 2 C 1.605329 -1.792343 5.366876 0
M  V30 3 O 1.238007 -0.687322 6.113594 0
M  V30 4 C 1.607170 -1.937382 3.920233 0
M  V30 5 C 2.037057 -3.145720 3.414179 0
M  V30 6 C 2.036695 -3.286503 2.022953 0
M  V30 7 C 1.612958 -2.227180 1.249086 0
M  V30 8 C 1.181790 -1.015910 1.780874 0
M  V30 9 C 1.177400 -0.860516 3.173061 0
M  V30 10 N 0.770732 0.005961 0.978836 0
M  V30 11 C 0.762749 -0.110917 -0.371411 0
M  V30 12 N 0.307317 1.092633 -0.931795 0
M  V30 13 C -1.070499 1.508189 -0.919827 0
M  V30 14 C -1.275627 2.870448 -1.147209 0
M  V30 15 C -2.521271 3.477009 -1.161989 0
M  V30 16 C -3.609170 2.634619 -0.931247 0
M  V30 17 C -3.423704 1.287525 -0.706652 0
M  V30 18 F -4.500460 0.471434 -0.482328 0
M  V30 19 C -2.169598 0.712677 -0.698212 0
M  V30 20 C 1.184968 -1.298457 -0.912813 0
M  V30 21 C 1.139650 -1.296607 -2.297684 0
M  V30 22 C 1.577515 -2.501489 -2.866659 0
M  V30 23 N 1.994834 -3.539681 -2.082242 0
M  V30 24 C 2.015471 -3.480711 -0.740995 0
M  V30 25 C 1.602527 -2.335026 -0.114779 0
M  V30 26 H 0.566447 -0.744964 6.895779 0
M  V30 27 H 2.354676 -3.931834 4.079177 0
M  V30 28 H 2.369611 -4.218585 1.651073 0
M  V30 29 H 0.849843 0.068627 3.616974 0
M  V30 30 H 1.043718 1.651768 -1.354987 0
M  V30 31 H -0.432410 3.526236 -1.324191 0
M  V30 32 H -2.596543 4.548079 -1.344525 0
M  V30 33 H -4.592682 3.095006 -0.937915 0
M  V30 34 H -1.962545 -0.338730 -0.530619 0
M  V30 35 H 0.802052 -0.458225 -2.885296 0
M  V30 36 H 1.594955 -2.629052 -3.939604 0
M  V30 37 H 2.355609 -4.343986 -0.264438 0
M  V30 END ATOM
M  V30 BEGIN BOND
M  V30 1 2 1 2
M  V30 2 1 2 3
M  V30 3 1 2 4
M  V30 4 2 4 5
M  V30 5 1 5 6
M  V30 6 2 6 7
M  V30 7 1 7 8
M  V30 8 2 8 9
M  V30 9 1 8 10
M  V30 10 2 10 11
M  V30 11 1 11 12
M  V30 12 1 12 13
M  V30 13 2 13 14
M  V30 14 1 14 15
M  V30 15 2 15 16
M  V30 16 1 16 17
M  V30 17 1 17 18
M  V30 18 2 17 19
M  V30 19 1 11 20
M  V30 20 2 20 21
M  V30 21 1 21 22
M  V30 22 2 22 23
M  V30 23 1 23 24
M  V30 24 2 24 25
M  V30 25 1 9 4
M  V30 26 1 19 13
M  V30 27 1 25 20
M  V30 28 1 25 7
M  V30 29 1 3 26
M  V30 30 1 5 27
M  V30 31 1 6 28
M  V30 32 1 9 29
M  V30 33 1 12 30
M  V30 34 1 14 31
M  V30 35 1 15 32
M  V30 36 1 16 33
M  V30 37 1 19 34
M  V30 38 1 21 35
M  V30 39 1 22 36
M  V30 40 1 24 37
M  V30 END BOND
M  V30 END CTAB
M  END
>  <Dataset>  (319) 
ChEMBL_Kinases

>  <Ligand_Instance>  (319) 
nan

>  <PDB_ID>  (319) 
nan

>  <Standardized_SMILES>  (319) 
O=C(O)c1ccc2c(c1)nc(Nc1cccc(F)c1)c1ccncc12

>  <Name>  (319) 
nan

>  <Pocket>  (319) 
nan

>  <ATP_Site>  (319) 
nan

>  <Peripheral>  (319) 
nan

>  <Num_H_Atoms_ProtBoundConf>  (319) 
nan

>  <Num_Resolved_Atoms>  (319) 
nan

>  <Num_Not_Resolved_Atoms>  (319) 
nan

$$$$
CHEMBL1652707
     RDKit          3D

  0  0  0  0  0  0  0  0  0  0999 V3000
M  V30 BEGIN CTAB
M  V30 COUNTS 37 40 0 0 0
M  V30 BEGIN ATOM
M  V30 1 O 2.423115 -0.978723 5.899021 0
M  V30 2 C 2.745851 -2.032440 5.248605 0
M  V30 3 O 3.378324 -3.122137 5.825310 0
M  V30 4 C 2.403352 -2.037533 3.811507 0
M  V30 5 C 2.715755 -3.149689 3.045569 0
M  V30 6 C 2.389365 -3.132427 1.684930 0
M  V30 7 C 1.774582 -2.035065 1.131823 0
M  V30 8 C 1.456527 -0.921386 1.877464 0
M  V30 9 C 1.786053 -0.957287 3.217347 0
M  V30 10 N 0.858245 0.138584 1.304848 0
M  V30 11 C 0.542608 0.169947 -0.004171 0
M  V30 12 N -0.087268 1.374132 -0.420822 0
M  V30 13 C -1.464287 1.661312 -0.619260 0
M  V30 14 C -1.849121 2.979821 -0.833988 0
M  V30 15 C -3.180068 3.260921 -1.039720 0
M  V30 16 C -4.175622 2.277134 -1.043903 0
M  V30 17 F -5.484634 2.546717 -1.246003 0
M  V30 18 C -3.746641 0.977469 -0.825615 0
M  V30 19 Cl -4.864922 -0.368906 -0.801992 0
M  V30 20 C -2.418202 0.674517 -0.617132 0
M  V30 21 C 0.844324 -0.926525 -0.786561 0
M  V30 22 C 0.494578 -0.838072 -2.116413 0
M  V30 23 C 0.819516 -1.972900 -2.853022 0
M  V30 24 N 1.416533 -3.046298 -2.311334 0
M  V30 25 C 1.744687 -3.093053 -0.996569 0
M  V30 26 C 1.456638 -2.014862 -0.206671 0
M  V30 27 H 3.441078 -3.182074 6.829441 0
M  V30 28 H 3.199925 -3.996618 3.512548 0
M  V30 29 H 2.659094 -4.015213 1.174625 0
M  V30 30 H 1.528905 -0.066867 3.799660 0
M  V30 31 H 0.656743 2.081872 -0.574019 0
M  V30 32 H -1.101361 3.777788 -0.839230 0
M  V30 33 H -3.468241 4.299075 -1.205769 0
M  V30 34 H -2.096526 -0.356472 -0.448303 0
M  V30 35 H 0.013406 0.044741 -2.518991 0
M  V30 36 H 0.575921 -1.982083 -3.911677 0
M  V30 37 H 2.209414 -3.993823 -0.698565 0
M  V30 END ATOM
M  V30 BEGIN BOND
M  V30 1 2 1 2
M  V30 2 1 2 3
M  V30 3 1 2 4
M  V30 4 2 4 5
M  V30 5 1 5 6
M  V30 6 2 6 7
M  V30 7 1 7 8
M  V30 8 2 8 9
M  V30 9 1 8 10
M  V30 10 2 10 11
M  V30 11 1 11 12
M  V30 12 1 12 13
M  V30 13 2 13 14
M  V30 14 1 14 15
M  V30 15 2 15 16
M  V30 16 1 16 17
M  V30 17 1 16 18
M  V30 18 1 18 19
M  V30 19 2 18 20
M  V30 20 1 11 21
M  V30 21 2 21 22
M  V30 22 1 22 23
M  V30 23 2 23 24
M  V30 24 1 24 25
M  V30 25 2 25 26
M  V30 26 1 9 4
M  V30 27 1 20 13
M  V30 28 1 26 21
M  V30 29 1 26 7
M  V30 30 1 3 27
M  V30 31 1 5 28
M  V30 32 1 6 29
M  V30 33 1 9 30
M  V30 34 1 12 31
M  V30 35 1 14 32
M  V30 36 1 15 33
M  V30 37 1 20 34
M  V30 38 1 22 35
M  V30 39 1 23 36
M  V30 40 1 25 37
M  V30 END BOND
M  V30 END CTAB
M  END
>  <Dataset>  (320) 
ChEMBL_Kinases

>  <Ligand_Instance>  (320) 
nan

>  <PDB_ID>  (320) 
nan

>  <Standardized_SMILES>  (320) 
O=C(O)c1ccc2c(c1)nc(Nc1ccc(F)c(Cl)c1)c1ccncc12

>  <Name>  (320) 
nan

>  <Pocket>  (320) 
nan

>  <ATP_Site>  (320) 
nan

>  <Peripheral>  (320) 
nan

>  <Num_H_Atoms_ProtBoundConf>  (320) 
nan

>  <Num_Resolved_Atoms>  (320) 
nan

>  <Num_Not_Resolved_Atoms>  (320) 
nan

$$$$
CHEMBL1652706
     RDKit          3D

  0  0  0  0  0  0  0  0  0  0999 V3000
M  V30 BEGIN CTAB
M  V30 COUNTS 41 44 0 0 0
M  V30 BEGIN ATOM
M  V30 1 C 2.534636 -5.188479 3.275303 0
M  V30 2 O 1.525715 -4.626359 2.490592 0
M  V30 3 C 1.814126 -3.832312 1.406685 0
M  V30 4 C 3.032835 -3.450298 0.902317 0
M  V30 5 C 3.218342 -2.642867 -0.204773 0
M  V30 6 C 2.053255 -2.192122 -0.843960 0
M  V30 7 C 0.800524 -2.569110 -0.347309 0
M  V30 8 N -0.156018 -1.953742 -1.221086 0
M  V30 9 C -0.552224 -0.804366 -0.474234 0
M  V30 10 N 0.277786 0.251605 -0.485808 0
M  V30 11 C 0.059081 1.413143 0.147164 0
M  V30 12 C 1.011376 2.407210 0.044748 0
M  V30 13 C 0.733202 3.580482 0.721620 0
M  V30 14 C 1.712060 4.680549 0.660548 0
M  V30 15 O 1.639523 5.833308 1.208931 0
M  V30 16 O 2.893707 4.543150 -0.061242 0
M  V30 17 C -0.419508 3.770145 1.460992 0
M  V30 18 C -1.348855 2.724908 1.527933 0
M  V30 19 C -1.106020 1.541303 0.866866 0
M  V30 20 C -2.008216 0.508680 0.929422 0
M  V30 21 C -3.151402 0.649841 1.639598 0
M  V30 22 N -3.985682 -0.395846 1.655605 0
M  V30 23 C -3.742356 -1.551484 1.011684 0
M  V30 24 C -2.590728 -1.733204 0.277809 0
M  V30 25 C -1.729672 -0.657077 0.261053 0
M  V30 26 C 0.691451 -3.366884 0.747996 0
M  V30 27 H 3.522842 -4.768749 3.110921 0
M  V30 28 H 2.533160 -6.293030 3.095813 0
M  V30 29 H 2.305099 -5.059201 4.367299 0
M  V30 30 H 3.907999 -3.813918 1.416138 0
M  V30 31 H 4.228894 -2.412648 -0.501195 0
M  V30 32 H 2.328404 -1.563340 -1.705754 0
M  V30 33 H -0.512150 -2.240502 -2.181739 0
M  V30 34 H 1.909661 2.236435 -0.538661 0
M  V30 35 H 3.586292 5.239782 -0.202796 0
M  V30 36 H -0.594663 4.724299 1.982923 0
M  V30 37 H -2.215750 2.947441 2.120249 0
M  V30 38 H -3.476052 1.498548 2.196178 0
M  V30 39 H -4.474015 -2.342490 1.079042 0
M  V30 40 H -2.347318 -2.642567 -0.255281 0
M  V30 41 H -0.356504 -3.546283 0.973491 0
M  V30 END ATOM
M  V30 BEGIN BOND
M  V30 1 1 1 2
M  V30 2 1 2 3
M  V30 3 2 3 4
M  V30 4 1 4 5
M  V30 5 2 5 6
M  V30 6 1 6 7
M  V30 7 1 7 8
M  V30 8 1 8 9
M  V30 9 2 9 10
M  V30 10 1 10 11
M  V30 11 2 11 12
M  V30 12 1 12 13
M  V30 13 1 13 14
M  V30 14 2 14 15
M  V30 15 1 14 16
M  V30 16 2 13 17
M  V30 17 1 17 18
M  V30 18 2 18 19
M  V30 19 1 19 20
M  V30 20 2 20 21
M  V30 21 1 21 22
M  V30 22 2 22 23
M  V30 23 1 23 24
M  V30 24 2 24 25
M  V30 25 2 7 26
M  V30 26 1 26 3
M  V30 27 1 25 9
M  V30 28 1 19 11
M  V30 29 1 25 20
M  V30 30 1 1 27
M  V30 31 1 1 28
M  V30 32 1 1 29
M  V30 33 1 4 30
M  V30 34 1 5 31
M  V30 35 1 6 32
M  V30 36 1 8 33
M  V30 37 1 12 34
M  V30 38 1 16 35
M  V30 39 1 17 36
M  V30 40 1 18 37
M  V30 41 1 21 38
M  V30 42 1 23 39
M  V30 43 1 24 40
M  V30 44 1 26 41
M  V30 END BOND
M  V30 END CTAB
M  END
>  <Dataset>  (321) 
ChEMBL_Kinases

>  <Ligand_Instance>  (321) 
nan

>  <PDB_ID>  (321) 
nan

>  <Standardized_SMILES>  (321) 
COc1cccc(Nc2nc3cc(C(=O)O)ccc3c3cnccc23)c1

>  <Name>  (321) 
nan

>  <Pocket>  (321) 
nan

>  <ATP_Site>  (321) 
nan

>  <Peripheral>  (321) 
nan

>  <Num_H_Atoms_ProtBoundConf>  (321) 
nan

>  <Num_Resolved_Atoms>  (321) 
nan

>  <Num_Not_Resolved_Atoms>  (321) 
nan

$$$$
CHEMBL1652704
     RDKit          3D

  0  0  0  0  0  0  0  0  0  0999 V3000
M  V30 BEGIN CTAB
M  V30 COUNTS 43 46 0 0 0
M  V30 BEGIN ATOM
M  V30 1 O 5.640353 -3.981731 2.395976 0
M  V30 2 C 5.107945 -3.035769 1.764975 0
M  V30 3 O 5.893928 -1.998629 1.279986 0
M  V30 4 C 3.657947 -3.037766 1.547179 0
M  V30 5 C 2.924243 -4.094901 2.051684 0
M  V30 6 C 1.557825 -4.111311 1.854919 0
M  V30 7 C 0.982125 -3.075549 1.165148 0
M  V30 8 C 1.686880 -2.008546 0.650526 0
M  V30 9 C 3.070020 -1.997805 0.853114 0
M  V30 10 N 1.116469 -0.996195 -0.024791 0
M  V30 11 C -0.202961 -0.928453 -0.263403 0
M  V30 12 N -0.740854 0.150868 -0.977767 0
M  V30 13 C 0.100448 1.217468 -1.468085 0
M  V30 14 C 0.774946 1.950650 -0.354579 0
M  V30 15 C -0.196001 2.567030 0.587199 0
M  V30 16 C -0.709111 1.961488 1.700979 0
M  V30 17 C -1.615620 2.601236 2.537593 0
M  V30 18 C -2.041534 3.886544 2.279142 0
M  V30 19 C -1.545730 4.521738 1.169795 0
M  V30 20 C -0.648935 3.865582 0.357536 0
M  V30 21 C -0.930888 -1.984451 0.241321 0
M  V30 22 C -2.281952 -2.017283 0.056493 0
M  V30 23 C -3.093979 -3.030396 0.523576 0
M  V30 24 N -2.511905 -4.038832 1.198368 0
M  V30 25 C -1.162497 -4.049926 1.408512 0
M  V30 26 C -0.368137 -3.032155 0.936055 0
M  V30 27 H 6.834059 -1.812992 1.628061 0
M  V30 28 H 3.434619 -4.899288 2.596926 0
M  V30 29 H 1.044331 -4.940256 2.259855 0
M  V30 30 H 3.662968 -1.167508 0.459383 0
M  V30 31 H -1.739708 0.285762 -1.212804 0
M  V30 32 H 0.909571 0.757498 -2.089377 0
M  V30 33 H -0.412070 1.917970 -2.156446 0
M  V30 34 H 1.345883 2.799019 -0.819485 0
M  V30 35 H 1.524592 1.317093 0.130466 0
M  V30 36 H -0.395303 0.963122 1.925518 0
M  V30 37 H -1.969657 2.039412 3.401358 0
M  V30 38 H -2.744000 4.305627 2.978171 0
M  V30 39 H -1.877044 5.530316 0.962971 0
M  V30 40 H -0.294522 4.423532 -0.504192 0
M  V30 41 H -2.790701 -1.241078 -0.472032 0
M  V30 42 H -4.164711 -3.041765 0.368570 0
M  V30 43 H -0.856367 -4.918750 1.960398 0
M  V30 END ATOM
M  V30 BEGIN BOND
M  V30 1 2 1 2
M  V30 2 1 2 3
M  V30 3 1 2 4
M  V30 4 2 4 5
M  V30 5 1 5 6
M  V30 6 2 6 7
M  V30 7 1 7 8
M  V30 8 2 8 9
M  V30 9 1 8 10
M  V30 10 2 10 11
M  V30 11 1 11 12
M  V30 12 1 12 13
M  V30 13 1 13 14
M  V30 14 1 14 15
M  V30 15 2 15 16
M  V30 16 1 16 17
M  V30 17 2 17 18
M  V30 18 1 18 19
M  V30 19 2 19 20
M  V30 20 1 11 21
M  V30 21 2 21 22
M  V30 22 1 22 23
M  V30 23 2 23 24
M  V30 24 1 24 25
M  V30 25 2 25 26
M  V30 26 1 9 4
M  V30 27 1 20 15
M  V30 28 1 26 21
M  V30 29 1 26 7
M  V30 30 1 3 27
M  V30 31 1 5 28
M  V30 32 1 6 29
M  V30 33 1 9 30
M  V30 34 1 12 31
M  V30 35 1 13 32
M  V30 36 1 13 33
M  V30 37 1 14 34
M  V30 38 1 14 35
M  V30 39 1 16 36
M  V30 40 1 17 37
M  V30 41 1 18 38
M  V30 42 1 19 39
M  V30 43 1 20 40
M  V30 44 1 22 41
M  V30 45 1 23 42
M  V30 46 1 25 43
M  V30 END BOND
M  V30 END CTAB
M  END
>  <Dataset>  (322) 
ChEMBL_Kinases

>  <Ligand_Instance>  (322) 
nan

>  <PDB_ID>  (322) 
nan

>  <Standardized_SMILES>  (322) 
O=C(O)c1ccc2c(c1)nc(NCCc1ccccc1)c1ccncc12

>  <Name>  (322) 
nan

>  <Pocket>  (322) 
nan

>  <ATP_Site>  (322) 
nan

>  <Peripheral>  (322) 
nan

>  <Num_H_Atoms_ProtBoundConf>  (322) 
nan

>  <Num_Resolved_Atoms>  (322) 
nan

>  <Num_Not_Resolved_Atoms>  (322) 
nan

$$$$
CHEMBL1652703
     RDKit          3D

  0  0  0  0  0  0  0  0  0  0999 V3000
M  V30 BEGIN CTAB
M  V30 COUNTS 40 43 0 0 0
M  V30 BEGIN ATOM
M  V30 1 O 4.947662 -2.166565 1.135193 0
M  V30 2 C 4.153143 -2.976833 1.681853 0
M  V30 3 O 4.794554 -3.978656 2.394423 0
M  V30 4 C 2.700259 -2.891606 1.589654 0
M  V30 5 C 1.891907 -3.824007 2.221051 0
M  V30 6 C 0.525315 -3.706625 2.108415 0
M  V30 7 C 0.028602 -2.662024 1.369381 0
M  V30 8 C 0.800116 -1.717390 0.728627 0
M  V30 9 C 2.191538 -1.828590 0.837516 0
M  V30 10 N 0.315162 -0.697472 0.007053 0
M  V30 11 C -0.995957 -0.506438 -0.155649 0
M  V30 12 N -1.466594 0.586125 -0.931588 0
M  V30 13 C -0.636698 1.568018 -1.594674 0
M  V30 14 C 0.206379 2.367688 -0.701711 0
M  V30 15 C -0.403835 3.502048 -0.149385 0
M  V30 16 C 0.193947 4.388718 0.694189 0
M  V30 17 C 1.507733 4.181239 1.053847 0
M  V30 18 C 2.152087 3.078443 0.536197 0
M  V30 19 C 1.518675 2.201343 -0.314659 0
M  V30 20 C -1.800058 -1.425184 0.466340 0
M  V30 21 C -3.164601 -1.317678 0.360683 0
M  V30 22 C -4.057077 -2.188863 0.947571 0
M  V30 23 N -3.544786 -3.215008 1.674087 0
M  V30 24 C -2.193236 -3.355711 1.802589 0
M  V30 25 C -1.317136 -2.477529 1.210460 0
M  V30 26 H 5.580801 -3.791209 3.015177 0
M  V30 27 H 2.402805 -4.592569 2.768081 0
M  V30 28 H -0.055766 -4.438650 2.605333 0
M  V30 29 H 2.842675 -1.117960 0.357086 0
M  V30 30 H -2.480546 0.720119 -1.052217 0
M  V30 31 H 0.052321 1.064914 -2.333935 0
M  V30 32 H -1.270624 2.242660 -2.172538 0
M  V30 33 H -1.446089 3.747947 -0.378368 0
M  V30 34 H -0.297683 5.247324 1.100845 0
M  V30 35 H 2.106788 4.795295 1.709182 0
M  V30 36 H 3.181756 2.859146 0.778767 0
M  V30 37 H 2.003833 1.335282 -0.740722 0
M  V30 38 H -3.668222 -0.540152 -0.192339 0
M  V30 39 H -5.141856 -2.106460 0.865705 0
M  V30 40 H -1.953814 -4.211575 2.404312 0
M  V30 END ATOM
M  V30 BEGIN BOND
M  V30 1 2 1 2
M  V30 2 1 2 3
M  V30 3 1 2 4
M  V30 4 2 4 5
M  V30 5 1 5 6
M  V30 6 2 6 7
M  V30 7 1 7 8
M  V30 8 2 8 9
M  V30 9 1 8 10
M  V30 10 2 10 11
M  V30 11 1 11 12
M  V30 12 1 12 13
M  V30 13 1 13 14
M  V30 14 2 14 15
M  V30 15 1 15 16
M  V30 16 2 16 17
M  V30 17 1 17 18
M  V30 18 2 18 19
M  V30 19 1 11 20
M  V30 20 2 20 21
M  V30 21 1 21 22
M  V30 22 2 22 23
M  V30 23 1 23 24
M  V30 24 2 24 25
M  V30 25 1 9 4
M  V30 26 1 19 14
M  V30 27 1 25 20
M  V30 28 1 25 7
M  V30 29 1 3 26
M  V30 30 1 5 27
M  V30 31 1 6 28
M  V30 32 1 9 29
M  V30 33 1 12 30
M  V30 34 1 13 31
M  V30 35 1 13 32
M  V30 36 1 15 33
M  V30 37 1 16 34
M  V30 38 1 17 35
M  V30 39 1 18 36
M  V30 40 1 19 37
M  V30 41 1 21 38
M  V30 42 1 22 39
M  V30 43 1 24 40
M  V30 END BOND
M  V30 END CTAB
M  END
>  <Dataset>  (323) 
ChEMBL_Kinases

>  <Ligand_Instance>  (323) 
nan

>  <PDB_ID>  (323) 
nan

>  <Standardized_SMILES>  (323) 
O=C(O)c1ccc2c(c1)nc(NCc1ccccc1)c1ccncc12

>  <Name>  (323) 
nan

>  <Pocket>  (323) 
nan

>  <ATP_Site>  (323) 
nan

>  <Peripheral>  (323) 
nan

>  <Num_H_Atoms_ProtBoundConf>  (323) 
nan

>  <Num_Resolved_Atoms>  (323) 
nan

>  <Num_Not_Resolved_Atoms>  (323) 
nan

$$$$
CHEMBL1652697
     RDKit          3D

  0  0  0  0  0  0  0  0  0  0999 V3000
M  V30 BEGIN CTAB
M  V30 COUNTS 37 40 0 0 0
M  V30 BEGIN ATOM
M  V30 1 O 2.874718 -3.890894 5.319792 0
M  V30 2 C 2.845193 -2.789964 4.714204 0
M  V30 3 O 3.467478 -1.713701 5.351337 0
M  V30 4 C 2.187903 -2.668737 3.411416 0
M  V30 5 C 1.617388 -3.823027 2.897380 0
M  V30 6 C 0.983628 -3.716004 1.659386 0
M  V30 7 C 0.916488 -2.535298 0.967000 0
M  V30 8 C 1.504719 -1.390931 1.517509 0
M  V30 9 C 2.150169 -1.455676 2.756754 0
M  V30 10 N 1.494671 -0.182347 0.924385 0
M  V30 11 C 0.879291 -0.053898 -0.281760 0
M  V30 12 N 0.744807 1.107989 -1.101552 0
M  V30 13 C -0.353430 1.972883 -0.771905 0
M  V30 14 C -1.121287 1.720166 0.356709 0
M  V30 15 C -2.193994 2.521342 0.728770 0
M  V30 16 C -2.503963 3.604801 -0.052959 0
M  V30 17 C -1.761745 3.902941 -1.200926 0
M  V30 18 C -0.692428 3.084551 -1.550607 0
M  V30 19 C 0.291352 -1.163349 -0.848816 0
M  V30 20 C -0.366055 -1.156434 -2.085481 0
M  V30 21 C -0.955198 -2.249391 -2.670284 0
M  V30 22 N -0.887656 -3.412883 -1.990025 0
M  V30 23 C -0.277667 -3.517590 -0.796959 0
M  V30 24 C 0.299733 -2.402212 -0.244886 0
M  V30 25 H 3.577861 -1.694444 6.372277 0
M  V30 26 H 1.672814 -4.757108 3.447256 0
M  V30 27 H 0.562009 -4.620306 1.306774 0
M  V30 28 H 2.617662 -0.596650 3.217454 0
M  V30 29 H 1.332552 1.421696 -1.912792 0
M  V30 30 H -0.904653 0.865855 1.003417 0
M  V30 31 H -2.754616 2.256551 1.638206 0
M  V30 32 H -3.351046 4.219382 0.253069 0
M  V30 33 H -2.028597 4.761140 -1.797619 0
M  V30 34 H -0.092669 3.293868 -2.443888 0
M  V30 35 H -0.418233 -0.225820 -2.624911 0
M  V30 36 H -1.444079 -2.162534 -3.628102 0
M  V30 37 H -0.315473 -4.510393 -0.396653 0
M  V30 END ATOM
M  V30 BEGIN BOND
M  V30 1 2 1 2
M  V30 2 1 2 3
M  V30 3 1 2 4
M  V30 4 2 4 5
M  V30 5 1 5 6
M  V30 6 2 6 7
M  V30 7 1 7 8
M  V30 8 2 8 9
M  V30 9 1 8 10
M  V30 10 2 10 11
M  V30 11 1 11 12
M  V30 12 1 12 13
M  V30 13 2 13 14
M  V30 14 1 14 15
M  V30 15 2 15 16
M  V30 16 1 16 17
M  V30 17 2 17 18
M  V30 18 1 11 19
M  V30 19 2 19 20
M  V30 20 1 20 21
M  V30 21 2 21 22
M  V30 22 1 22 23
M  V30 23 2 23 24
M  V30 24 1 9 4
M  V30 25 1 18 13
M  V30 26 1 24 19
M  V30 27 1 24 7
M  V30 28 1 3 25
M  V30 29 1 5 26
M  V30 30 1 6 27
M  V30 31 1 9 28
M  V30 32 1 12 29
M  V30 33 1 14 30
M  V30 34 1 15 31
M  V30 35 1 16 32
M  V30 36 1 17 33
M  V30 37 1 18 34
M  V30 38 1 20 35
M  V30 39 1 21 36
M  V30 40 1 23 37
M  V30 END BOND
M  V30 END CTAB
M  END
>  <Dataset>  (324) 
ChEMBL_Kinases

>  <Ligand_Instance>  (324) 
nan

>  <PDB_ID>  (324) 
nan

>  <Standardized_SMILES>  (324) 
O=C(O)c1ccc2c(c1)nc(Nc1ccccc1)c1ccncc12

>  <Name>  (324) 
nan

>  <Pocket>  (324) 
nan

>  <ATP_Site>  (324) 
nan

>  <Peripheral>  (324) 
nan

>  <Num_H_Atoms_ProtBoundConf>  (324) 
nan

>  <Num_Resolved_Atoms>  (324) 
nan

>  <Num_Not_Resolved_Atoms>  (324) 
nan

$$$$
CHEMBL4789200
     RDKit          3D

  0  0  0  0  0  0  0  0  0  0999 V3000
M  V30 BEGIN CTAB
M  V30 COUNTS 65 70 0 0 0
M  V30 BEGIN ATOM
M  V30 1 C 3.605909 -2.230633 5.096513 0
M  V30 2 C 4.481174 -1.669645 3.988177 0
M  V30 3 C 4.255794 -2.506047 2.748317 0
M  V30 4 O 5.824920 -1.609981 4.352157 0
M  V30 5 C 6.229689 -0.294979 4.284410 0
M  V30 6 O 7.392231 0.182453 4.549511 0
M  V30 7 C 5.183864 0.621703 3.858589 0
M  V30 8 C 5.078698 1.976740 3.638306 0
M  V30 9 C 3.829953 2.385301 3.224242 0
M  V30 10 C 2.744712 1.566196 3.029414 0
M  V30 11 N 1.519277 2.147653 2.608014 0
M  V30 12 C 0.333245 1.419247 2.336088 0
M  V30 13 N -0.565062 1.080687 3.272561 0
M  V30 14 C -1.684418 0.395880 2.999280 0
M  V30 15 C -1.984418 -0.008455 1.716318 0
M  V30 16 C -3.183546 -0.742228 1.386387 0
M  V30 17 N -3.761942 -1.258715 0.310683 0
M  V30 18 C -4.921111 -1.865706 0.568733 0
M  V30 19 C -5.523053 -2.419332 -0.654460 0
M  V30 20 C -6.150838 -1.531913 -1.499625 0
M  V30 21 C -6.729504 -2.031107 -2.662777 0
M  V30 22 N -6.668687 -3.344717 -2.939375 0
M  V30 23 C -6.073370 -4.235174 -2.152339 0
M  V30 24 C -5.486092 -3.776177 -0.985581 0
M  V30 25 N -5.051193 -1.706936 1.878122 0
M  V30 26 O -4.039126 -1.053102 2.351479 0
M  V30 27 C -1.068915 0.333614 0.745528 0
M  V30 28 N -1.204223 0.002608 -0.627278 0
M  V30 29 C -0.246538 0.364183 -1.637712 0 CFG=2
M  V30 30 C -0.078512 1.860891 -1.807563 0
M  V30 31 O 0.883623 2.013147 -2.831048 0
M  V30 32 C -0.564015 -0.288761 -2.928755 0
M  V30 33 C 0.256690 -0.966346 -3.803266 0
M  V30 34 C -0.216343 -1.517664 -4.984062 0
M  V30 35 C -1.554560 -1.368746 -5.268392 0
M  V30 36 C -2.459178 -0.706946 -4.456594 0
M  V30 37 C -1.912148 -0.180182 -3.289488 0
M  V30 38 N 0.029488 1.020325 1.094569 0
M  V30 39 C 2.885768 0.214496 3.259257 0
M  V30 40 C 4.117431 -0.263183 3.678372 0
M  V30 41 H 2.657039 -2.536118 4.579482 0
M  V30 42 H 3.371676 -1.416058 5.804987 0
M  V30 43 H 4.094751 -3.109759 5.551287 0
M  V30 44 H 5.025438 -2.237776 1.998874 0
M  V30 45 H 3.251337 -2.206789 2.333330 0
M  V30 46 H 4.281060 -3.592930 2.962568 0
M  V30 47 H 5.932155 2.617927 3.792311 0
M  V30 48 H 3.705158 3.460980 3.035425 0
M  V30 49 H 1.414173 3.154147 2.470936 0
M  V30 50 H -2.344499 0.170045 3.816857 0
M  V30 51 H -6.219257 -0.450498 -1.306527 0
M  V30 52 H -7.223054 -1.294488 -3.316539 0
M  V30 53 H -6.010773 -5.294029 -2.351632 0
M  V30 54 H -4.970586 -4.354803 -0.248252 0
M  V30 55 H -2.022449 -0.532247 -0.977070 0
M  V30 56 H 0.744918 -0.055646 -1.310440 0
M  V30 57 H 0.291746 2.293750 -0.859800 0
M  V30 58 H -1.005142 2.337383 -2.169720 0
M  V30 59 H 1.050298 2.943385 -3.055445 0
M  V30 60 H 1.289880 -1.010757 -3.458916 0
M  V30 61 H 0.495788 -2.033555 -5.611749 0
M  V30 62 H -1.867950 -1.813009 -6.190913 0
M  V30 63 H -3.481876 -0.624890 -4.728408 0
M  V30 64 H -2.657873 0.332751 -2.687662 0
M  V30 65 H 1.991311 -0.363269 3.085097 0
M  V30 END ATOM
M  V30 BEGIN BOND
M  V30 1 1 1 2
M  V30 2 1 2 3
M  V30 3 1 2 4
M  V30 4 1 4 5
M  V30 5 2 5 6
M  V30 6 1 5 7
M  V30 7 2 7 8
M  V30 8 1 8 9
M  V30 9 2 9 10
M  V30 10 1 10 11
M  V30 11 1 11 12
M  V30 12 2 12 13
M  V30 13 1 13 14
M  V30 14 2 14 15
M  V30 15 1 15 16
M  V30 16 2 16 17
M  V30 17 1 17 18
M  V30 18 1 18 19
M  V30 19 2 19 20
M  V30 20 1 20 21
M  V30 21 2 21 22
M  V30 22 1 22 23
M  V30 23 2 23 24
M  V30 24 2 18 25
M  V30 25 1 25 26
M  V30 26 1 15 27
M  V30 27 1 27 28
M  V30 28 1 28 29
M  V30 29 1 29 30
M  V30 30 1 30 31
M  V30 31 1 29 32
M  V30 32 2 32 33
M  V30 33 1 33 34
M  V30 34 2 34 35
M  V30 35 1 35 36
M  V30 36 2 36 37
M  V30 37 2 27 38
M  V30 38 1 10 39
M  V30 39 2 39 40
M  V30 40 1 40 2
M  V30 41 1 40 7
M  V30 42 1 38 12
M  V30 43 1 26 16
M  V30 44 1 37 32
M  V30 45 1 24 19
M  V30 46 1 1 41
M  V30 47 1 1 42
M  V30 48 1 1 43
M  V30 49 1 3 44
M  V30 50 1 3 45
M  V30 51 1 3 46
M  V30 52 1 8 47
M  V30 53 1 9 48
M  V30 54 1 11 49
M  V30 55 1 14 50
M  V30 56 1 20 51
M  V30 57 1 21 52
M  V30 58 1 23 53
M  V30 59 1 24 54
M  V30 60 1 28 55
M  V30 61 1 29 56 CFG=1
M  V30 62 1 30 57
M  V30 63 1 30 58
M  V30 64 1 31 59
M  V30 65 1 33 60
M  V30 66 1 34 61
M  V30 67 1 35 62
M  V30 68 1 36 63
M  V30 69 1 37 64
M  V30 70 1 39 65
M  V30 END BOND
M  V30 END CTAB
M  END
>  <Dataset>  (325) 
ChEMBL_Kinases

>  <Ligand_Instance>  (325) 
nan

>  <PDB_ID>  (325) 
nan

>  <Standardized_SMILES>  (325) 
CC1(C)OC(=O)c2ccc(Nc3ncc(-c4nc(-c5ccncc5)no4)c(N[C@H](CO)c4ccccc4)n3)cc21

>  <Name>  (325) 
nan

>  <Pocket>  (325) 
nan

>  <ATP_Site>  (325) 
nan

>  <Peripheral>  (325) 
nan

>  <Num_H_Atoms_ProtBoundConf>  (325) 
nan

>  <Num_Resolved_Atoms>  (325) 
nan

>  <Num_Not_Resolved_Atoms>  (325) 
nan

$$$$
CHEMBL4789210
     RDKit          3D

  0  0  0  0  0  0  0  0  0  0999 V3000
M  V30 BEGIN CTAB
M  V30 COUNTS 36 38 0 0 0
M  V30 BEGIN ATOM
M  V30 1 N 0.312863 -4.674180 4.660807 0
M  V30 2 C 0.600713 -3.935451 3.455038 0
M  V30 3 C 0.726484 -4.640601 2.251617 0
M  V30 4 C 1.001747 -3.921813 1.107448 0
M  V30 5 C 1.155905 -2.550949 1.104973 0
M  V30 6 N 1.442663 -1.846193 -0.096175 0
M  V30 7 C 1.590895 -0.435595 -0.204102 0
M  V30 8 N 2.697409 0.322801 -0.049596 0
M  V30 9 C 2.639906 1.642160 -0.195060 0
M  V30 10 C 1.454671 2.270994 -0.506479 0
M  V30 11 C 1.379901 3.754223 -0.670389 0
M  V30 12 F 0.508134 4.334607 0.224913 0
M  V30 13 F 0.989700 4.071046 -1.977975 0
M  V30 14 F 2.660664 4.259504 -0.530845 0
M  V30 15 C 0.290317 1.509709 -0.672787 0
M  V30 16 N -0.973876 2.097442 -1.000509 0
M  V30 17 C -2.232951 1.449709 -1.196375 0
M  V30 18 C -2.436602 0.424896 -2.244562 0
M  V30 19 C -2.519201 0.063389 -0.755126 0
M  V30 20 N 0.473305 0.204646 -0.502420 0
M  V30 21 C 1.029747 -1.849156 2.308616 0
M  V30 22 C 0.752494 -2.547185 3.477963 0
M  V30 23 H -0.303940 -4.193305 5.367978 0
M  V30 24 H 0.716678 -5.630367 4.780431 0
M  V30 25 H 0.612657 -5.719838 2.207726 0
M  V30 26 H 1.095541 -4.499524 0.173921 0
M  V30 27 H 1.556616 -2.387372 -0.977226 0
M  V30 28 H 3.533879 2.232277 -0.067760 0
M  V30 29 H -0.933904 3.155326 -1.106439 0
M  V30 30 H -3.120284 2.139437 -1.064021 0
M  V30 31 H -1.593562 -0.073363 -2.758164 0
M  V30 32 H -3.377344 0.415785 -2.825696 0
M  V30 33 H -1.747163 -0.565551 -0.315564 0
M  V30 34 H -3.557478 -0.208060 -0.423690 0
M  V30 35 H 1.142816 -0.757329 2.365344 0
M  V30 36 H 0.644266 -2.038990 4.449168 0
M  V30 END ATOM
M  V30 BEGIN BOND
M  V30 1 1 1 2
M  V30 2 2 2 3
M  V30 3 1 3 4
M  V30 4 2 4 5
M  V30 5 1 5 6
M  V30 6 1 6 7
M  V30 7 2 7 8
M  V30 8 1 8 9
M  V30 9 2 9 10
M  V30 10 1 10 11
M  V30 11 1 11 12
M  V30 12 1 11 13
M  V30 13 1 11 14
M  V30 14 1 10 15
M  V30 15 1 15 16
M  V30 16 1 16 17
M  V30 17 1 17 18
M  V30 18 1 18 19
M  V30 19 2 15 20
M  V30 20 1 5 21
M  V30 21 2 21 22
M  V30 22 1 22 2
M  V30 23 1 20 7
M  V30 24 1 19 17
M  V30 25 1 1 23
M  V30 26 1 1 24
M  V30 27 1 3 25
M  V30 28 1 4 26
M  V30 29 1 6 27
M  V30 30 1 9 28
M  V30 31 1 16 29
M  V30 32 1 17 30
M  V30 33 1 18 31
M  V30 34 1 18 32
M  V30 35 1 19 33
M  V30 36 1 19 34
M  V30 37 1 21 35
M  V30 38 1 22 36
M  V30 END BOND
M  V30 END CTAB
M  END
>  <Dataset>  (326) 
ChEMBL_Kinases

>  <Ligand_Instance>  (326) 
nan

>  <PDB_ID>  (326) 
nan

>  <Standardized_SMILES>  (326) 
Nc1ccc(Nc2ncc(C(F)(F)F)c(NC3CC3)n2)cc1

>  <Name>  (326) 
nan

>  <Pocket>  (326) 
nan

>  <ATP_Site>  (326) 
nan

>  <Peripheral>  (326) 
nan

>  <Num_H_Atoms_ProtBoundConf>  (326) 
nan

>  <Num_Resolved_Atoms>  (326) 
nan

>  <Num_Not_Resolved_Atoms>  (326) 
nan

$$$$
CHEMBL1681823
     RDKit          3D

  0  0  0  0  0  0  0  0  0  0999 V3000
M  V30 BEGIN CTAB
M  V30 COUNTS 64 65 0 0 0
M  V30 BEGIN ATOM
M  V30 1 C 1.011962 -1.278148 4.998165 0
M  V30 2 C 1.671131 -2.392683 4.233802 0
M  V30 3 C 2.445827 -1.866526 3.063698 0
M  V30 4 C 1.548124 -1.170620 2.095506 0
M  V30 5 C 2.324690 -0.610529 0.907054 0
M  V30 6 C 3.079847 -1.620055 0.141771 0
M  V30 7 C 2.403316 -2.713752 -0.527022 0
M  V30 8 C 1.459146 -2.512919 -1.647875 0
M  V30 9 C 2.064758 -1.835647 -2.839457 0
M  V30 10 C 1.326242 -1.722120 -4.070984 0
M  V30 11 C 0.090485 -1.074889 -4.384931 0
M  V30 12 C -0.187398 0.354993 -4.284445 0
M  V30 13 C -0.197431 0.989954 -2.973661 0
M  V30 14 C 0.763312 1.560295 -2.203209 0
M  V30 15 C 0.467096 2.172869 -0.992092 0
M  V30 16 C -0.805074 2.260661 -0.462735 0
M  V30 17 S -1.177116 3.039136 1.041554 0
M  V30 18 O -2.558799 3.695161 0.983906 0
M  V30 19 O -0.233136 4.199523 1.295127 0
M  V30 20 N -1.191883 2.030548 2.404706 0
M  V30 21 C -2.006813 0.892114 2.740251 0
M  V30 22 N -2.143438 0.119013 3.589759 0
M  V30 23 N -3.006280 -0.835511 3.629135 0
M  V30 24 C -3.797297 -1.112150 2.853972 0
M  V30 25 C -4.914075 -2.053200 2.495002 0
M  V30 26 C -6.202327 -1.581787 3.049103 0
M  V30 27 O -6.146206 -0.498539 3.714737 0
M  V30 28 O -7.465947 -1.217226 3.531192 0
M  V30 29 S -3.373368 0.256689 1.614951 0
M  V30 30 C -1.832387 1.702104 -1.189674 0
M  V30 31 C -1.486126 1.095179 -2.403799 0
M  V30 32 H 0.386031 -0.612463 4.401050 0
M  V30 33 H 0.330410 -1.749441 5.750901 0
M  V30 34 H 1.764316 -0.661736 5.541209 0
M  V30 35 H 2.316169 -2.970664 4.934024 0
M  V30 36 H 0.832129 -3.052691 3.865687 0
M  V30 37 H 2.978932 -2.735501 2.625196 0
M  V30 38 H 3.244574 -1.204418 3.466832 0
M  V30 39 H 1.140112 -0.261424 2.594235 0
M  V30 40 H 0.691576 -1.790937 1.806789 0
M  V30 41 H 3.079132 0.094412 1.355058 0
M  V30 42 H 1.618452 -0.008220 0.347311 0
M  V30 43 H 3.812784 -1.052618 -0.499581 0
M  V30 44 H 3.792675 -2.098541 0.892777 0
M  V30 45 H 1.849881 -3.307991 0.271170 0
M  V30 46 H 3.173384 -3.450837 -0.873591 0
M  V30 47 H 1.111123 -3.514690 -1.972592 0
M  V30 48 H 0.556838 -1.985711 -1.274336 0
M  V30 49 H 3.018362 -2.409178 -3.072664 0
M  V30 50 H 2.455523 -0.851913 -2.485553 0
M  V30 51 H 2.097860 -1.357114 -4.874255 0
M  V30 52 H 1.214340 -2.819033 -4.473462 0
M  V30 53 H -0.744806 -1.609174 -3.782925 0
M  V30 54 H -0.214433 -1.447612 -5.439676 0
M  V30 55 H -1.215385 0.519058 -4.753593 0
M  V30 56 H 0.441487 0.969731 -5.017900 0
M  V30 57 H 1.749848 1.479982 -2.634193 0
M  V30 58 H 1.307706 2.612081 -0.429033 0
M  V30 59 H -0.527736 2.203095 3.170117 0
M  V30 60 H -5.010511 -2.156467 1.393287 0
M  V30 61 H -4.646108 -3.018648 2.968009 0
M  V30 62 H -8.102069 -2.007830 3.716998 0
M  V30 63 H -2.852573 1.727191 -0.869862 0
M  V30 64 H -2.370391 0.671983 -2.917226 0
M  V30 END ATOM
M  V30 BEGIN BOND
M  V30 1 1 1 2
M  V30 2 1 2 3
M  V30 3 1 3 4
M  V30 4 1 4 5
M  V30 5 1 5 6
M  V30 6 1 6 7
M  V30 7 1 7 8
M  V30 8 1 8 9
M  V30 9 1 9 10
M  V30 10 1 10 11
M  V30 11 1 11 12
M  V30 12 1 12 13
M  V30 13 2 13 14
M  V30 14 1 14 15
M  V30 15 2 15 16
M  V30 16 1 16 17
M  V30 17 2 17 18
M  V30 18 2 17 19
M  V30 19 1 17 20
M  V30 20 1 20 21
M  V30 21 2 21 22
M  V30 22 1 22 23
M  V30 23 2 23 24
M  V30 24 1 24 25
M  V30 25 1 25 26
M  V30 26 2 26 27
M  V30 27 1 26 28
M  V30 28 1 24 29
M  V30 29 1 16 30
M  V30 30 2 30 31
M  V30 31 1 31 13
M  V30 32 1 29 21
M  V30 33 1 1 32
M  V30 34 1 1 33
M  V30 35 1 1 34
M  V30 36 1 2 35
M  V30 37 1 2 36
M  V30 38 1 3 37
M  V30 39 1 3 38
M  V30 40 1 4 39
M  V30 41 1 4 40
M  V30 42 1 5 41
M  V30 43 1 5 42
M  V30 44 1 6 43
M  V30 45 1 6 44
M  V30 46 1 7 45
M  V30 47 1 7 46
M  V30 48 1 8 47
M  V30 49 1 8 48
M  V30 50 1 9 49
M  V30 51 1 9 50
M  V30 52 1 10 51
M  V30 53 1 10 52
M  V30 54 1 11 53
M  V30 55 1 11 54
M  V30 56 1 12 55
M  V30 57 1 12 56
M  V30 58 1 14 57
M  V30 59 1 15 58
M  V30 60 1 20 59
M  V30 61 1 25 60
M  V30 62 1 25 61
M  V30 63 1 28 62
M  V30 64 1 30 63
M  V30 65 1 31 64
M  V30 END BOND
M  V30 END CTAB
M  END
>  <Dataset>  (327) 
ChEMBL_Kinases

>  <Ligand_Instance>  (327) 
nan

>  <PDB_ID>  (327) 
nan

>  <Standardized_SMILES>  (327) 
CCCCCCCCCCCCc1ccc(S(=O)(=O)Nc2nnc(CC(=O)O)s2)cc1

>  <Name>  (327) 
nan

>  <Pocket>  (327) 
nan

>  <ATP_Site>  (327) 
nan

>  <Peripheral>  (327) 
nan

>  <Num_H_Atoms_ProtBoundConf>  (327) 
nan

>  <Num_Resolved_Atoms>  (327) 
nan

>  <Num_Not_Resolved_Atoms>  (327) 
nan

$$$$
CHEMBL1649765
     RDKit          3D

  0  0  0  0  0  0  0  0  0  0999 V3000
M  V30 BEGIN CTAB
M  V30 COUNTS 37 40 0 0 0
M  V30 BEGIN ATOM
M  V30 1 O 5.096447 0.965599 -0.337841 0
M  V30 2 C 3.968194 0.419477 -0.255773 0
M  V30 3 O 3.306196 0.443076 -1.476593 0
M  V30 4 C 3.411427 -0.173449 0.978118 0
M  V30 5 C 4.230926 -0.093837 2.085537 0
M  V30 6 C 3.838407 -0.606324 3.303999 0
M  V30 7 C 2.589628 -1.221384 3.437390 0
M  V30 8 C 1.815762 -1.279324 2.328472 0
M  V30 9 C 2.176209 -0.777843 1.095541 0
M  V30 10 N 1.427353 -0.827930 -0.000074 0
M  V30 11 C 0.218765 -1.396242 0.029183 0
M  V30 12 N -0.616250 -1.467905 -1.138046 0
M  V30 13 C -1.503747 -0.381116 -1.353235 0
M  V30 14 C -2.362299 -0.341439 -2.434336 0
M  V30 15 C -3.257220 0.664376 -2.730108 0
M  V30 16 C -3.282510 1.738329 -1.837345 0
M  V30 17 C -2.444013 1.766989 -0.723553 0
M  V30 18 Cl -2.526158 3.146391 0.356433 0
M  V30 19 C -1.585560 0.709048 -0.520018 0
M  V30 20 C -0.212891 -1.923746 1.237018 0
M  V30 21 C -1.436164 -2.520390 1.349556 0
M  V30 22 C -1.907328 -3.063326 2.549874 0
M  V30 23 N -1.094513 -2.970925 3.598266 0
M  V30 24 C 0.119042 -2.396639 3.551281 0
M  V30 25 C 0.573298 -1.865694 2.366855 0
M  V30 26 H 3.116563 1.316899 -1.977242 0
M  V30 27 H 5.221377 0.372966 2.058447 0
M  V30 28 H 4.498767 -0.532444 4.159279 0
M  V30 29 H 2.358622 -1.588893 4.396463 0
M  V30 30 H -0.621412 -2.243610 -1.829578 0
M  V30 31 H -2.328874 -1.193366 -3.124977 0
M  V30 32 H -3.884937 0.618745 -3.585469 0
M  V30 33 H -3.994388 2.526332 -2.083755 0
M  V30 34 H -0.956632 0.769631 0.349839 0
M  V30 35 H -2.099145 -2.591492 0.479960 0
M  V30 36 H -2.879490 -3.537841 2.640162 0
M  V30 37 H 0.624197 -2.419123 4.499241 0
M  V30 END ATOM
M  V30 BEGIN BOND
M  V30 1 2 1 2
M  V30 2 1 2 3
M  V30 3 1 2 4
M  V30 4 2 4 5
M  V30 5 1 5 6
M  V30 6 2 6 7
M  V30 7 1 7 8
M  V30 8 2 8 9
M  V30 9 1 9 10
M  V30 10 2 10 11
M  V30 11 1 11 12
M  V30 12 1 12 13
M  V30 13 2 13 14
M  V30 14 1 14 15
M  V30 15 2 15 16
M  V30 16 1 16 17
M  V30 17 1 17 18
M  V30 18 2 17 19
M  V30 19 1 11 20
M  V30 20 2 20 21
M  V30 21 1 21 22
M  V30 22 2 22 23
M  V30 23 1 23 24
M  V30 24 2 24 25
M  V30 25 1 9 4
M  V30 26 1 19 13
M  V30 27 1 25 20
M  V30 28 1 25 8
M  V30 29 1 3 26
M  V30 30 1 5 27
M  V30 31 1 6 28
M  V30 32 1 7 29
M  V30 33 1 12 30
M  V30 34 1 14 31
M  V30 35 1 15 32
M  V30 36 1 16 33
M  V30 37 1 19 34
M  V30 38 1 21 35
M  V30 39 1 22 36
M  V30 40 1 24 37
M  V30 END BOND
M  V30 END CTAB
M  END
>  <Dataset>  (328) 
ChEMBL_Kinases

>  <Ligand_Instance>  (328) 
nan

>  <PDB_ID>  (328) 
nan

>  <Standardized_SMILES>  (328) 
O=C(O)c1cccc2c1nc(Nc1cccc(Cl)c1)c1ccncc12

>  <Name>  (328) 
nan

>  <Pocket>  (328) 
nan

>  <ATP_Site>  (328) 
nan

>  <Peripheral>  (328) 
nan

>  <Num_H_Atoms_ProtBoundConf>  (328) 
nan

>  <Num_Resolved_Atoms>  (328) 
nan

>  <Num_Not_Resolved_Atoms>  (328) 
nan

$$$$
CHEMBL1649761
     RDKit          3D

  0  0  0  0  0  0  0  0  0  0999 V3000
M  V30 BEGIN CTAB
M  V30 COUNTS 38 41 0 0 0
M  V30 BEGIN ATOM
M  V30 1 N 3.765608 -5.299937 -0.407635 0
M  V30 2 C 3.730707 -3.869414 -0.376558 0
M  V30 3 O 4.625561 -3.215607 -0.852526 0
M  V30 4 C 2.434909 -3.649122 0.330288 0
M  V30 5 C 1.580184 -4.369546 1.132997 0
M  V30 6 C 0.420391 -3.745435 1.516704 0
M  V30 7 C 0.067504 -2.471867 1.156282 0
M  V30 8 C 0.915324 -1.728337 0.347340 0
M  V30 9 C 2.109278 -2.334155 -0.063028 0
M  V30 10 N 0.487236 -0.506025 0.029377 0
M  V30 11 C -0.668979 0.028339 0.432309 0
M  V30 12 N -0.827642 1.324872 -0.103870 0
M  V30 13 C -0.390029 2.655690 0.091193 0
M  V30 14 C -0.793739 3.573099 -0.851043 0
M  V30 15 C -0.376327 4.877948 -0.716481 0
M  V30 16 C 0.427611 5.245865 0.343333 0
M  V30 17 C 0.861887 4.359441 1.319994 0
M  V30 18 Cl 1.879295 4.814794 2.663903 0
M  V30 19 C 0.409625 3.077129 1.124466 0
M  V30 20 C -1.509279 -0.703158 1.235579 0
M  V30 21 C -2.674145 -0.089321 1.606127 0
M  V30 22 C -3.503189 -0.836597 2.407778 0
M  V30 23 N -3.182067 -2.088622 2.796904 0
M  V30 24 C -2.014181 -2.665079 2.407711 0
M  V30 25 C -1.134430 -1.987431 1.609079 0
M  V30 26 H 3.177026 -6.151183 -0.401738 0
M  V30 27 H 4.436075 -6.100241 -0.448746 0
M  V30 28 H 2.043023 -5.308477 1.285043 0
M  V30 29 H -0.158512 -4.396887 2.130692 0
M  V30 30 H 2.635271 -1.607109 -0.680722 0
M  V30 31 H -1.487201 1.059923 -0.844112 0
M  V30 32 H -1.419944 3.294678 -1.681125 0
M  V30 33 H -0.702419 5.584457 -1.466551 0
M  V30 34 H 0.743106 6.292462 0.421052 0
M  V30 35 H 0.687477 2.303116 1.827411 0
M  V30 36 H -2.897575 0.908587 1.276968 0
M  V30 37 H -4.446534 -0.435146 2.752438 0
M  V30 38 H -1.776185 -3.662834 2.731347 0
M  V30 END ATOM
M  V30 BEGIN BOND
M  V30 1 1 1 2
M  V30 2 2 2 3
M  V30 3 1 2 4
M  V30 4 2 4 5
M  V30 5 1 5 6
M  V30 6 2 6 7
M  V30 7 1 7 8
M  V30 8 2 8 9
M  V30 9 1 8 10
M  V30 10 2 10 11
M  V30 11 1 11 12
M  V30 12 1 12 13
M  V30 13 2 13 14
M  V30 14 1 14 15
M  V30 15 2 15 16
M  V30 16 1 16 17
M  V30 17 1 17 18
M  V30 18 2 17 19
M  V30 19 1 11 20
M  V30 20 2 20 21
M  V30 21 1 21 22
M  V30 22 2 22 23
M  V30 23 1 23 24
M  V30 24 2 24 25
M  V30 25 1 9 4
M  V30 26 1 19 13
M  V30 27 1 25 20
M  V30 28 1 25 7
M  V30 29 1 1 26
M  V30 30 1 1 27
M  V30 31 1 5 28
M  V30 32 1 6 29
M  V30 33 1 9 30
M  V30 34 1 12 31
M  V30 35 1 14 32
M  V30 36 1 15 33
M  V30 37 1 16 34
M  V30 38 1 19 35
M  V30 39 1 21 36
M  V30 40 1 22 37
M  V30 41 1 24 38
M  V30 END BOND
M  V30 END CTAB
M  END
>  <Dataset>  (329) 
ChEMBL_Kinases

>  <Ligand_Instance>  (329) 
nan

>  <PDB_ID>  (329) 
nan

>  <Standardized_SMILES>  (329) 
NC(=O)c1ccc2c(c1)nc(Nc1cccc(Cl)c1)c1ccncc12

>  <Name>  (329) 
nan

>  <Pocket>  (329) 
nan

>  <ATP_Site>  (329) 
nan

>  <Peripheral>  (329) 
nan

>  <Num_H_Atoms_ProtBoundConf>  (329) 
nan

>  <Num_Resolved_Atoms>  (329) 
nan

>  <Num_Not_Resolved_Atoms>  (329) 
nan

$$$$
CHEMBL4789703
     RDKit          3D

  0  0  0  0  0  0  0  0  0  0999 V3000
M  V30 BEGIN CTAB
M  V30 COUNTS 47 52 0 0 0
M  V30 BEGIN ATOM
M  V30 1 N 3.381050 -3.910010 1.261818 0
M  V30 2 C 3.800210 -2.778557 2.018871 0
M  V30 3 C 4.678827 -2.956760 3.075942 0
M  V30 4 N 5.034253 -1.826503 3.753971 0
M  V30 5 C 4.550367 -0.621701 3.402367 0
M  V30 6 C 3.667096 -0.427967 2.342782 0
M  V30 7 C 3.150547 0.886256 1.973798 0
M  V30 8 C 3.932206 2.020533 2.161690 0
M  V30 9 N 3.417247 3.223698 1.806617 0
M  V30 10 C 2.182873 3.324217 1.285543 0
M  V30 11 N 1.432843 4.350854 0.854421 0
M  V30 12 N 0.269684 3.912663 0.426579 0
M  V30 13 C 0.150658 2.584321 0.534999 0
M  V30 14 C -0.998034 1.825577 0.150996 0
M  V30 15 C -1.386047 0.513062 0.146031 0
M  V30 16 C -2.653691 0.325868 -0.355264 0
M  V30 17 C -3.405140 -0.816693 -0.528660 0
M  V30 18 C -2.908565 -2.140874 -0.176266 0
M  V30 19 C -1.688864 -2.727296 -0.465356 0
M  V30 20 C -1.409929 -3.991676 -0.036253 0
M  V30 21 N -2.293115 -4.736580 0.685368 0
M  V30 22 C -3.496749 -4.172716 0.977073 0
M  V30 23 C -3.813054 -2.886463 0.555190 0
M  V30 24 C -4.674739 -0.722863 -1.061422 0
M  V30 25 C -5.073119 0.570626 -1.378617 0
M  V30 26 N -4.320667 1.671537 -1.200119 0
M  V30 27 C -3.081920 1.580746 -0.680181 0
M  V30 28 N -2.090705 2.426486 -0.371039 0
M  V30 29 C 1.358042 2.220594 1.076185 0
M  V30 30 C 1.887383 1.007482 1.438346 0
M  V30 31 C 3.282870 -1.557124 1.629053 0
M  V30 32 H 3.647291 -4.507431 0.438830 0
M  V30 33 H 2.503026 -4.386377 1.552062 0
M  V30 34 H 5.048929 -3.947484 3.330668 0
M  V30 35 H 4.874846 0.246657 3.986937 0
M  V30 36 H 4.931333 1.892503 2.588806 0
M  V30 37 H 1.697180 5.359816 0.843963 0
M  V30 38 H -0.769245 -0.293177 0.498182 0
M  V30 39 H -1.032684 -2.091799 -1.040905 0
M  V30 40 H -0.448450 -4.411016 -0.282995 0
M  V30 41 H -4.163548 -4.807898 1.553660 0
M  V30 42 H -4.810631 -2.555859 0.856688 0
M  V30 43 H -5.349200 -1.542883 -1.241208 0
M  V30 44 H -6.054793 0.782375 -1.807238 0
M  V30 45 H -2.279359 3.449578 -0.570038 0
M  V30 46 H 1.311300 0.137028 1.303830 0
M  V30 47 H 2.602272 -1.439039 0.805890 0
M  V30 END ATOM
M  V30 BEGIN BOND
M  V30 1 1 1 2
M  V30 2 2 2 3
M  V30 3 1 3 4
M  V30 4 2 4 5
M  V30 5 1 5 6
M  V30 6 1 6 7
M  V30 7 2 7 8
M  V30 8 1 8 9
M  V30 9 2 9 10
M  V30 10 1 10 11
M  V30 11 1 11 12
M  V30 12 2 12 13
M  V30 13 1 13 14
M  V30 14 2 14 15
M  V30 15 1 15 16
M  V30 16 2 16 17
M  V30 17 1 17 18
M  V30 18 2 18 19
M  V30 19 1 19 20
M  V30 20 2 20 21
M  V30 21 1 21 22
M  V30 22 2 22 23
M  V30 23 1 17 24
M  V30 24 2 24 25
M  V30 25 1 25 26
M  V30 26 2 26 27
M  V30 27 1 27 28
M  V30 28 1 13 29
M  V30 29 2 29 30
M  V30 30 2 6 31
M  V30 31 1 31 2
M  V30 32 1 30 7
M  V30 33 1 29 10
M  V30 34 1 28 14
M  V30 35 1 27 16
M  V30 36 1 23 18
M  V30 37 1 1 32
M  V30 38 1 1 33
M  V30 39 1 3 34
M  V30 40 1 5 35
M  V30 41 1 8 36
M  V30 42 1 11 37
M  V30 43 1 15 38
M  V30 44 1 19 39
M  V30 45 1 20 40
M  V30 46 1 22 41
M  V30 47 1 23 42
M  V30 48 1 24 43
M  V30 49 1 25 44
M  V30 50 1 28 45
M  V30 51 1 30 46
M  V30 52 1 31 47
M  V30 END BOND
M  V30 END CTAB
M  END
>  <Dataset>  (330) 
ChEMBL_Kinases

>  <Ligand_Instance>  (330) 
nan

>  <PDB_ID>  (330) 
nan

>  <Standardized_SMILES>  (330) 
Nc1cncc(-c2cnc3[nH]nc(-c4cc5c(-c6ccncc6)ccnc5[nH]4)c3c2)c1

>  <Name>  (330) 
nan

>  <Pocket>  (330) 
nan

>  <ATP_Site>  (330) 
nan

>  <Peripheral>  (330) 
nan

>  <Num_H_Atoms_ProtBoundConf>  (330) 
nan

>  <Num_Resolved_Atoms>  (330) 
nan

>  <Num_Not_Resolved_Atoms>  (330) 
nan

$$$$
CHEMBL1649586
     RDKit          3D

  0  0  0  0  0  0  0  0  0  0999 V3000
M  V30 BEGIN CTAB
M  V30 COUNTS 37 40 0 0 0
M  V30 BEGIN ATOM
M  V30 1 O 2.146867 -4.409112 5.178115 0
M  V30 2 C 1.568510 -4.542848 4.092469 0
M  V30 3 O 1.224707 -5.836602 3.751112 0
M  V30 4 C 1.274253 -3.402223 3.237663 0
M  V30 5 C 1.650698 -2.141506 3.650983 0
M  V30 6 C 1.411280 -0.999501 2.902132 0
M  V30 7 C 0.761199 -1.225037 1.700475 0
M  V30 8 N 0.495050 -0.173865 0.922816 0
M  V30 9 C -0.119512 -0.189263 -0.262519 0
M  V30 10 N -0.387064 0.944393 -1.064070 0
M  V30 11 C -0.076716 2.307802 -0.837865 0
M  V30 12 C -0.440641 3.367952 -1.645746 0
M  V30 13 C -0.123870 4.670838 -1.402104 0
M  V30 14 C 0.607689 5.016556 -0.289660 0
M  V30 15 C 0.998180 4.005450 0.550983 0
M  V30 16 Cl 1.925951 4.493806 1.950741 0
M  V30 17 C 0.652283 2.705996 0.259563 0
M  V30 18 C -0.510207 -1.427363 -0.709313 0
M  V30 19 C -1.156057 -1.671096 -1.899446 0
M  V30 20 C -1.556635 -2.903362 -2.367675 0
M  V30 21 N -1.297466 -3.985145 -1.595608 0
M  V30 22 C -0.662343 -3.803708 -0.410804 0
M  V30 23 C -0.274811 -2.564586 0.030389 0
M  V30 24 C 0.364754 -2.459892 1.241948 0
M  V30 25 C 0.629399 -3.556052 2.028142 0
M  V30 26 H 0.773951 -6.476580 4.420998 0
M  V30 27 H 2.153752 -2.027512 4.596030 0
M  V30 28 H 1.712162 -0.028915 3.241660 0
M  V30 29 H -0.880196 0.868539 -1.972909 0
M  V30 30 H -1.028118 3.128098 -2.546708 0
M  V30 31 H -0.465916 5.413424 -2.108916 0
M  V30 32 H 0.807448 6.071827 -0.184349 0
M  V30 33 H 1.037566 2.043381 1.016883 0
M  V30 34 H -1.390572 -0.855086 -2.558716 0
M  V30 35 H -2.067357 -3.017802 -3.328214 0
M  V30 36 H -0.527968 -4.733450 0.081441 0
M  V30 37 H 0.367398 -4.563981 1.773050 0
M  V30 END ATOM
M  V30 BEGIN BOND
M  V30 1 2 1 2
M  V30 2 1 2 3
M  V30 3 1 2 4
M  V30 4 2 4 5
M  V30 5 1 5 6
M  V30 6 2 6 7
M  V30 7 1 7 8
M  V30 8 2 8 9
M  V30 9 1 9 10
M  V30 10 1 10 11
M  V30 11 2 11 12
M  V30 12 1 12 13
M  V30 13 2 13 14
M  V30 14 1 14 15
M  V30 15 1 15 16
M  V30 16 2 15 17
M  V30 17 1 9 18
M  V30 18 2 18 19
M  V30 19 1 19 20
M  V30 20 2 20 21
M  V30 21 1 21 22
M  V30 22 2 22 23
M  V30 23 1 23 24
M  V30 24 2 24 25
M  V30 25 1 25 4
M  V30 26 1 24 7
M  V30 27 1 17 11
M  V30 28 1 23 18
M  V30 29 1 3 26
M  V30 30 1 5 27
M  V30 31 1 6 28
M  V30 32 1 10 29
M  V30 33 1 12 30
M  V30 34 1 13 31
M  V30 35 1 14 32
M  V30 36 1 17 33
M  V30 37 1 19 34
M  V30 38 1 20 35
M  V30 39 1 22 36
M  V30 40 1 25 37
M  V30 END BOND
M  V30 END CTAB
M  END
>  <Dataset>  (331) 
ChEMBL_Kinases

>  <Ligand_Instance>  (331) 
nan

>  <PDB_ID>  (331) 
nan

>  <Standardized_SMILES>  (331) 
O=C(O)c1ccc2nc(Nc3cccc(Cl)c3)c3ccncc3c2c1

>  <Name>  (331) 
nan

>  <Pocket>  (331) 
nan

>  <ATP_Site>  (331) 
nan

>  <Peripheral>  (331) 
nan

>  <Num_H_Atoms_ProtBoundConf>  (331) 
nan

>  <Num_Resolved_Atoms>  (331) 
nan

>  <Num_Not_Resolved_Atoms>  (331) 
nan

$$$$
CHEMBL489992
     RDKit          3D

  0  0  0  0  0  0  0  0  0  0999 V3000
M  V30 BEGIN CTAB
M  V30 COUNTS 44 47 0 0 0
M  V30 BEGIN ATOM
M  V30 1 C 1.786256 -6.197502 0.915525 0
M  V30 2 C 1.157628 -4.869059 0.641963 0
M  V30 3 C -0.034575 -4.677590 1.342854 0
M  V30 4 C -0.718432 -3.501166 1.186111 0
M  V30 5 C -0.226996 -2.526833 0.345444 0
M  V30 6 C 0.949804 -2.703275 -0.352938 0
M  V30 7 C 1.568574 -1.749840 -1.267664 0
M  V30 8 N 2.101254 -2.001961 -2.500097 0
M  V30 9 O 2.559321 -0.908274 -3.015841 0
M  V30 10 C 2.370318 0.113608 -2.191427 0
M  V30 11 C 2.645922 1.465465 -2.213669 0
M  V30 12 N 2.326784 2.285287 -1.197569 0
M  V30 13 C 1.706389 1.823329 -0.075799 0
M  V30 14 N 1.365130 2.672364 1.002180 0
M  V30 15 C 0.709506 2.298992 2.216692 0 CFG=1
M  V30 16 C 0.523645 3.497982 3.154979 0
M  V30 17 C -0.672901 1.762147 1.956093 0
M  V30 18 C -1.325113 2.582291 1.027965 0
M  V30 19 C -2.631727 2.247645 0.654328 0
M  V30 20 C -3.286815 1.158652 1.159091 0
M  V30 21 C -2.593996 0.400023 2.060486 0
M  V30 22 C -1.313122 0.666218 2.473188 0
M  V30 23 C 1.429001 0.471116 -0.049889 0
M  V30 24 C 1.741370 -0.394616 -1.070813 0
M  V30 25 C 1.633992 -3.869826 -0.201620 0
M  V30 26 H 0.991795 -6.969169 0.753755 0
M  V30 27 H 2.642404 -6.341534 0.252702 0
M  V30 28 H 2.034134 -6.267186 2.001975 0
M  V30 29 H -0.499942 -5.370738 2.018776 0
M  V30 30 H -1.651905 -3.251047 1.682329 0
M  V30 31 H -0.732572 -1.584872 0.191430 0
M  V30 32 H 3.139596 1.882327 -3.085876 0
M  V30 33 H 1.625918 3.698559 0.894121 0
M  V30 34 H 1.279501 1.559643 2.827026 0
M  V30 35 H 0.150497 3.042275 4.107874 0
M  V30 36 H -0.210350 4.184588 2.718690 0
M  V30 37 H 1.486573 3.980727 3.351215 0
M  V30 38 H -0.935906 3.475642 0.542977 0
M  V30 39 H -3.175511 2.864762 -0.069394 0
M  V30 40 H -4.291890 0.882740 0.885667 0
M  V30 41 H -3.034594 -0.488203 2.517035 0
M  V30 42 H -0.697208 0.137720 3.164861 0
M  V30 43 H 0.946440 0.021395 0.787390 0
M  V30 44 H 2.559692 -4.173623 -0.664539 0
M  V30 END ATOM
M  V30 BEGIN BOND
M  V30 1 1 1 2
M  V30 2 2 2 3
M  V30 3 1 3 4
M  V30 4 2 4 5
M  V30 5 1 5 6
M  V30 6 1 6 7
M  V30 7 2 7 8
M  V30 8 1 8 9
M  V30 9 1 9 10
M  V30 10 2 10 11
M  V30 11 1 11 12
M  V30 12 2 12 13
M  V30 13 1 13 14
M  V30 14 1 14 15
M  V30 15 1 15 16
M  V30 16 1 15 17
M  V30 17 2 17 18
M  V30 18 1 18 19
M  V30 19 2 19 20
M  V30 20 1 20 21
M  V30 21 2 21 22
M  V30 22 1 13 23
M  V30 23 2 23 24
M  V30 24 2 6 25
M  V30 25 1 25 2
M  V30 26 1 24 7
M  V30 27 1 24 10
M  V30 28 1 22 17
M  V30 29 1 1 26
M  V30 30 1 1 27
M  V30 31 1 1 28
M  V30 32 1 3 29
M  V30 33 1 4 30
M  V30 34 1 5 31
M  V30 35 1 11 32
M  V30 36 1 14 33
M  V30 37 1 15 34 CFG=1
M  V30 38 1 16 35
M  V30 39 1 16 36
M  V30 40 1 16 37
M  V30 41 1 18 38
M  V30 42 1 19 39
M  V30 43 1 20 40
M  V30 44 1 21 41
M  V30 45 1 22 42
M  V30 46 1 23 43
M  V30 47 1 25 44
M  V30 END BOND
M  V30 END CTAB
M  END
>  <Dataset>  (332) 
ChEMBL_Kinases

>  <Ligand_Instance>  (332) 
nan

>  <PDB_ID>  (332) 
nan

>  <Standardized_SMILES>  (332) 
Cc1cccc(-c2noc3cnc(N[C@@H](C)c4ccccc4)cc23)c1

>  <Name>  (332) 
nan

>  <Pocket>  (332) 
nan

>  <ATP_Site>  (332) 
nan

>  <Peripheral>  (332) 
nan

>  <Num_H_Atoms_ProtBoundConf>  (332) 
nan

>  <Num_Resolved_Atoms>  (332) 
nan

>  <Num_Not_Resolved_Atoms>  (332) 
nan

$$$$
CHEMBL4789890
     RDKit          3D

  0  0  0  0  0  0  0  0  0  0999 V3000
M  V30 BEGIN CTAB
M  V30 COUNTS 58 61 0 0 0
M  V30 BEGIN ATOM
M  V30 1 C 8.711845 -0.709344 3.541029 0
M  V30 2 C 7.869215 -1.266346 2.684312 0
M  V30 3 C 6.604080 -0.704379 2.229810 0
M  V30 4 O 5.772752 -1.218173 1.405810 0
M  V30 5 N 6.098097 0.567386 2.670795 0
M  V30 6 C 4.831745 0.796018 2.016929 0
M  V30 7 C 4.792284 1.447296 0.797547 0
M  V30 8 C 3.585330 1.668936 0.165322 0
M  V30 9 C 2.423441 1.241558 0.749306 0
M  V30 10 C 1.057819 1.365780 0.267415 0
M  V30 11 O 1.095695 0.747130 -0.822317 0
M  V30 12 N -0.056831 2.018074 0.861934 0
M  V30 13 C -0.220651 2.750350 2.089233 0
M  V30 14 C -1.423026 2.391885 2.889851 0
M  V30 15 C -2.665214 2.117875 2.085896 0
M  V30 16 C -2.237312 1.140448 0.986676 0
M  V30 17 N -3.333432 0.571999 0.275711 0
M  V30 18 C -2.831753 -0.343506 -0.723599 0
M  V30 19 N -1.804398 -0.756256 -1.122188 0
M  V30 20 C -1.687246 -1.636826 -2.106587 0
M  V30 21 C -2.803710 -2.117931 -2.720691 0
M  V30 22 S -2.758695 -3.311834 -4.062522 0
M  V30 23 C -2.818093 -5.004460 -3.412194 0
M  V30 24 C -4.131696 -5.238701 -2.774484 0
M  V30 25 C -4.210386 -4.937849 -1.429372 0
M  V30 26 C -5.425174 -5.136673 -0.772451 0
M  V30 27 C -6.522545 -5.629193 -1.478078 0
M  V30 28 C -6.376623 -5.912039 -2.830417 0
M  V30 29 N -5.192305 -5.715796 -3.460846 0
M  V30 30 S -4.135441 -1.218230 -1.793231 0
M  V30 31 C -1.289100 1.945234 0.101257 0
M  V30 32 C 2.456245 0.582502 1.982151 0
M  V30 33 C 3.677344 0.356495 2.625012 0
M  V30 34 H 8.416446 0.254809 3.930465 0
M  V30 35 H 9.605218 -1.275768 3.761136 0
M  V30 36 H 8.050846 -2.244997 2.215542 0
M  V30 37 H 6.670257 1.132029 3.363980 0
M  V30 38 H 5.687205 1.801896 0.300236 0
M  V30 39 H 3.446404 2.167082 -0.786624 0
M  V30 40 H 0.678708 2.499117 2.722735 0
M  V30 41 H -0.173006 3.855836 1.936022 0
M  V30 42 H -1.248026 1.503329 3.542945 0
M  V30 43 H -1.621402 3.271705 3.565084 0
M  V30 44 H -2.966484 3.081069 1.608408 0
M  V30 45 H -3.424905 1.713895 2.753200 0
M  V30 46 H -1.694420 0.333312 1.526953 0
M  V30 47 H -4.345737 0.768592 0.432006 0
M  V30 48 H -0.649823 -1.917832 -2.355897 0
M  V30 49 H -2.664720 -5.731036 -4.234337 0
M  V30 50 H -1.970926 -5.134779 -2.708690 0
M  V30 51 H -3.384587 -4.553585 -0.840932 0
M  V30 52 H -5.481484 -4.896670 0.291742 0
M  V30 53 H -7.465862 -5.776354 -0.937512 0
M  V30 54 H -7.238490 -6.297274 -3.378493 0
M  V30 55 H -1.724392 2.985716 0.042459 0
M  V30 56 H -1.175152 1.523075 -0.907324 0
M  V30 57 H 1.610818 0.198888 2.542644 0
M  V30 58 H 3.755863 -0.151334 3.584500 0
M  V30 END ATOM
M  V30 BEGIN BOND
M  V30 1 2 1 2
M  V30 2 1 2 3
M  V30 3 2 3 4
M  V30 4 1 3 5
M  V30 5 1 5 6
M  V30 6 2 6 7
M  V30 7 1 7 8
M  V30 8 2 8 9
M  V30 9 1 9 10
M  V30 10 2 10 11
M  V30 11 1 10 12
M  V30 12 1 12 13
M  V30 13 1 13 14
M  V30 14 1 14 15
M  V30 15 1 15 16
M  V30 16 1 16 17
M  V30 17 1 17 18
M  V30 18 2 18 19
M  V30 19 1 19 20
M  V30 20 2 20 21
M  V30 21 1 21 22
M  V30 22 1 22 23
M  V30 23 1 23 24
M  V30 24 2 24 25
M  V30 25 1 25 26
M  V30 26 2 26 27
M  V30 27 1 27 28
M  V30 28 2 28 29
M  V30 29 1 21 30
M  V30 30 1 16 31
M  V30 31 1 9 32
M  V30 32 2 32 33
M  V30 33 1 33 6
M  V30 34 1 31 12
M  V30 35 1 30 18
M  V30 36 1 29 24
M  V30 37 1 1 34
M  V30 38 1 1 35
M  V30 39 1 2 36
M  V30 40 1 5 37
M  V30 41 1 7 38
M  V30 42 1 8 39
M  V30 43 1 13 40
M  V30 44 1 13 41
M  V30 45 1 14 42
M  V30 46 1 14 43
M  V30 47 1 15 44
M  V30 48 1 15 45
M  V30 49 1 16 46
M  V30 50 1 17 47
M  V30 51 1 20 48
M  V30 52 1 23 49
M  V30 53 1 23 50
M  V30 54 1 25 51
M  V30 55 1 26 52
M  V30 56 1 27 53
M  V30 57 1 28 54
M  V30 58 1 31 55
M  V30 59 1 31 56
M  V30 60 1 32 57
M  V30 61 1 33 58
M  V30 END BOND
M  V30 END CTAB
M  END
>  <Dataset>  (333) 
ChEMBL_Kinases

>  <Ligand_Instance>  (333) 
nan

>  <PDB_ID>  (333) 
nan

>  <Standardized_SMILES>  (333) 
C=CC(=O)Nc1ccc(C(=O)N2CCCC(Nc3ncc(SCc4ccccn4)s3)C2)cc1

>  <Name>  (333) 
nan

>  <Pocket>  (333) 
nan

>  <ATP_Site>  (333) 
nan

>  <Peripheral>  (333) 
nan

>  <Num_H_Atoms_ProtBoundConf>  (333) 
nan

>  <Num_Resolved_Atoms>  (333) 
nan

>  <Num_Not_Resolved_Atoms>  (333) 
nan

$$$$
CHEMBL489344
     RDKit          3D

  0  0  0  0  0  0  0  0  0  0999 V3000
M  V30 BEGIN CTAB
M  V30 COUNTS 50 53 0 0 0
M  V30 BEGIN ATOM
M  V30 1 C -2.847229 -0.961497 4.561931 0
M  V30 2 N -2.029101 -2.152969 4.676771 0
M  V30 3 C -0.951810 -2.415564 3.750477 0
M  V30 4 N -0.206931 -3.523790 3.870371 0
M  V30 5 C 0.804354 -3.806899 3.030615 0
M  V30 6 C 1.084502 -2.924371 2.009218 0
M  V30 7 C 0.329134 -1.779223 1.869837 0
M  V30 8 C 0.419879 -0.705788 0.884712 0
M  V30 9 N 0.748954 0.591249 1.030273 0
M  V30 10 C 0.701455 1.222551 -0.157077 0
M  V30 11 C 0.996375 2.659969 -0.411393 0
M  V30 12 C 2.419905 2.951887 -0.074247 0
M  V30 13 C 2.609014 3.933088 1.043990 0
M  V30 14 N 1.727312 3.789964 2.150333 0
M  V30 15 C 0.374965 3.449250 1.850384 0
M  V30 16 C 0.057688 3.535871 0.393834 0
M  V30 17 N 0.328493 0.277866 -1.070681 0
M  V30 18 C 0.148307 -0.924083 -0.449620 0
M  V30 19 C -0.253257 -2.084248 -1.235371 0
M  V30 20 C -1.531981 -1.902765 -1.761876 0
M  V30 21 C -2.144243 -2.859762 -2.547923 0
M  V30 22 C -1.449402 -4.027708 -2.808745 0
M  V30 23 C -0.184633 -4.219743 -2.294651 0
M  V30 24 C 0.674630 -5.425540 -2.495234 0
M  V30 25 F 0.544022 -6.306720 -1.445750 0
M  V30 26 F 0.285733 -6.108867 -3.634821 0
M  V30 27 F 1.994789 -5.067414 -2.605246 0
M  V30 28 C 0.405912 -3.247015 -1.511103 0
M  V30 29 N -0.684558 -1.550358 2.756973 0
M  V30 30 H -2.402918 -0.114473 5.134443 0
M  V30 31 H -2.889292 -0.621642 3.505727 0
M  V30 32 H -3.893425 -1.136974 4.893227 0
M  V30 33 H -2.207115 -2.843341 5.434648 0
M  V30 34 H 1.433478 -4.685937 3.084592 0
M  V30 35 H 1.858053 -3.003567 1.258616 0
M  V30 36 H 0.855383 2.829423 -1.512411 0
M  V30 37 H 2.960102 3.400676 -0.957729 0
M  V30 38 H 2.943088 2.027572 0.171508 0
M  V30 39 H 2.616050 4.989373 0.692258 0
M  V30 40 H 3.658970 3.768937 1.416136 0
M  V30 41 H 2.081436 3.197665 2.926117 0
M  V30 42 H 0.058564 2.481597 2.295671 0
M  V30 43 H -0.260957 4.231960 2.358897 0
M  V30 44 H -0.991182 3.283685 0.210418 0
M  V30 45 H 0.224941 4.587303 0.061529 0
M  V30 46 H 0.217680 0.521307 -2.089651 0
M  V30 47 H -2.173621 -1.028947 -1.625416 0
M  V30 48 H -3.120547 -2.790268 -2.985792 0
M  V30 49 H -1.825318 -4.865555 -3.419104 0
M  V30 50 H 1.385873 -3.287607 -1.060403 0
M  V30 END ATOM
M  V30 BEGIN BOND
M  V30 1 1 1 2
M  V30 2 1 2 3
M  V30 3 2 3 4
M  V30 4 1 4 5
M  V30 5 2 5 6
M  V30 6 1 6 7
M  V30 7 1 7 8
M  V30 8 1 8 9
M  V30 9 2 9 10
M  V30 10 1 10 11
M  V30 11 1 11 12
M  V30 12 1 12 13
M  V30 13 1 13 14
M  V30 14 1 14 15
M  V30 15 1 15 16
M  V30 16 1 10 17
M  V30 17 1 17 18
M  V30 18 1 18 19
M  V30 19 2 19 20
M  V30 20 1 20 21
M  V30 21 2 21 22
M  V30 22 1 22 23
M  V30 23 1 23 24
M  V30 24 1 24 25
M  V30 25 1 24 26
M  V30 26 1 24 27
M  V30 27 2 23 28
M  V30 28 2 7 29
M  V30 29 1 29 3
M  V30 30 2 18 8
M  V30 31 1 28 19
M  V30 32 1 16 11
M  V30 33 1 1 30
M  V30 34 1 1 31
M  V30 35 1 1 32
M  V30 36 1 2 33
M  V30 37 1 5 34
M  V30 38 1 6 35
M  V30 39 1 11 36
M  V30 40 1 12 37
M  V30 41 1 12 38
M  V30 42 1 13 39
M  V30 43 1 13 40
M  V30 44 1 14 41
M  V30 45 1 15 42
M  V30 46 1 15 43
M  V30 47 1 16 44
M  V30 48 1 16 45
M  V30 49 1 17 46
M  V30 50 1 20 47
M  V30 51 1 21 48
M  V30 52 1 22 49
M  V30 53 1 28 50
M  V30 END BOND
M  V30 END CTAB
M  END
>  <Dataset>  (334) 
ChEMBL_Kinases

>  <Ligand_Instance>  (334) 
nan

>  <PDB_ID>  (334) 
nan

>  <Standardized_SMILES>  (334) 
CNc1nccc(-c2nc(C3CCNCC3)[nH]c2-c2cccc(C(F)(F)F)c2)n1

>  <Name>  (334) 
nan

>  <Pocket>  (334) 
nan

>  <ATP_Site>  (334) 
nan

>  <Peripheral>  (334) 
nan

>  <Num_H_Atoms_ProtBoundConf>  (334) 
nan

>  <Num_Resolved_Atoms>  (334) 
nan

>  <Num_Not_Resolved_Atoms>  (334) 
nan

$$$$
CHEMBL489156
     RDKit          3D

  0  0  0  0  0  0  0  0  0  0999 V3000
M  V30 BEGIN CTAB
M  V30 COUNTS 40 42 0 0 0
M  V30 BEGIN ATOM
M  V30 1 C -0.893490 -4.791229 2.903600 0
M  V30 2 O 0.293344 -4.519577 2.188118 0
M  V30 3 C 0.345416 -3.407930 1.379672 0
M  V30 4 C 1.465484 -3.099865 0.668400 0
M  V30 5 C 1.540755 -1.991946 -0.147637 0
M  V30 6 O 2.599492 -1.549193 -0.926605 0
M  V30 7 C 3.818707 -2.252129 -0.965640 0
M  V30 8 C 0.458124 -1.112824 -0.292300 0
M  V30 9 C 0.374276 0.023167 -1.182749 0
M  V30 10 C 0.315865 1.295875 -0.939799 0
M  V30 11 C 0.221167 2.393067 -1.881248 0
M  V30 12 O 0.134523 2.352918 -3.125004 0
M  V30 13 N 0.243248 3.600796 -1.134107 0
M  V30 14 C 0.351285 3.238601 0.233108 0
M  V30 15 C 0.426951 4.051975 1.339231 0
M  V30 16 C 0.552009 3.492793 2.591698 0
M  V30 17 C 0.601725 2.118704 2.732890 0
M  V30 18 C 0.523605 1.323669 1.612412 0
M  V30 19 C 0.397217 1.873756 0.369204 0
M  V30 20 C -0.715488 -1.404425 0.431093 0
M  V30 21 O -1.826501 -0.572790 0.333398 0
M  V30 22 C -2.971832 -0.923541 1.086073 0
M  V30 23 C -0.709908 -2.533182 1.226419 0
M  V30 24 H -0.996584 -4.009117 3.700671 0
M  V30 25 H -0.838466 -5.760846 3.421107 0
M  V30 26 H -1.785254 -4.736025 2.251505 0
M  V30 27 H 2.366963 -3.690162 0.688775 0
M  V30 28 H 4.614642 -1.473599 -1.090125 0
M  V30 29 H 3.860345 -2.882724 -1.887964 0
M  V30 30 H 4.049710 -2.823331 -0.059175 0
M  V30 31 H 0.361837 -0.310385 -2.203914 0
M  V30 32 H 0.187844 4.567045 -1.543236 0
M  V30 33 H 0.386501 5.124505 1.218590 0
M  V30 34 H 0.606117 4.186520 3.416497 0
M  V30 35 H 0.702976 1.816640 3.773062 0
M  V30 36 H 0.604033 0.309486 1.914515 0
M  V30 37 H -3.304441 -1.955914 0.854350 0
M  V30 38 H -3.783326 -0.240447 0.810348 0
M  V30 39 H -2.732477 -0.853332 2.168325 0
M  V30 40 H -1.642915 -2.723448 1.772273 0
M  V30 END ATOM
M  V30 BEGIN BOND
M  V30 1 1 1 2
M  V30 2 1 2 3
M  V30 3 2 3 4
M  V30 4 1 4 5
M  V30 5 1 5 6
M  V30 6 1 6 7
M  V30 7 2 5 8
M  V30 8 1 8 9
M  V30 9 2 9 10
M  V30 10 1 10 11
M  V30 11 2 11 12
M  V30 12 1 11 13
M  V30 13 1 13 14
M  V30 14 2 14 15
M  V30 15 1 15 16
M  V30 16 2 16 17
M  V30 17 1 17 18
M  V30 18 2 18 19
M  V30 19 1 8 20
M  V30 20 1 20 21
M  V30 21 1 21 22
M  V30 22 2 20 23
M  V30 23 1 23 3
M  V30 24 1 19 10
M  V30 25 1 19 14
M  V30 26 1 1 24
M  V30 27 1 1 25
M  V30 28 1 1 26
M  V30 29 1 4 27
M  V30 30 1 7 28
M  V30 31 1 7 29
M  V30 32 1 7 30
M  V30 33 1 9 31
M  V30 34 1 13 32
M  V30 35 1 15 33
M  V30 36 1 16 34
M  V30 37 1 17 35
M  V30 38 1 18 36
M  V30 39 1 22 37
M  V30 40 1 22 38
M  V30 41 1 22 39
M  V30 42 1 23 40
M  V30 END BOND
M  V30 END CTAB
M  END
>  <Dataset>  (335) 
ChEMBL_Kinases

>  <Ligand_Instance>  (335) 
nan

>  <PDB_ID>  (335) 
nan

>  <Standardized_SMILES>  (335) 
COc1cc(OC)c(/C=C2/C(=O)Nc3ccccc32)c(OC)c1

>  <Name>  (335) 
nan

>  <Pocket>  (335) 
nan

>  <ATP_Site>  (335) 
nan

>  <Peripheral>  (335) 
nan

>  <Num_H_Atoms_ProtBoundConf>  (335) 
nan

>  <Num_Resolved_Atoms>  (335) 
nan

>  <Num_Not_Resolved_Atoms>  (335) 
nan

$$$$
CHEMBL4789590
     RDKit          3D

  0  0  0  0  0  0  0  0  0  0999 V3000
M  V30 BEGIN CTAB
M  V30 COUNTS 38 41 0 0 0
M  V30 BEGIN ATOM
M  V30 1 O -1.607548 -2.332646 3.972755 0
M  V30 2 C -0.882867 -2.247684 2.930415 0
M  V30 3 C 0.254926 -3.024265 2.846579 0
M  V30 4 C 1.092593 -2.985454 1.743165 0
M  V30 5 C 0.793949 -2.144895 0.679545 0
M  V30 6 C 1.580285 -2.012518 -0.537912 0
M  V30 7 C 2.318906 -2.967995 -1.179903 0
M  V30 8 C 3.020617 -2.679149 -2.334586 0
M  V30 9 C 3.014165 -1.414550 -2.900679 0
M  V30 10 C 3.608600 -0.859168 -4.019328 0
M  V30 11 N 3.211829 0.446233 -4.034349 0
M  V30 12 N 2.429495 0.687464 -3.003610 0
M  V30 13 C 2.278944 -0.428160 -2.277516 0
M  V30 14 C 1.590662 -0.745156 -1.129805 0
M  V30 15 C -0.357078 -1.407800 0.847270 0
M  V30 16 N -1.174291 -1.428089 1.893108 0
M  V30 17 C -2.368625 -0.601970 1.953976 0
M  V30 18 C -2.145415 0.724469 2.552100 0
M  V30 19 C -1.780113 1.778905 1.708173 0
M  V30 20 C -1.529131 3.088690 2.069994 0
M  V30 21 C -1.659913 3.372087 3.433938 0
M  V30 22 C -2.018217 2.365403 4.305359 0
M  V30 23 C -2.259222 1.070028 3.897882 0
M  V30 24 H 0.509806 -3.688457 3.664335 0
M  V30 25 H 2.000743 -3.590125 1.649264 0
M  V30 26 H 2.299437 -3.949375 -0.705339 0
M  V30 27 H 3.592036 -3.467414 -2.810420 0
M  V30 28 H 4.251975 -1.355604 -4.732018 0
M  V30 29 H 1.977171 1.618756 -2.767207 0
M  V30 30 H 1.040869 0.083749 -0.702076 0
M  V30 31 H -0.663496 -0.719375 0.049945 0
M  V30 32 H -3.147536 -1.128440 2.542562 0
M  V30 33 H -2.742964 -0.472511 0.904568 0
M  V30 34 H -1.680385 1.543977 0.637701 0
M  V30 35 H -1.251111 3.801539 1.286631 0
M  V30 36 H -1.465290 4.393315 3.726742 0
M  V30 37 H -2.118947 2.591644 5.364478 0
M  V30 38 H -2.540142 0.263408 4.556443 0
M  V30 END ATOM
M  V30 BEGIN BOND
M  V30 1 2 1 2
M  V30 2 1 2 3
M  V30 3 2 3 4
M  V30 4 1 4 5
M  V30 5 1 5 6
M  V30 6 2 6 7
M  V30 7 1 7 8
M  V30 8 2 8 9
M  V30 9 1 9 10
M  V30 10 2 10 11
M  V30 11 1 11 12
M  V30 12 1 12 13
M  V30 13 2 13 14
M  V30 14 2 5 15
M  V30 15 1 15 16
M  V30 16 1 16 17
M  V30 17 1 17 18
M  V30 18 2 18 19
M  V30 19 1 19 20
M  V30 20 2 20 21
M  V30 21 1 21 22
M  V30 22 2 22 23
M  V30 23 1 16 2
M  V30 24 1 23 18
M  V30 25 1 14 6
M  V30 26 1 13 9
M  V30 27 1 3 24
M  V30 28 1 4 25
M  V30 29 1 7 26
M  V30 30 1 8 27
M  V30 31 1 10 28
M  V30 32 1 12 29
M  V30 33 1 14 30
M  V30 34 1 15 31
M  V30 35 1 17 32
M  V30 36 1 17 33
M  V30 37 1 19 34
M  V30 38 1 20 35
M  V30 39 1 21 36
M  V30 40 1 22 37
M  V30 41 1 23 38
M  V30 END BOND
M  V30 END CTAB
M  END
>  <Dataset>  (336) 
ChEMBL_Kinases

>  <Ligand_Instance>  (336) 
nan

>  <PDB_ID>  (336) 
nan

>  <Standardized_SMILES>  (336) 
O=c1ccc(-c2ccc3cn[nH]c3c2)cn1Cc1ccccc1

>  <Name>  (336) 
nan

>  <Pocket>  (336) 
nan

>  <ATP_Site>  (336) 
nan

>  <Peripheral>  (336) 
nan

>  <Num_H_Atoms_ProtBoundConf>  (336) 
nan

>  <Num_Resolved_Atoms>  (336) 
nan

>  <Num_Not_Resolved_Atoms>  (336) 
nan

$$$$
CHEMBL1673057
     RDKit          3D

  0  0  0  0  0  0  0  0  0  0999 V3000
M  V30 BEGIN CTAB
M  V30 COUNTS 63 67 0 0 0
M  V30 BEGIN ATOM
M  V30 1 C 3.301887 0.492399 5.071893 0
M  V30 2 O 2.159015 0.488257 4.284975 0
M  V30 3 C 2.083451 0.557019 2.904779 0
M  V30 4 C 3.234270 0.638482 2.149332 0
M  V30 5 C 3.070033 0.704510 0.767006 0
M  V30 6 N 4.139826 0.768674 -0.167286 0
M  V30 7 C 4.938547 -0.415589 -0.466204 0
M  V30 8 C 4.373845 -0.880300 -1.806796 0
M  V30 9 N 4.358555 0.176342 -2.732269 0
M  V30 10 C 3.147105 0.239268 -3.498556 0
M  V30 11 C 4.912713 1.425991 -2.391895 0
M  V30 12 C 4.677235 1.878440 -0.979828 0
M  V30 13 C 1.823403 0.690554 0.177468 0
M  V30 14 C 0.695375 0.607515 0.963135 0
M  V30 15 C 0.816541 0.538385 2.356154 0
M  V30 16 N -0.380324 0.435695 3.158791 0
M  V30 17 C -1.655906 0.387100 2.491115 0
M  V30 18 N -2.566391 1.364004 2.257961 0
M  V30 19 C -3.702545 1.079155 1.598438 0
M  V30 20 C -3.947533 -0.202516 1.157168 0
M  V30 21 C -3.006555 -1.177037 1.405830 0
M  V30 22 N -1.860470 -0.891067 2.071116 0
M  V30 23 N -3.058203 -2.571092 1.026319 0
M  V30 24 C -1.950101 -3.378124 1.459753 0
M  V30 25 C -4.043888 -3.297181 0.276485 0
M  V30 26 C -3.693596 -4.562040 -0.077491 0
M  V30 27 C -4.535136 -5.396471 -0.801115 0
M  V30 28 Cl -3.957531 -7.009174 -1.191303 0
M  V30 29 C -5.782732 -4.912142 -1.174922 0
M  V30 30 C -6.127715 -3.618220 -0.807151 0
M  V30 31 C -5.295694 -2.804009 -0.096084 0
M  V30 32 C -5.864374 -1.509253 0.159708 0
M  V30 33 O -7.121059 -1.408134 0.097860 0
M  V30 34 N -5.209426 -0.272056 0.486028 0
M  V30 35 C -5.862423 0.977243 0.111283 0
M  V30 36 H 4.254230 0.398758 4.549340 0
M  V30 37 H 3.230943 -0.383348 5.765320 0
M  V30 38 H 3.280396 1.393554 5.750965 0
M  V30 39 H 4.237148 0.653442 2.547314 0
M  V30 40 H 4.685372 -1.195220 0.288894 0
M  V30 41 H 6.012979 -0.209905 -0.511836 0
M  V30 42 H 4.972341 -1.714629 -2.222294 0
M  V30 43 H 3.334498 -1.253945 -1.575736 0
M  V30 44 H 2.363303 -0.359245 -3.002562 0
M  V30 45 H 3.361304 -0.237939 -4.479427 0
M  V30 46 H 2.757455 1.275248 -3.577121 0
M  V30 47 H 4.530512 2.210182 -3.089788 0
M  V30 48 H 6.005774 1.381646 -2.567996 0
M  V30 49 H 5.653374 2.096434 -0.498550 0
M  V30 50 H 4.061627 2.774155 -0.918253 0
M  V30 51 H 1.650043 0.742364 -0.877480 0
M  V30 52 H -0.305391 0.596493 0.546528 0
M  V30 53 H -0.214364 0.405615 4.201265 0
M  V30 54 H -4.417486 1.865350 1.420047 0
M  V30 55 H -1.314400 -2.751367 2.148743 0
M  V30 56 H -1.243095 -3.585534 0.606336 0
M  V30 57 H -2.207002 -4.262565 2.049150 0
M  V30 58 H -2.718127 -4.937261 0.212239 0
M  V30 59 H -6.425041 -5.578647 -1.738695 0
M  V30 60 H -7.087796 -3.229291 -1.087147 0
M  V30 61 H -6.388777 1.466686 0.942011 0
M  V30 62 H -6.659738 0.713176 -0.643899 0
M  V30 63 H -5.175747 1.648597 -0.458772 0
M  V30 END ATOM
M  V30 BEGIN BOND
M  V30 1 1 1 2
M  V30 2 1 2 3
M  V30 3 2 3 4
M  V30 4 1 4 5
M  V30 5 1 5 6
M  V30 6 1 6 7
M  V30 7 1 7 8
M  V30 8 1 8 9
M  V30 9 1 9 10
M  V30 10 1 9 11
M  V30 11 1 11 12
M  V30 12 2 5 13
M  V30 13 1 13 14
M  V30 14 2 14 15
M  V30 15 1 15 16
M  V30 16 1 16 17
M  V30 17 2 17 18
M  V30 18 1 18 19
M  V30 19 2 19 20
M  V30 20 1 20 21
M  V30 21 2 21 22
M  V30 22 1 21 23
M  V30 23 1 23 24
M  V30 24 1 23 25
M  V30 25 2 25 26
M  V30 26 1 26 27
M  V30 27 1 27 28
M  V30 28 2 27 29
M  V30 29 1 29 30
M  V30 30 2 30 31
M  V30 31 1 31 32
M  V30 32 2 32 33
M  V30 33 1 32 34
M  V30 34 1 34 35
M  V30 35 1 15 3
M  V30 36 1 22 17
M  V30 37 1 31 25
M  V30 38 1 12 6
M  V30 39 1 34 20
M  V30 40 1 1 36
M  V30 41 1 1 37
M  V30 42 1 1 38
M  V30 43 1 4 39
M  V30 44 1 7 40
M  V30 45 1 7 41
M  V30 46 1 8 42
M  V30 47 1 8 43
M  V30 48 1 10 44
M  V30 49 1 10 45
M  V30 50 1 10 46
M  V30 51 1 11 47
M  V30 52 1 11 48
M  V30 53 1 12 49
M  V30 54 1 12 50
M  V30 55 1 13 51
M  V30 56 1 14 52
M  V30 57 1 16 53
M  V30 58 1 19 54
M  V30 59 1 24 55
M  V30 60 1 24 56
M  V30 61 1 24 57
M  V30 62 1 26 58
M  V30 63 1 29 59
M  V30 64 1 30 60
M  V30 65 1 35 61
M  V30 66 1 35 62
M  V30 67 1 35 63
M  V30 END BOND
M  V30 END CTAB
M  END
>  <Dataset>  (337) 
ChEMBL_Kinases

>  <Ligand_Instance>  (337) 
nan

>  <PDB_ID>  (337) 
nan

>  <Standardized_SMILES>  (337) 
COc1cc(N2CCN(C)CC2)ccc1Nc1ncc2c(n1)N(C)c1cc(Cl)ccc1C(=O)N2C

>  <Name>  (337) 
nan

>  <Pocket>  (337) 
nan

>  <ATP_Site>  (337) 
nan

>  <Peripheral>  (337) 
nan

>  <Num_H_Atoms_ProtBoundConf>  (337) 
nan

>  <Num_Resolved_Atoms>  (337) 
nan

>  <Num_Not_Resolved_Atoms>  (337) 
nan

$$$$
CHEMBL1673056
     RDKit          3D

  0  0  0  0  0  0  0  0  0  0999 V3000
M  V30 BEGIN CTAB
M  V30 COUNTS 63 67 0 0 0
M  V30 BEGIN ATOM
M  V30 1 C 2.476309 3.602715 3.318541 0
M  V30 2 O 1.594233 2.649230 2.801666 0
M  V30 3 C 1.911168 1.599922 1.969556 0
M  V30 4 C 3.148492 1.251533 1.472874 0
M  V30 5 C 3.261170 0.156150 0.646434 0
M  V30 6 N 4.523410 -0.213489 0.107983 0
M  V30 7 C 4.867523 -1.513003 -0.443087 0
M  V30 8 C 4.967295 -1.285621 -1.934754 0
M  V30 9 N 5.363995 -0.004804 -2.348267 0
M  V30 10 C 4.725359 0.528593 -3.504155 0
M  V30 11 C 5.997371 0.880839 -1.467460 0
M  V30 12 C 5.694456 0.680912 -0.003007 0
M  V30 13 C 2.183753 -0.652168 0.261889 0
M  V30 14 C 0.960269 -0.254709 0.791996 0
M  V30 15 C 0.817094 0.837810 1.622828 0
M  V30 16 N -0.520145 1.092217 2.090849 0
M  V30 17 C -1.706827 0.401233 1.690348 0
M  V30 18 N -2.313497 1.199199 0.763927 0
M  V30 19 C -3.464493 0.838873 0.168466 0
M  V30 20 C -4.065454 -0.351544 0.478760 0
M  V30 21 C -3.408318 -1.131246 1.429263 0
M  V30 22 N -2.238097 -0.803905 2.059610 0
M  V30 23 N -3.816891 -2.403948 1.913672 0
M  V30 24 C -3.399920 -2.840203 3.207106 0
M  V30 25 C -4.640664 -3.337620 1.212614 0
M  V30 26 C -4.477449 -4.648202 1.643763 0
M  V30 27 C -5.196160 -5.720797 1.084475 0
M  V30 28 C -6.075849 -5.388095 0.078672 0
M  V30 29 Cl -6.962558 -6.747582 -0.594308 0
M  V30 30 C -6.305064 -4.122929 -0.414220 0
M  V30 31 C -5.553779 -3.152635 0.198680 0
M  V30 32 C -5.897657 -1.862664 -0.434437 0
M  V30 33 O -6.847192 -1.763870 -1.277474 0
M  V30 34 N -5.267289 -0.587899 -0.224127 0
M  V30 35 C -5.902705 0.596347 -0.773184 0
M  V30 36 H 3.533121 3.353389 3.077544 0
M  V30 37 H 2.389210 3.616077 4.418723 0
M  V30 38 H 2.251704 4.634362 2.913020 0
M  V30 39 H 3.977827 1.868455 1.767037 0
M  V30 40 H 5.889939 -1.839801 -0.102619 0
M  V30 41 H 4.112185 -2.297602 -0.235413 0
M  V30 42 H 5.712564 -2.025130 -2.354519 0
M  V30 43 H 3.987233 -1.585630 -2.416112 0
M  V30 44 H 5.405848 1.077738 -4.195228 0
M  V30 45 H 4.244458 -0.345412 -4.031455 0
M  V30 46 H 3.873024 1.168925 -3.168231 0
M  V30 47 H 5.762006 1.942726 -1.714046 0
M  V30 48 H 7.095191 0.798628 -1.593534 0
M  V30 49 H 6.533078 0.157640 0.481397 0
M  V30 50 H 5.553754 1.634766 0.505213 0
M  V30 51 H 2.250431 -1.501355 -0.377407 0
M  V30 52 H 0.091003 -0.857236 0.516237 0
M  V30 53 H -0.706276 1.843764 2.790398 0
M  V30 54 H -3.993364 1.425949 -0.572403 0
M  V30 55 H -4.199084 -3.308490 3.827677 0
M  V30 56 H -3.096879 -1.919911 3.792879 0
M  V30 57 H -2.452185 -3.455694 3.194217 0
M  V30 58 H -3.762875 -4.805440 2.438031 0
M  V30 59 H -5.050377 -6.730536 1.438754 0
M  V30 60 H -7.006518 -3.910764 -1.206455 0
M  V30 61 H -5.957670 1.418944 -0.046225 0
M  V30 62 H -6.982450 0.308481 -0.944563 0
M  V30 63 H -5.542249 0.871951 -1.778117 0
M  V30 END ATOM
M  V30 BEGIN BOND
M  V30 1 1 1 2
M  V30 2 1 2 3
M  V30 3 2 3 4
M  V30 4 1 4 5
M  V30 5 1 5 6
M  V30 6 1 6 7
M  V30 7 1 7 8
M  V30 8 1 8 9
M  V30 9 1 9 10
M  V30 10 1 9 11
M  V30 11 1 11 12
M  V30 12 2 5 13
M  V30 13 1 13 14
M  V30 14 2 14 15
M  V30 15 1 15 16
M  V30 16 1 16 17
M  V30 17 2 17 18
M  V30 18 1 18 19
M  V30 19 2 19 20
M  V30 20 1 20 21
M  V30 21 2 21 22
M  V30 22 1 21 23
M  V30 23 1 23 24
M  V30 24 1 23 25
M  V30 25 2 25 26
M  V30 26 1 26 27
M  V30 27 2 27 28
M  V30 28 1 28 29
M  V30 29 1 28 30
M  V30 30 2 30 31
M  V30 31 1 31 32
M  V30 32 2 32 33
M  V30 33 1 32 34
M  V30 34 1 34 35
M  V30 35 1 15 3
M  V30 36 1 22 17
M  V30 37 1 31 25
M  V30 38 1 12 6
M  V30 39 1 34 20
M  V30 40 1 1 36
M  V30 41 1 1 37
M  V30 42 1 1 38
M  V30 43 1 4 39
M  V30 44 1 7 40
M  V30 45 1 7 41
M  V30 46 1 8 42
M  V30 47 1 8 43
M  V30 48 1 10 44
M  V30 49 1 10 45
M  V30 50 1 10 46
M  V30 51 1 11 47
M  V30 52 1 11 48
M  V30 53 1 12 49
M  V30 54 1 12 50
M  V30 55 1 13 51
M  V30 56 1 14 52
M  V30 57 1 16 53
M  V30 58 1 19 54
M  V30 59 1 24 55
M  V30 60 1 24 56
M  V30 61 1 24 57
M  V30 62 1 26 58
M  V30 63 1 27 59
M  V30 64 1 30 60
M  V30 65 1 35 61
M  V30 66 1 35 62
M  V30 67 1 35 63
M  V30 END BOND
M  V30 END CTAB
M  END
>  <Dataset>  (338) 
ChEMBL_Kinases

>  <Ligand_Instance>  (338) 
nan

>  <PDB_ID>  (338) 
nan

>  <Standardized_SMILES>  (338) 
COc1cc(N2CCN(C)CC2)ccc1Nc1ncc2c(n1)N(C)c1ccc(Cl)cc1C(=O)N2C

>  <Name>  (338) 
nan

>  <Pocket>  (338) 
nan

>  <ATP_Site>  (338) 
nan

>  <Peripheral>  (338) 
nan

>  <Num_H_Atoms_ProtBoundConf>  (338) 
nan

>  <Num_Resolved_Atoms>  (338) 
nan

>  <Num_Not_Resolved_Atoms>  (338) 
nan

$$$$
CHEMBL1673054
     RDKit          3D

  0  0  0  0  0  0  0  0  0  0999 V3000
M  V30 BEGIN CTAB
M  V30 COUNTS 66 70 0 0 0
M  V30 BEGIN ATOM
M  V30 1 C 4.373150 -1.355450 4.040539 0
M  V30 2 O 3.150029 -0.765458 3.583709 0
M  V30 3 C 2.979140 -0.489645 2.252928 0
M  V30 4 C 3.915470 -0.737908 1.270886 0
M  V30 5 C 3.732931 -0.457546 -0.056994 0
M  V30 6 N 4.707362 -0.725531 -1.026853 0
M  V30 7 C 6.003875 -1.299104 -0.735839 0
M  V30 8 C 6.033505 -2.645473 -1.423037 0
M  V30 9 N 5.942166 -2.409710 -2.851827 0
M  V30 10 C 6.022235 -3.682865 -3.580665 0
M  V30 11 C 4.622555 -1.847937 -3.116305 0
M  V30 12 C 4.551055 -0.471691 -2.444000 0
M  V30 13 C 2.512237 0.105690 -0.345221 0
M  V30 14 C 1.524238 0.385102 0.576151 0
M  V30 15 C 1.752648 0.085134 1.903657 0
M  V30 16 N 0.757911 0.353983 2.883056 0
M  V30 17 C -0.475368 0.937636 2.486483 0
M  V30 18 N -0.802553 2.258146 2.431823 0
M  V30 19 C -2.023550 2.656213 2.028260 0
M  V30 20 C -2.974675 1.720599 1.658941 0
M  V30 21 C -2.651849 0.377519 1.711019 0
M  V30 22 N -1.402406 0.031596 2.126799 0
M  V30 23 N -3.435590 -0.787267 1.387000 0
M  V30 24 C -2.704230 -2.055275 1.325614 0
M  V30 25 C -4.830696 -0.866143 1.117262 0
M  V30 26 C -5.256365 -2.193908 1.035509 0
M  V30 27 C -6.590538 -2.429891 0.777012 0
M  V30 28 C -7.522877 -1.403831 0.595674 0
M  V30 29 C -8.936248 -1.752954 0.321232 0
M  V30 30 C -7.071333 -0.083052 0.682452 0
M  V30 31 C -5.735598 0.165085 0.941265 0
M  V30 32 C -5.425294 1.585543 1.000692 0
M  V30 33 O -6.388393 2.371151 0.788176 0
M  V30 34 N -4.204800 2.304123 1.260752 0
M  V30 35 C -4.183204 3.740476 1.117293 0
M  V30 36 H 5.261196 -0.827230 3.645380 0
M  V30 37 H 4.354693 -2.443621 3.771696 0
M  V30 38 H 4.433899 -1.258922 5.147767 0
M  V30 39 H 4.797581 -1.173672 1.663790 0
M  V30 40 H 6.763254 -0.652118 -1.267540 0
M  V30 41 H 6.275299 -1.343009 0.315914 0
M  V30 42 H 5.072781 -3.161396 -1.153016 0
M  V30 43 H 6.873213 -3.285761 -1.136156 0
M  V30 44 H 6.922177 -3.708949 -4.255464 0
M  V30 45 H 6.174326 -4.534987 -2.860549 0
M  V30 46 H 5.144322 -3.855109 -4.211947 0
M  V30 47 H 3.822687 -2.462721 -2.666635 0
M  V30 48 H 4.428838 -1.690248 -4.188955 0
M  V30 49 H 5.443077 0.105170 -2.793544 0
M  V30 50 H 3.620050 -0.014868 -2.748181 0
M  V30 51 H 2.232194 0.378716 -1.351544 0
M  V30 52 H 0.575432 0.827134 0.324695 0
M  V30 53 H 0.948356 0.118457 3.880812 0
M  V30 54 H -2.238657 3.709277 2.000674 0
M  V30 55 H -1.601716 -1.806218 1.371506 0
M  V30 56 H -2.797674 -2.549891 0.332153 0
M  V30 57 H -2.864910 -2.699774 2.189378 0
M  V30 58 H -4.598218 -3.024419 1.163622 0
M  V30 59 H -6.924708 -3.462612 0.712774 0
M  V30 60 H -9.005497 -2.659244 -0.343781 0
M  V30 61 H -9.398683 -0.933681 -0.264612 0
M  V30 62 H -9.523479 -1.914743 1.252695 0
M  V30 63 H -7.782027 0.729396 0.544151 0
M  V30 64 H -3.433934 4.115595 0.399954 0
M  V30 65 H -5.172106 3.999367 0.635804 0
M  V30 66 H -4.209925 4.288423 2.082953 0
M  V30 END ATOM
M  V30 BEGIN BOND
M  V30 1 1 1 2
M  V30 2 1 2 3
M  V30 3 2 3 4
M  V30 4 1 4 5
M  V30 5 1 5 6
M  V30 6 1 6 7
M  V30 7 1 7 8
M  V30 8 1 8 9
M  V30 9 1 9 10
M  V30 10 1 9 11
M  V30 11 1 11 12
M  V30 12 2 5 13
M  V30 13 1 13 14
M  V30 14 2 14 15
M  V30 15 1 15 16
M  V30 16 1 16 17
M  V30 17 2 17 18
M  V30 18 1 18 19
M  V30 19 2 19 20
M  V30 20 1 20 21
M  V30 21 2 21 22
M  V30 22 1 21 23
M  V30 23 1 23 24
M  V30 24 1 23 25
M  V30 25 2 25 26
M  V30 26 1 26 27
M  V30 27 2 27 28
M  V30 28 1 28 29
M  V30 29 1 28 30
M  V30 30 2 30 31
M  V30 31 1 31 32
M  V30 32 2 32 33
M  V30 33 1 32 34
M  V30 34 1 34 35
M  V30 35 1 15 3
M  V30 36 1 22 17
M  V30 37 1 31 25
M  V30 38 1 12 6
M  V30 39 1 34 20
M  V30 40 1 1 36
M  V30 41 1 1 37
M  V30 42 1 1 38
M  V30 43 1 4 39
M  V30 44 1 7 40
M  V30 45 1 7 41
M  V30 46 1 8 42
M  V30 47 1 8 43
M  V30 48 1 10 44
M  V30 49 1 10 45
M  V30 50 1 10 46
M  V30 51 1 11 47
M  V30 52 1 11 48
M  V30 53 1 12 49
M  V30 54 1 12 50
M  V30 55 1 13 51
M  V30 56 1 14 52
M  V30 57 1 16 53
M  V30 58 1 19 54
M  V30 59 1 24 55
M  V30 60 1 24 56
M  V30 61 1 24 57
M  V30 62 1 26 58
M  V30 63 1 27 59
M  V30 64 1 29 60
M  V30 65 1 29 61
M  V30 66 1 29 62
M  V30 67 1 30 63
M  V30 68 1 35 64
M  V30 69 1 35 65
M  V30 70 1 35 66
M  V30 END BOND
M  V30 END CTAB
M  END
>  <Dataset>  (339) 
ChEMBL_Kinases

>  <Ligand_Instance>  (339) 
nan

>  <PDB_ID>  (339) 
nan

>  <Standardized_SMILES>  (339) 
COc1cc(N2CCN(C)CC2)ccc1Nc1ncc2c(n1)N(C)c1ccc(C)cc1C(=O)N2C

>  <Name>  (339) 
nan

>  <Pocket>  (339) 
nan

>  <ATP_Site>  (339) 
nan

>  <Peripheral>  (339) 
nan

>  <Num_H_Atoms_ProtBoundConf>  (339) 
nan

>  <Num_Resolved_Atoms>  (339) 
nan

>  <Num_Not_Resolved_Atoms>  (339) 
nan

$$$$
CHEMBL493326
     RDKit          3D

  0  0  0  0  0  0  0  0  0  0999 V3000
M  V30 BEGIN CTAB
M  V30 COUNTS 47 50 0 0 0
M  V30 BEGIN ATOM
M  V30 1 C 3.298806 -3.885015 5.967201 0
M  V30 2 O 2.953160 -3.255201 4.772084 0
M  V30 3 C 3.425168 -2.078134 4.283412 0
M  V30 4 C 4.349280 -1.238086 4.850907 0
M  V30 5 C 4.812182 -0.048185 4.333221 0
M  V30 6 C 4.299098 0.365407 3.100075 0
M  V30 7 N 4.493272 1.426734 2.295128 0
M  V30 8 C 3.716956 1.310383 1.204644 0
M  V30 9 N 3.007980 0.167787 1.290361 0
M  V30 10 C 2.040825 -0.422288 0.424056 0
M  V30 11 C 0.700928 -0.123904 0.349487 0
M  V30 12 C -0.074019 -0.826401 -0.545846 0
M  V30 13 O -1.434050 -0.635752 -0.729883 0
M  V30 14 C -2.254859 0.282465 -0.089449 0 CFG=2
M  V30 15 C -3.105429 -0.316916 1.020472 0
M  V30 16 C -3.122284 1.094185 -0.948485 0
M  V30 17 C -3.777855 0.400081 -1.951918 0
M  V30 18 C -4.648265 0.962634 -2.866320 0
M  V30 19 C -4.901329 2.339480 -2.790090 0
M  V30 20 C -4.243707 3.015345 -1.787541 0
M  V30 21 C -3.379613 2.459775 -0.879441 0
M  V30 22 Cl -2.537899 3.294171 0.399785 0
M  V30 23 C 0.540242 -1.777096 -1.304997 0
M  V30 24 C 0.116867 -2.688784 -2.305846 0
M  V30 25 N -1.251014 -2.692005 -2.659081 0
M  V30 26 O 0.903498 -3.482687 -2.881085 0
M  V30 27 S 2.256834 -1.683649 -0.745847 0
M  V30 28 C 3.355067 -0.441242 2.468077 0
M  V30 29 C 2.954815 -1.600617 3.051572 0
M  V30 30 H 2.615819 -3.487700 6.767130 0
M  V30 31 H 3.139791 -4.987904 5.898459 0
M  V30 32 H 4.329346 -3.648950 6.273074 0
M  V30 33 H 4.750128 -1.563545 5.822052 0
M  V30 34 H 5.547161 0.568556 4.836542 0
M  V30 35 H 3.636112 1.986649 0.369233 0
M  V30 36 H 0.330549 0.650732 1.004457 0
M  V30 37 H -1.548533 0.984786 0.453901 0
M  V30 38 H -4.048723 0.260848 1.083754 0
M  V30 39 H -3.364695 -1.367483 0.844899 0
M  V30 40 H -2.621237 -0.213671 2.018445 0
M  V30 41 H -3.639338 -0.683074 -2.086825 0
M  V30 42 H -5.136230 0.377666 -3.630794 0
M  V30 43 H -5.563257 2.864047 -3.459447 0
M  V30 44 H -4.376219 4.099152 -1.642316 0
M  V30 45 H -1.893998 -2.767386 -3.474309 0
M  V30 46 H -2.275257 -2.685995 -2.852218 0
M  V30 47 H 2.214015 -2.253481 2.570909 0
M  V30 END ATOM
M  V30 BEGIN BOND
M  V30 1 1 1 2
M  V30 2 1 2 3
M  V30 3 2 3 4
M  V30 4 1 4 5
M  V30 5 2 5 6
M  V30 6 1 6 7
M  V30 7 2 7 8
M  V30 8 1 8 9
M  V30 9 1 9 10
M  V30 10 2 10 11
M  V30 11 1 11 12
M  V30 12 1 12 13
M  V30 13 1 13 14
M  V30 14 1 14 15
M  V30 15 1 14 16
M  V30 16 2 16 17
M  V30 17 1 17 18
M  V30 18 2 18 19
M  V30 19 1 19 20
M  V30 20 2 20 21
M  V30 21 1 21 22
M  V30 22 2 12 23
M  V30 23 1 23 24
M  V30 24 1 24 25
M  V30 25 2 24 26
M  V30 26 1 23 27
M  V30 27 1 9 28
M  V30 28 2 28 29
M  V30 29 1 29 3
M  V30 30 1 28 6
M  V30 31 1 27 10
M  V30 32 1 21 16
M  V30 33 1 1 30
M  V30 34 1 1 31
M  V30 35 1 1 32
M  V30 36 1 4 33
M  V30 37 1 5 34
M  V30 38 1 8 35
M  V30 39 1 11 36
M  V30 40 1 14 37 CFG=1
M  V30 41 1 15 38
M  V30 42 1 15 39
M  V30 43 1 15 40
M  V30 44 1 17 41
M  V30 45 1 18 42
M  V30 46 1 19 43
M  V30 47 1 20 44
M  V30 48 1 25 45
M  V30 49 1 25 46
M  V30 50 1 29 47
M  V30 END BOND
M  V30 END CTAB
M  END
>  <Dataset>  (340) 
ChEMBL_Kinases

>  <Ligand_Instance>  (340) 
nan

>  <PDB_ID>  (340) 
nan

>  <Standardized_SMILES>  (340) 
COc1ccc2ncn(-c3cc(O[C@H](C)c4ccccc4Cl)c(C(N)=O)s3)c2c1

>  <Name>  (340) 
GSK-317314A

>  <Pocket>  (340) 
nan

>  <ATP_Site>  (340) 
nan

>  <Peripheral>  (340) 
nan

>  <Num_H_Atoms_ProtBoundConf>  (340) 
nan

>  <Num_Resolved_Atoms>  (340) 
nan

>  <Num_Not_Resolved_Atoms>  (340) 
nan

$$$$
CHEMBL14212
     RDKit          3D

  0  0  0  0  0  0  0  0  0  0999 V3000
M  V30 BEGIN CTAB
M  V30 COUNTS 59 63 0 0 0
M  V30 BEGIN ATOM
M  V30 1 C 2.535177 -3.426881 4.152680 0
M  V30 2 C 2.895950 -2.033960 3.778188 0
M  V30 3 C 3.334816 -1.075002 4.692395 0
M  V30 4 C 3.639286 0.186547 4.215382 0
M  V30 5 C 3.509402 0.481476 2.867103 0
M  V30 6 C 3.081568 -0.449326 1.968286 0
M  V30 7 O 3.014621 0.019073 0.677521 0
M  V30 8 C 1.889869 0.103525 -0.111475 0
M  V30 9 N 2.190022 0.604422 -1.317228 0
M  V30 10 C 1.247605 0.777654 -2.248966 0
M  V30 11 C -0.028913 0.429804 -1.936793 0
M  V30 12 C -0.386366 -0.097808 -0.687284 0
M  V30 13 C -1.789153 -0.398784 -0.498286 0
M  V30 14 C -2.457285 0.770316 -0.108137 0
M  V30 15 C -2.182147 2.196029 0.170672 0
M  V30 16 C -1.349335 2.540851 1.194074 0
M  V30 17 C -1.132648 3.885650 1.404522 0
M  V30 18 C -1.720074 4.862524 0.628372 0
M  V30 19 F -1.532526 6.198586 0.802489 0
M  V30 20 C -2.564966 4.534022 -0.410884 0
M  V30 21 C -2.776096 3.171527 -0.613639 0
M  V30 22 N -3.785151 0.493691 0.067462 0
M  V30 23 C -3.940199 -0.835273 -0.211372 0
M  V30 24 N -2.729541 -1.323647 -0.542494 0
M  V30 25 C -2.271994 -2.653783 -0.940232 0
M  V30 26 C -1.400277 -3.300437 0.094714 0
M  V30 27 C -0.457174 -4.322971 -0.440331 0
M  V30 28 N 0.270663 -3.737102 -1.517658 0
M  V30 29 C -0.580793 -3.519718 -2.635164 0
M  V30 30 C -1.837833 -2.768475 -2.347071 0
M  V30 31 N 0.641452 -0.229158 0.172073 0
M  V30 32 C 2.779212 -1.704582 2.445233 0
M  V30 33 C 2.323620 -2.708704 1.450501 0
M  V30 34 H 3.347571 -4.100478 3.771810 0
M  V30 35 H 2.444155 -3.468791 5.249890 0
M  V30 36 H 1.568375 -3.718164 3.673126 0
M  V30 37 H 3.408063 -1.385022 5.720859 0
M  V30 38 H 3.967564 0.844055 5.009089 0
M  V30 39 H 3.787515 1.505938 2.671134 0
M  V30 40 H 1.445710 1.179982 -3.238743 0
M  V30 41 H -0.803207 0.571564 -2.700280 0
M  V30 42 H -0.899611 1.773659 1.788539 0
M  V30 43 H -0.475097 4.216845 2.209825 0
M  V30 44 H -3.039486 5.272898 -1.035652 0
M  V30 45 H -3.437089 2.889683 -1.425785 0
M  V30 46 H -4.823884 -1.469090 -0.198562 0
M  V30 47 H -3.236295 -3.255407 -0.882404 0
M  V30 48 H -0.823500 -2.541401 0.659783 0
M  V30 49 H -1.999587 -3.825867 0.898777 0
M  V30 50 H 0.241222 -4.615555 0.349058 0
M  V30 51 H -0.959461 -5.234282 -0.823731 0
M  V30 52 H 0.918142 -2.980384 -1.293523 0
M  V30 53 H -0.777776 -4.514620 -3.104870 0
M  V30 54 H 0.028962 -2.986571 -3.417648 0
M  V30 55 H -2.622308 -3.222221 -3.026911 0
M  V30 56 H -1.739372 -1.736784 -2.772385 0
M  V30 57 H 1.274326 -2.939941 1.716123 0
M  V30 58 H 2.458698 -2.340843 0.414920 0
M  V30 59 H 2.984450 -3.604226 1.582455 0
M  V30 END ATOM
M  V30 BEGIN BOND
M  V30 1 1 1 2
M  V30 2 2 2 3
M  V30 3 1 3 4
M  V30 4 2 4 5
M  V30 5 1 5 6
M  V30 6 1 6 7
M  V30 7 1 7 8
M  V30 8 2 8 9
M  V30 9 1 9 10
M  V30 10 2 10 11
M  V30 11 1 11 12
M  V30 12 1 12 13
M  V30 13 2 13 14
M  V30 14 1 14 15
M  V30 15 2 15 16
M  V30 16 1 16 17
M  V30 17 2 17 18
M  V30 18 1 18 19
M  V30 19 1 18 20
M  V30 20 2 20 21
M  V30 21 1 14 22
M  V30 22 2 22 23
M  V30 23 1 23 24
M  V30 24 1 24 25
M  V30 25 1 25 26
M  V30 26 1 26 27
M  V30 27 1 27 28
M  V30 28 1 28 29
M  V30 29 1 29 30
M  V30 30 2 12 31
M  V30 31 2 6 32
M  V30 32 1 32 33
M  V30 33 1 32 2
M  V30 34 1 31 8
M  V30 35 1 24 13
M  V30 36 1 30 25
M  V30 37 1 21 15
M  V30 38 1 1 34
M  V30 39 1 1 35
M  V30 40 1 1 36
M  V30 41 1 3 37
M  V30 42 1 4 38
M  V30 43 1 5 39
M  V30 44 1 10 40
M  V30 45 1 11 41
M  V30 46 1 16 42
M  V30 47 1 17 43
M  V30 48 1 20 44
M  V30 49 1 21 45
M  V30 50 1 23 46
M  V30 51 1 25 47
M  V30 52 1 26 48
M  V30 53 1 26 49
M  V30 54 1 27 50
M  V30 55 1 27 51
M  V30 56 1 28 52
M  V30 57 1 29 53
M  V30 58 1 29 54
M  V30 59 1 30 55
M  V30 60 1 30 56
M  V30 61 1 33 57
M  V30 62 1 33 58
M  V30 63 1 33 59
M  V30 END BOND
M  V30 END CTAB
M  END
>  <Dataset>  (341) 
ChEMBL_Kinases

>  <Ligand_Instance>  (341) 
nan

>  <PDB_ID>  (341) 
nan

>  <Standardized_SMILES>  (341) 
Cc1cccc(Oc2nccc(-c3c(-c4ccc(F)cc4)ncn3C3CCNCC3)n2)c1C

>  <Name>  (341) 
nan

>  <Pocket>  (341) 
nan

>  <ATP_Site>  (341) 
nan

>  <Peripheral>  (341) 
nan

>  <Num_H_Atoms_ProtBoundConf>  (341) 
nan

>  <Num_Resolved_Atoms>  (341) 
nan

>  <Num_Not_Resolved_Atoms>  (341) 
nan

$$$$
CHEMBL493251
     RDKit          3D

  0  0  0  0  0  0  0  0  0  0999 V3000
M  V30 BEGIN CTAB
M  V30 COUNTS 47 50 0 0 0
M  V30 BEGIN ATOM
M  V30 1 C 1.965877 -3.564762 0.658668 0
M  V30 2 C 1.320023 -2.618586 -0.333053 0
M  V30 3 N 1.286776 -1.243982 0.138378 0
M  V30 4 C 2.263494 -0.350571 -0.088839 0
M  V30 5 C 3.507494 -0.539240 -0.815664 0
M  V30 6 N 4.053487 -1.589719 -1.453682 0
M  V30 7 O 5.215404 -1.253889 -1.963547 0
M  V30 8 N 5.490620 -0.006384 -1.699186 0
M  V30 9 C 4.449855 0.474698 -0.984657 0
M  V30 10 N 4.404384 1.832203 -0.512755 0
M  V30 11 N 1.897487 0.787875 0.482278 0
M  V30 12 C 0.693020 0.600079 1.063971 0
M  V30 13 C -0.105413 1.466778 1.776580 0
M  V30 14 C 0.271448 2.855124 2.032921 0
M  V30 15 C 1.426928 3.491128 1.624884 0
M  V30 16 C 1.319061 4.783046 2.108583 0
M  V30 17 C 0.112626 4.920746 2.799003 0
M  V30 18 N -0.502870 3.709133 2.728527 0
M  V30 19 N -1.283926 1.022808 2.260268 0
M  V30 20 C -1.696319 -0.247035 2.062073 0
M  V30 21 C -0.961845 -1.179061 1.361474 0
M  V30 22 O -1.165863 -2.452194 1.052713 0
M  V30 23 C -2.049205 -3.452573 1.183300 0
M  V30 24 C -3.401000 -3.427955 0.616705 0
M  V30 25 C -4.352362 -2.370277 1.008636 0
M  V30 26 N -5.658608 -2.509154 0.373325 0
M  V30 27 C 0.255952 -0.716442 0.863259 0
M  V30 28 H 2.837346 -4.115225 0.229007 0
M  V30 29 H 2.348703 -2.990691 1.543227 0
M  V30 30 H 1.247801 -4.310410 1.024575 0
M  V30 31 H 0.327840 -2.982232 -0.663133 0
M  V30 32 H 1.941271 -2.662978 -1.253065 0
M  V30 33 H 4.800316 1.967753 0.445614 0
M  V30 34 H 3.962588 2.377204 -1.287040 0
M  V30 35 H 2.241587 3.085574 1.055596 0
M  V30 36 H 2.068394 5.577326 1.969877 0
M  V30 37 H -0.174424 5.857043 3.261230 0
M  V30 38 H -1.439916 3.608414 3.196288 0
M  V30 39 H -2.631584 -0.605995 2.457955 0
M  V30 40 H -1.601624 -4.460897 0.870525 0
M  V30 41 H -2.174656 -3.641960 2.308178 0
M  V30 42 H -3.897586 -4.409577 0.900609 0
M  V30 43 H -3.313565 -3.540861 -0.509969 0
M  V30 44 H -4.500126 -2.354222 2.092342 0
M  V30 45 H -3.909823 -1.392415 0.640078 0
M  V30 46 H -6.302268 -1.880813 0.916213 0
M  V30 47 H -5.996712 -3.491100 0.579324 0
M  V30 END ATOM
M  V30 BEGIN BOND
M  V30 1 1 1 2
M  V30 2 1 2 3
M  V30 3 1 3 4
M  V30 4 1 4 5
M  V30 5 2 5 6
M  V30 6 1 6 7
M  V30 7 1 7 8
M  V30 8 2 8 9
M  V30 9 1 9 10
M  V30 10 2 4 11
M  V30 11 1 11 12
M  V30 12 2 12 13
M  V30 13 1 13 14
M  V30 14 2 14 15
M  V30 15 1 15 16
M  V30 16 2 16 17
M  V30 17 1 17 18
M  V30 18 1 13 19
M  V30 19 2 19 20
M  V30 20 1 20 21
M  V30 21 1 21 22
M  V30 22 1 22 23
M  V30 23 1 23 24
M  V30 24 1 24 25
M  V30 25 1 25 26
M  V30 26 2 21 27
M  V30 27 1 27 3
M  V30 28 1 9 5
M  V30 29 1 27 12
M  V30 30 1 18 14
M  V30 31 1 1 28
M  V30 32 1 1 29
M  V30 33 1 1 30
M  V30 34 1 2 31
M  V30 35 1 2 32
M  V30 36 1 10 33
M  V30 37 1 10 34
M  V30 38 1 15 35
M  V30 39 1 16 36
M  V30 40 1 17 37
M  V30 41 1 18 38
M  V30 42 1 20 39
M  V30 43 1 23 40
M  V30 44 1 23 41
M  V30 45 1 24 42
M  V30 46 1 24 43
M  V30 47 1 25 44
M  V30 48 1 25 45
M  V30 49 1 26 46
M  V30 50 1 26 47
M  V30 END BOND
M  V30 END CTAB
M  END
>  <Dataset>  (342) 
ChEMBL_Kinases

>  <Ligand_Instance>  (342) 
nan

>  <PDB_ID>  (342) 
nan

>  <Standardized_SMILES>  (342) 
CCn1c(-c2nonc2N)nc2c(-c3ccc[nH]3)ncc(OCCCN)c21

>  <Name>  (342) 
nan

>  <Pocket>  (342) 
nan

>  <ATP_Site>  (342) 
nan

>  <Peripheral>  (342) 
nan

>  <Num_H_Atoms_ProtBoundConf>  (342) 
nan

>  <Num_Resolved_Atoms>  (342) 
nan

>  <Num_Not_Resolved_Atoms>  (342) 
nan

$$$$
CHEMBL1672987
     RDKit          3D

  0  0  0  0  0  0  0  0  0  0999 V3000
M  V30 BEGIN CTAB
M  V30 COUNTS 60 64 0 0 0
M  V30 BEGIN ATOM
M  V30 1 C 4.206263 -0.392545 2.153891 0
M  V30 2 O 2.959437 -0.747578 1.606155 0
M  V30 3 C 1.809110 0.015651 1.781924 0
M  V30 4 C 1.868508 1.175776 2.521367 0
M  V30 5 C 0.757923 1.962710 2.722208 0
M  V30 6 N 0.836161 3.161051 3.482078 0
M  V30 7 C 2.046416 3.756039 4.013733 0
M  V30 8 C 1.970939 5.231618 3.687213 0
M  V30 9 N 1.070096 5.477043 2.588237 0
M  V30 10 C 1.284925 6.736074 1.948111 0
M  V30 11 C -0.289652 5.260324 3.001491 0
M  V30 12 C -0.299803 3.982167 3.851205 0
M  V30 13 C -0.437237 1.569029 2.164304 0
M  V30 14 C -0.450389 0.394376 1.428020 0
M  V30 15 C 0.625540 -0.434129 1.192075 0
M  V30 16 N 0.597487 -1.619941 0.443515 0
M  V30 17 C -0.501338 -2.227866 -0.217854 0
M  V30 18 N -1.757764 -1.769681 -0.246665 0
M  V30 19 C -2.792702 -2.343797 -0.871597 0
M  V30 20 C -2.550472 -3.506398 -1.544573 0
M  V30 21 C -1.274919 -4.022845 -1.547755 0
M  V30 22 N -0.306937 -3.371300 -0.890921 0
M  V30 23 N -0.787196 -5.213559 -2.177338 0
M  V30 24 C 0.622407 -5.487365 -2.079759 0
M  V30 25 C -1.567540 -6.177354 -2.907064 0
M  V30 26 C -0.801610 -7.291773 -3.176438 0
M  V30 27 C -1.427698 -8.319971 -3.884057 0
M  V30 28 C -2.745993 -8.268202 -4.313412 0
M  V30 29 C -3.498111 -7.142745 -4.033984 0
M  V30 30 C -2.893346 -6.118571 -3.335650 0
M  V30 31 C -3.826804 -5.017852 -3.130486 0
M  V30 32 O -4.821585 -4.960691 -3.903243 0
M  V30 33 N -3.751786 -3.983252 -2.149001 0
M  V30 34 H 4.746918 0.387788 1.598794 0
M  V30 35 H 4.141440 -0.127837 3.237059 0
M  V30 36 H 4.811059 -1.344165 2.145428 0
M  V30 37 H 2.837498 1.418975 2.928328 0
M  V30 38 H 2.056772 3.603062 5.131613 0
M  V30 39 H 2.975449 3.294115 3.638485 0
M  V30 40 H 2.999426 5.610559 3.433765 0
M  V30 41 H 1.613499 5.762497 4.578889 0
M  V30 42 H 2.354305 6.910470 1.803818 0
M  V30 43 H 0.724182 6.698289 0.976867 0
M  V30 44 H 0.827759 7.549701 2.557739 0
M  V30 45 H -0.987779 5.150973 2.154276 0
M  V30 46 H -0.625076 6.139433 3.593096 0
M  V30 47 H -0.227142 4.340740 4.920730 0
M  V30 48 H -1.263939 3.471941 3.788331 0
M  V30 49 H -1.346251 2.144152 2.283260 0
M  V30 50 H -1.406039 0.139465 1.018888 0
M  V30 51 H 1.527788 -2.130005 0.362731 0
M  V30 52 H -3.777384 -1.893548 -0.836372 0
M  V30 53 H 1.113774 -4.549512 -1.689334 0
M  V30 54 H 1.116952 -5.602494 -3.086562 0
M  V30 55 H 0.895033 -6.259203 -1.357949 0
M  V30 56 H 0.210044 -7.419109 -2.888685 0
M  V30 57 H -0.887195 -9.241480 -4.138825 0
M  V30 58 H -3.185147 -9.096608 -4.860894 0
M  V30 59 H -4.518601 -7.055653 -4.344197 0
M  V30 60 H -4.643001 -3.551950 -1.860136 0
M  V30 END ATOM
M  V30 BEGIN BOND
M  V30 1 1 1 2
M  V30 2 1 2 3
M  V30 3 2 3 4
M  V30 4 1 4 5
M  V30 5 1 5 6
M  V30 6 1 6 7
M  V30 7 1 7 8
M  V30 8 1 8 9
M  V30 9 1 9 10
M  V30 10 1 9 11
M  V30 11 1 11 12
M  V30 12 2 5 13
M  V30 13 1 13 14
M  V30 14 2 14 15
M  V30 15 1 15 16
M  V30 16 1 16 17
M  V30 17 2 17 18
M  V30 18 1 18 19
M  V30 19 2 19 20
M  V30 20 1 20 21
M  V30 21 2 21 22
M  V30 22 1 21 23
M  V30 23 1 23 24
M  V30 24 1 23 25
M  V30 25 2 25 26
M  V30 26 1 26 27
M  V30 27 2 27 28
M  V30 28 1 28 29
M  V30 29 2 29 30
M  V30 30 1 30 31
M  V30 31 2 31 32
M  V30 32 1 31 33
M  V30 33 1 15 3
M  V30 34 1 22 17
M  V30 35 1 30 25
M  V30 36 1 12 6
M  V30 37 1 33 20
M  V30 38 1 1 34
M  V30 39 1 1 35
M  V30 40 1 1 36
M  V30 41 1 4 37
M  V30 42 1 7 38
M  V30 43 1 7 39
M  V30 44 1 8 40
M  V30 45 1 8 41
M  V30 46 1 10 42
M  V30 47 1 10 43
M  V30 48 1 10 44
M  V30 49 1 11 45
M  V30 50 1 11 46
M  V30 51 1 12 47
M  V30 52 1 12 48
M  V30 53 1 13 49
M  V30 54 1 14 50
M  V30 55 1 16 51
M  V30 56 1 19 52
M  V30 57 1 24 53
M  V30 58 1 24 54
M  V30 59 1 24 55
M  V30 60 1 26 56
M  V30 61 1 27 57
M  V30 62 1 28 58
M  V30 63 1 29 59
M  V30 64 1 33 60
M  V30 END BOND
M  V30 END CTAB
M  END
>  <Dataset>  (343) 
ChEMBL_Kinases

>  <Ligand_Instance>  (343) 
nan

>  <PDB_ID>  (343) 
nan

>  <Standardized_SMILES>  (343) 
COc1cc(N2CCN(C)CC2)ccc1Nc1ncc2c(n1)N(C)c1ccccc1C(=O)N2

>  <Name>  (343) 
nan

>  <Pocket>  (343) 
nan

>  <ATP_Site>  (343) 
nan

>  <Peripheral>  (343) 
nan

>  <Num_H_Atoms_ProtBoundConf>  (343) 
nan

>  <Num_Resolved_Atoms>  (343) 
nan

>  <Num_Not_Resolved_Atoms>  (343) 
nan

$$$$
CHEMBL1672575
     RDKit          3D

  0  0  0  0  0  0  0  0  0  0999 V3000
M  V30 BEGIN CTAB
M  V30 COUNTS 26 28 0 0 0
M  V30 BEGIN ATOM
M  V30 1 C 0.894770 -4.848886 0.066063 0
M  V30 2 O 2.118392 -4.309027 0.450098 0
M  V30 3 C 2.243012 -2.921536 0.668534 0
M  V30 4 N 3.463875 -2.494578 1.036670 0
M  V30 5 C 3.597236 -1.175344 1.248135 0
M  V30 6 C 2.409145 -0.420264 1.047401 0
M  V30 7 S 2.242625 1.444902 1.256679 0
M  V30 8 C 0.539685 1.449777 0.824350 0
M  V30 9 C 0.204280 0.130964 0.560985 0
M  V30 10 C 1.151234 -0.819708 0.673560 0
M  V30 11 N 1.163415 -2.148286 0.497865 0
M  V30 12 S -1.449279 -0.404808 0.065250 0
M  V30 13 C -2.648067 0.864142 0.173953 0
M  V30 14 C -2.573109 1.862493 1.266000 0
M  V30 15 N -1.580848 2.894272 1.053178 0
M  V30 16 C -0.196263 2.684137 0.805518 0
M  V30 17 O 0.473277 3.710647 0.534687 0
M  V30 18 H 0.765502 -5.870124 0.435142 0
M  V30 19 H 0.759569 -4.868095 -1.043245 0
M  V30 20 H 0.018435 -4.263751 0.438069 0
M  V30 21 H 4.473493 -0.657814 1.540912 0
M  V30 22 H -2.763179 1.450106 -0.786350 0
M  V30 23 H -3.664257 0.377673 0.275601 0
M  V30 24 H -3.559223 2.376292 1.332492 0
M  V30 25 H -2.441724 1.323135 2.221603 0
M  V30 26 H -1.866039 3.896751 1.074995 0
M  V30 END ATOM
M  V30 BEGIN BOND
M  V30 1 1 1 2
M  V30 2 1 2 3
M  V30 3 2 3 4
M  V30 4 1 4 5
M  V30 5 2 5 6
M  V30 6 1 6 7
M  V30 7 1 7 8
M  V30 8 2 8 9
M  V30 9 1 9 10
M  V30 10 2 10 11
M  V30 11 1 9 12
M  V30 12 1 12 13
M  V30 13 1 13 14
M  V30 14 1 14 15
M  V30 15 1 15 16
M  V30 16 2 16 17
M  V30 17 1 11 3
M  V30 18 1 10 6
M  V30 19 1 16 8
M  V30 20 1 1 18
M  V30 21 1 1 19
M  V30 22 1 1 20
M  V30 23 1 5 21
M  V30 24 1 13 22
M  V30 25 1 13 23
M  V30 26 1 14 24
M  V30 27 1 14 25
M  V30 28 1 15 26
M  V30 END BOND
M  V30 END CTAB
M  END
>  <Dataset>  (344) 
ChEMBL_Kinases

>  <Ligand_Instance>  (344) 
nan

>  <PDB_ID>  (344) 
nan

>  <Standardized_SMILES>  (344) 
COc1ncc2sc3c(c2n1)SCCNC3=O

>  <Name>  (344) 
nan

>  <Pocket>  (344) 
nan

>  <ATP_Site>  (344) 
nan

>  <Peripheral>  (344) 
nan

>  <Num_H_Atoms_ProtBoundConf>  (344) 
nan

>  <Num_Resolved_Atoms>  (344) 
nan

>  <Num_Not_Resolved_Atoms>  (344) 
nan

$$$$
CHEMBL4788258
     RDKit          3D

  0  0  0  0  0  0  0  0  0  0999 V3000
M  V30 BEGIN CTAB
M  V30 COUNTS 54 57 0 0 0
M  V30 BEGIN ATOM
M  V30 1 O 1.761818 -4.613305 -0.089035 0
M  V30 2 C 2.008946 -5.138744 -1.199533 0
M  V30 3 N 2.779608 -4.460893 -2.175381 0
M  V30 4 C 3.181709 -3.168513 -1.676619 0
M  V30 5 C 4.218433 -2.588388 -0.976833 0
M  V30 6 N 3.933649 -1.276207 -0.855625 0
M  V30 7 N 2.771258 -1.012888 -1.445606 0
M  V30 8 C 2.309247 0.331369 -1.416068 0
M  V30 9 C 2.503931 1.126814 -2.616391 0
M  V30 10 S 1.757863 2.777073 -2.114687 0
M  V30 11 C 1.311155 2.278571 -0.517664 0
M  V30 12 C 0.650943 3.127383 0.459752 0
M  V30 13 O 0.402366 4.297450 0.085986 0
M  V30 14 N 0.336519 2.598878 1.738782 0
M  V30 15 C -0.319451 3.405233 2.741878 0
M  V30 16 C -1.664366 3.885814 2.250577 0
M  V30 17 C -2.597318 2.773908 1.913247 0
M  V30 18 C -3.863585 3.302212 1.344818 0
M  V30 19 N -4.469339 4.368013 2.072483 0
M  V30 20 C -3.574222 5.325233 2.632983 0
M  V30 21 C -2.363914 4.739501 3.286454 0
M  V30 22 C 1.693168 0.971566 -0.371577 0
M  V30 23 C 2.260732 -2.158037 -1.973276 0
M  V30 24 N 1.461704 -6.445502 -1.392870 0
M  V30 25 C 0.685948 -7.129002 -0.411822 0
M  V30 26 C 1.113103 -7.979914 0.589721 0
M  V30 27 C 0.174091 -8.533016 1.432702 0
M  V30 28 C -1.175022 -8.296210 1.348084 0
M  V30 29 C -1.608074 -7.444410 0.346356 0
M  V30 30 C -0.685714 -6.878479 -0.510113 0
M  V30 31 Cl -1.365996 -5.809082 -1.746184 0
M  V30 32 H 2.952292 -4.948512 -3.080711 0
M  V30 33 H 4.998106 -3.274562 -0.689638 0
M  V30 34 H 2.945381 0.841875 -3.516390 0
M  V30 35 H 0.588376 1.601739 1.953396 0
M  V30 36 H 0.303915 4.338249 2.846499 0
M  V30 37 H -0.374825 2.860685 3.681393 0
M  V30 38 H -1.539366 4.536764 1.361899 0
M  V30 39 H -2.159070 2.083157 1.149899 0
M  V30 40 H -2.798828 2.159932 2.804151 0
M  V30 41 H -4.606792 2.469011 1.310852 0
M  V30 42 H -3.739335 3.638449 0.286233 0
M  V30 43 H -5.254336 4.088007 2.690658 0
M  V30 44 H -4.122713 5.883045 3.431427 0
M  V30 45 H -3.248449 6.044459 1.866668 0
M  V30 46 H -2.632466 4.046308 4.112632 0
M  V30 47 H -1.690030 5.548315 3.595206 0
M  V30 48 H 1.514192 0.445452 0.552956 0
M  V30 49 H 1.296843 -2.031529 -2.482066 0
M  V30 50 H 1.654957 -6.914992 -2.324197 0
M  V30 51 H 2.168933 -8.126883 0.607756 0
M  V30 52 H 0.563259 -9.191533 2.198545 0
M  V30 53 H -1.884882 -8.750999 2.031409 0
M  V30 54 H -2.673393 -7.246316 0.265584 0
M  V30 END ATOM
M  V30 BEGIN BOND
M  V30 1 2 1 2
M  V30 2 1 2 3
M  V30 3 1 3 4
M  V30 4 1 4 5
M  V30 5 2 5 6
M  V30 6 1 6 7
M  V30 7 1 7 8
M  V30 8 2 8 9
M  V30 9 1 9 10
M  V30 10 1 10 11
M  V30 11 1 11 12
M  V30 12 2 12 13
M  V30 13 1 12 14
M  V30 14 1 14 15
M  V30 15 1 15 16
M  V30 16 1 16 17
M  V30 17 1 17 18
M  V30 18 1 18 19
M  V30 19 1 19 20
M  V30 20 1 20 21
M  V30 21 2 11 22
M  V30 22 1 7 23
M  V30 23 1 2 24
M  V30 24 1 24 25
M  V30 25 2 25 26
M  V30 26 1 26 27
M  V30 27 2 27 28
M  V30 28 1 28 29
M  V30 29 2 29 30
M  V30 30 1 30 31
M  V30 31 2 23 4
M  V30 32 1 30 25
M  V30 33 1 22 8
M  V30 34 1 21 16
M  V30 35 1 3 32
M  V30 36 1 5 33
M  V30 37 1 9 34
M  V30 38 1 14 35
M  V30 39 1 15 36
M  V30 40 1 15 37
M  V30 41 1 16 38
M  V30 42 1 17 39
M  V30 43 1 17 40
M  V30 44 1 18 41
M  V30 45 1 18 42
M  V30 46 1 19 43
M  V30 47 1 20 44
M  V30 48 1 20 45
M  V30 49 1 21 46
M  V30 50 1 21 47
M  V30 51 1 22 48
M  V30 52 1 23 49
M  V30 53 1 24 50
M  V30 54 1 26 51
M  V30 55 1 27 52
M  V30 56 1 28 53
M  V30 57 1 29 54
M  V30 END BOND
M  V30 END CTAB
M  END
>  <Dataset>  (345) 
ChEMBL_Kinases

>  <Ligand_Instance>  (345) 
nan

>  <PDB_ID>  (345) 
nan

>  <Standardized_SMILES>  (345) 
O=C(Nc1cnn(-c2csc(C(=O)NCC3CCNCC3)c2)c1)Nc1ccccc1Cl

>  <Name>  (345) 
nan

>  <Pocket>  (345) 
nan

>  <ATP_Site>  (345) 
nan

>  <Peripheral>  (345) 
nan

>  <Num_H_Atoms_ProtBoundConf>  (345) 
nan

>  <Num_Resolved_Atoms>  (345) 
nan

>  <Num_Not_Resolved_Atoms>  (345) 
nan

$$$$
CHEMBL491547
     RDKit          3D

  0  0  0  0  0  0  0  0  0  0999 V3000
M  V30 BEGIN CTAB
M  V30 COUNTS 57 60 0 0 0
M  V30 BEGIN ATOM
M  V30 1 C 3.352322 -1.645515 5.215442 0
M  V30 2 O 3.422149 -2.196875 3.927681 0
M  V30 3 C 2.198649 -2.393141 3.268465 0
M  V30 4 C 0.948960 -2.078749 3.807492 0
M  V30 5 C -0.184569 -2.321324 3.053596 0
M  V30 6 C -0.142662 -2.860628 1.790581 0
M  V30 7 C -1.375076 -3.109958 1.004918 0
M  V30 8 N -1.522103 -2.093173 -0.023605 0
M  V30 9 C -2.663068 -2.168115 -0.894316 0
M  V30 10 N -3.551964 -3.163161 -0.736816 0
M  V30 11 C -4.634299 -3.296638 -1.507807 0
M  V30 12 N -4.869760 -2.412578 -2.490836 0
M  V30 13 C -4.041198 -1.380017 -2.731332 0
M  V30 14 C -4.246746 -0.461150 -3.721338 0
M  V30 15 C -3.367298 0.600535 -3.946683 0
M  V30 16 C -2.254406 0.697884 -3.118315 0
M  V30 17 C -1.320683 1.802392 -3.337088 0
M  V30 18 C -1.069026 2.352747 -4.575771 0
M  V30 19 C -0.167629 3.401675 -4.707777 0
M  V30 20 C 0.494111 3.916159 -3.611696 0
M  V30 21 C 0.277381 3.396925 -2.333567 0
M  V30 22 N 0.903158 3.848863 -1.139990 0
M  V30 23 S 1.056992 5.519780 -0.776377 0
M  V30 24 C -0.576684 6.210053 -0.650614 0
M  V30 25 O 1.874509 6.237087 -1.822704 0
M  V30 26 O 1.672076 5.668074 0.601873 0
M  V30 27 C -0.639139 2.348219 -2.282395 0
M  V30 28 C -2.078486 -0.246969 -2.129493 0
M  V30 29 C -2.942982 -1.295261 -1.903979 0
M  V30 30 C 1.094621 -3.177033 1.245008 0
M  V30 31 O 1.112046 -3.715630 -0.020019 0
M  V30 32 C 2.329024 -4.063753 -0.644081 0
M  V30 33 C 2.240628 -2.934997 1.999457 0
M  V30 34 H 2.924613 -0.633153 5.255741 0
M  V30 35 H 2.669026 -2.287577 5.835240 0
M  V30 36 H 4.324016 -1.668080 5.744486 0
M  V30 37 H 0.948530 -1.654569 4.806262 0
M  V30 38 H -1.135620 -2.059853 3.515955 0
M  V30 39 H -1.269666 -4.135575 0.569350 0
M  V30 40 H -2.234245 -3.113411 1.705062 0
M  V30 41 H -0.785662 -1.360738 -0.072680 0
M  V30 42 H -5.250041 -4.145743 -1.256564 0
M  V30 43 H -5.137766 -0.617809 -4.314447 0
M  V30 44 H -3.591135 1.295983 -4.752235 0
M  V30 45 H -1.594293 1.942635 -5.435476 0
M  V30 46 H 0.031412 3.838184 -5.693661 0
M  V30 47 H 1.201696 4.731367 -3.676489 0
M  V30 48 H 1.248954 3.069995 -0.526400 0
M  V30 49 H -1.203356 5.498554 -0.072536 0
M  V30 50 H -0.558476 7.154002 -0.069688 0
M  V30 51 H -1.022135 6.338850 -1.653467 0
M  V30 52 H -0.824858 1.929333 -1.303880 0
M  V30 53 H -1.196273 -0.089991 -1.544621 0
M  V30 54 H 2.834068 -3.147611 -1.006811 0
M  V30 55 H 2.130716 -4.772480 -1.477223 0
M  V30 56 H 2.998577 -4.580705 0.086639 0
M  V30 57 H 3.202790 -3.186373 1.563090 0
M  V30 END ATOM
M  V30 BEGIN BOND
M  V30 1 1 1 2
M  V30 2 1 2 3
M  V30 3 2 3 4
M  V30 4 1 4 5
M  V30 5 2 5 6
M  V30 6 1 6 7
M  V30 7 1 7 8
M  V30 8 1 8 9
M  V30 9 2 9 10
M  V30 10 1 10 11
M  V30 11 2 11 12
M  V30 12 1 12 13
M  V30 13 2 13 14
M  V30 14 1 14 15
M  V30 15 2 15 16
M  V30 16 1 16 17
M  V30 17 2 17 18
M  V30 18 1 18 19
M  V30 19 2 19 20
M  V30 20 1 20 21
M  V30 21 1 21 22
M  V30 22 1 22 23
M  V30 23 1 23 24
M  V30 24 2 23 25
M  V30 25 2 23 26
M  V30 26 2 21 27
M  V30 27 1 16 28
M  V30 28 2 28 29
M  V30 29 1 6 30
M  V30 30 1 30 31
M  V30 31 1 31 32
M  V30 32 2 30 33
M  V30 33 1 33 3
M  V30 34 1 29 9
M  V30 35 1 29 13
M  V30 36 1 27 17
M  V30 37 1 1 34
M  V30 38 1 1 35
M  V30 39 1 1 36
M  V30 40 1 4 37
M  V30 41 1 5 38
M  V30 42 1 7 39
M  V30 43 1 7 40
M  V30 44 1 8 41
M  V30 45 1 11 42
M  V30 46 1 14 43
M  V30 47 1 15 44
M  V30 48 1 18 45
M  V30 49 1 19 46
M  V30 50 1 20 47
M  V30 51 1 22 48
M  V30 52 1 24 49
M  V30 53 1 24 50
M  V30 54 1 24 51
M  V30 55 1 27 52
M  V30 56 1 28 53
M  V30 57 1 32 54
M  V30 58 1 32 55
M  V30 59 1 32 56
M  V30 60 1 33 57
M  V30 END BOND
M  V30 END CTAB
M  END
>  <Dataset>  (346) 
ChEMBL_Kinases

>  <Ligand_Instance>  (346) 
nan

>  <PDB_ID>  (346) 
nan

>  <Standardized_SMILES>  (346) 
COc1ccc(CNc2ncnc3ccc(-c4cccc(NS(C)(=O)=O)c4)cc23)c(OC)c1

>  <Name>  (346) 
nan

>  <Pocket>  (346) 
nan

>  <ATP_Site>  (346) 
nan

>  <Peripheral>  (346) 
nan

>  <Num_H_Atoms_ProtBoundConf>  (346) 
nan

>  <Num_Resolved_Atoms>  (346) 
nan

>  <Num_Not_Resolved_Atoms>  (346) 
nan

$$$$
CHEMBL4788376
     RDKit          3D

  0  0  0  0  0  0  0  0  0  0999 V3000
M  V30 BEGIN CTAB
M  V30 COUNTS 63 65 0 0 0
M  V30 BEGIN ATOM
M  V30 1 C 5.453982 1.221686 5.727603 0
M  V30 2 C 3.964459 1.412665 5.777098 0
M  V30 3 N 3.426907 2.315692 4.866768 0
M  V30 4 C 3.660668 3.668198 5.037807 0
M  V30 5 C 5.078289 4.081560 4.761707 0
M  V30 6 C 2.382838 1.890632 4.000664 0
M  V30 7 C 2.937942 0.878875 3.018020 0
M  V30 8 N 1.995431 0.360348 2.092884 0
M  V30 9 C 1.255616 1.119456 1.152166 0
M  V30 10 O 1.547865 2.338046 1.241001 0
M  V30 11 C 0.274108 0.648664 0.180297 0
M  V30 12 C -0.332715 1.561039 -0.654552 0
M  V30 13 C -0.149940 3.052576 -0.748854 0
M  V30 14 N -1.185953 0.896565 -1.446045 0
M  V30 15 C -1.198670 -0.424673 -1.199108 0
M  V30 16 C -1.920714 -1.585553 -1.706612 0
M  V30 17 C -3.228196 -1.741265 -1.885566 0
M  V30 18 C -4.229141 -0.731439 -1.589001 0
M  V30 19 O -3.998907 0.391195 -1.121577 0
M  V30 20 N -5.446072 -1.332366 -1.949450 0
M  V30 21 C -5.229009 -2.646172 -2.444357 0
M  V30 22 C -6.122403 -3.594711 -2.907235 0
M  V30 23 C -5.619034 -4.806204 -3.332068 0
M  V30 24 C -4.254575 -5.099444 -3.309262 0
M  V30 25 C -3.851574 -6.460572 -3.798601 0
M  V30 26 C -3.608695 -6.385462 -5.292727 0
M  V30 27 C -3.214282 -7.669500 -5.858957 0
M  V30 28 N -2.914498 -8.687217 -6.298852 0
M  V30 29 C -3.361643 -4.159362 -2.849856 0
M  V30 30 C -3.858424 -2.945294 -2.423358 0
M  V30 31 C -0.264352 -0.571079 -0.161772 0
M  V30 32 C 0.143922 -1.815563 0.523124 0
M  V30 33 H 5.689976 0.103555 5.838851 0
M  V30 34 H 5.928839 1.565721 4.793485 0
M  V30 35 H 5.989950 1.723408 6.575663 0
M  V30 36 H 3.476563 0.393089 5.743634 0
M  V30 37 H 3.725383 1.721056 6.857762 0
M  V30 38 H 3.494461 3.909780 6.142508 0
M  V30 39 H 2.938769 4.313173 4.454402 0
M  V30 40 H 5.749966 3.792504 5.556655 0
M  V30 41 H 5.392541 3.605322 3.804197 0
M  V30 42 H 5.143314 5.205229 4.665939 0
M  V30 43 H 1.551735 1.428641 4.573579 0
M  V30 44 H 1.988143 2.783971 3.477251 0
M  V30 45 H 3.366331 0.074506 3.650258 0
M  V30 46 H 3.826599 1.358974 2.550459 0
M  V30 47 H 1.827361 -0.669180 2.100737 0
M  V30 48 H -0.791886 3.488137 -1.532101 0
M  V30 49 H -0.402587 3.464219 0.268880 0
M  V30 50 H 0.926889 3.188066 -0.967811 0
M  V30 51 H -1.776250 1.323031 -2.191461 0
M  V30 52 H -1.279098 -2.443670 -1.974561 0
M  V30 53 H -6.364426 -0.817884 -1.840094 0
M  V30 54 H -7.203680 -3.421329 -2.949128 0
M  V30 55 H -6.320112 -5.569069 -3.702754 0
M  V30 56 H -2.863379 -6.752088 -3.364237 0
M  V30 57 H -4.644616 -7.208565 -3.627915 0
M  V30 58 H -2.878896 -5.629118 -5.590858 0
M  V30 59 H -4.562468 -6.095712 -5.817650 0
M  V30 60 H -2.308314 -4.395586 -2.834601 0
M  V30 61 H 1.198062 -2.072252 0.318235 0
M  V30 62 H -0.155069 -1.827052 1.579340 0
M  V30 63 H -0.452794 -2.654768 0.060295 0
M  V30 END ATOM
M  V30 BEGIN BOND
M  V30 1 1 1 2
M  V30 2 1 2 3
M  V30 3 1 3 4
M  V30 4 1 4 5
M  V30 5 1 3 6
M  V30 6 1 6 7
M  V30 7 1 7 8
M  V30 8 1 8 9
M  V30 9 2 9 10
M  V30 10 1 9 11
M  V30 11 2 11 12
M  V30 12 1 12 13
M  V30 13 1 12 14
M  V30 14 1 14 15
M  V30 15 1 15 16
M  V30 16 2 16 17
M  V30 17 1 17 18
M  V30 18 2 18 19
M  V30 19 1 18 20
M  V30 20 1 20 21
M  V30 21 2 21 22
M  V30 22 1 22 23
M  V30 23 2 23 24
M  V30 24 1 24 25
M  V30 25 1 25 26
M  V30 26 1 26 27
M  V30 27 3 27 28
M  V30 28 1 24 29
M  V30 29 2 29 30
M  V30 30 2 15 31
M  V30 31 1 31 32
M  V30 32 1 31 11
M  V30 33 1 30 17
M  V30 34 1 30 21
M  V30 35 1 1 33
M  V30 36 1 1 34
M  V30 37 1 1 35
M  V30 38 1 2 36
M  V30 39 1 2 37
M  V30 40 1 4 38
M  V30 41 1 4 39
M  V30 42 1 5 40
M  V30 43 1 5 41
M  V30 44 1 5 42
M  V30 45 1 6 43
M  V30 46 1 6 44
M  V30 47 1 7 45
M  V30 48 1 7 46
M  V30 49 1 8 47
M  V30 50 1 13 48
M  V30 51 1 13 49
M  V30 52 1 13 50
M  V30 53 1 14 51
M  V30 54 1 16 52
M  V30 55 1 20 53
M  V30 56 1 22 54
M  V30 57 1 23 55
M  V30 58 1 25 56
M  V30 59 1 25 57
M  V30 60 1 26 58
M  V30 61 1 26 59
M  V30 62 1 29 60
M  V30 63 1 32 61
M  V30 64 1 32 62
M  V30 65 1 32 63
M  V30 END BOND
M  V30 END CTAB
M  END
>  <Dataset>  (347) 
ChEMBL_Kinases

>  <Ligand_Instance>  (347) 
nan

>  <PDB_ID>  (347) 
nan

>  <Standardized_SMILES>  (347) 
CCN(CC)CCNC(=O)c1c(C)[nH]c(/C=C2\C(=O)Nc3ccc(CCC#N)cc32)c1C

>  <Name>  (347) 
nan

>  <Pocket>  (347) 
nan

>  <ATP_Site>  (347) 
nan

>  <Peripheral>  (347) 
nan

>  <Num_H_Atoms_ProtBoundConf>  (347) 
nan

>  <Num_Resolved_Atoms>  (347) 
nan

>  <Num_Not_Resolved_Atoms>  (347) 
nan

$$$$
CHEMBL4788502
     RDKit          3D

  0  0  0  0  0  0  0  0  0  0999 V3000
M  V30 BEGIN CTAB
M  V30 COUNTS 54 58 0 0 0
M  V30 BEGIN ATOM
M  V30 1 O 2.856038 -2.931846 -0.035239 0
M  V30 2 C 2.111728 -4.086650 0.135122 0
M  V30 3 C 1.573212 -4.063064 1.541458 0
M  V30 4 C 0.995614 -2.931128 2.042529 0
M  V30 5 C 0.441370 -2.676202 3.251452 0
M  V30 6 N -0.217039 -1.518906 3.736024 0
M  V30 7 C -1.396554 -0.848311 3.236039 0
M  V30 8 C -1.557731 -0.463072 1.903036 0
M  V30 9 C -2.670237 0.188654 1.338986 0
M  V30 10 O -2.314744 0.336842 -0.023444 0
M  V30 11 C -1.073967 0.964670 -0.296670 0
M  V30 12 C -0.141363 1.570070 0.548364 0
M  V30 13 N 0.866633 2.001075 -0.217505 0
M  V30 14 C 2.065302 2.685585 0.266564 0
M  V30 15 C 2.107310 3.072578 1.728293 0
M  V30 16 C 1.979029 4.104143 0.644101 0
M  V30 17 N 0.632096 1.711542 -1.466237 0
M  V30 18 C -0.563569 1.067757 -1.563660 0
M  V30 19 C -1.079737 0.600573 -2.843128 0
M  V30 20 C -2.315877 -0.200132 -2.913834 0
M  V30 21 C -1.596580 -1.169038 -3.847334 0
M  V30 22 F -1.724863 -2.502516 -3.481007 0
M  V30 23 F -1.883396 -1.037125 -5.178822 0
M  V30 24 C -0.261090 -0.573044 -3.429721 0
M  V30 25 C -3.689220 0.465680 2.203081 0
M  V30 26 C -3.543194 0.089890 3.520191 0
M  V30 27 N -2.464418 -0.534611 4.035299 0
M  V30 28 C 0.487514 -3.779673 4.114889 0
M  V30 29 C 1.067553 -4.973238 3.666569 0
M  V30 30 N 1.595990 -5.113455 2.416930 0
M  V30 31 C 0.904370 -3.986840 -0.782809 0
M  V30 32 F 0.125607 -2.896248 -0.497280 0
M  V30 33 F 1.263611 -4.006835 -2.120875 0
M  V30 34 F 0.068475 -5.097766 -0.583903 0
M  V30 35 H 3.034993 -2.463623 0.841758 0
M  V30 36 H 2.675979 -5.015559 -0.044451 0
M  V30 37 H 1.027853 -2.107273 1.349673 0
M  V30 38 H 0.150034 -1.012985 4.563208 0
M  V30 39 H -0.667159 -0.727416 1.347458 0
M  V30 40 H -0.275995 1.642846 1.599915 0
M  V30 41 H 3.051559 2.286365 -0.078595 0
M  V30 42 H 1.217086 2.916793 2.365390 0
M  V30 43 H 3.061942 2.989057 2.298871 0
M  V30 44 H 2.865678 4.765274 0.531575 0
M  V30 45 H 0.998876 4.601469 0.506935 0
M  V30 46 H -1.068928 1.402547 -3.633240 0
M  V30 47 H -3.166095 0.303974 -3.437397 0
M  V30 48 H -2.660192 -0.766098 -2.048512 0
M  V30 49 H 0.287539 -1.152105 -2.672207 0
M  V30 50 H 0.328164 -0.341844 -4.312944 0
M  V30 51 H -4.447395 0.964637 1.631091 0
M  V30 52 H -4.400392 0.347710 4.123505 0
M  V30 53 H 0.106508 -3.773293 5.128614 0
M  V30 54 H 1.123026 -5.853289 4.300593 0
M  V30 END ATOM
M  V30 BEGIN BOND
M  V30 1 1 1 2
M  V30 2 1 2 3
M  V30 3 2 3 4
M  V30 4 1 4 5
M  V30 5 1 5 6
M  V30 6 1 6 7
M  V30 7 2 7 8
M  V30 8 1 8 9
M  V30 9 1 9 10
M  V30 10 1 10 11
M  V30 11 2 11 12
M  V30 12 1 12 13
M  V30 13 1 13 14
M  V30 14 1 14 15
M  V30 15 1 15 16
M  V30 16 1 13 17
M  V30 17 2 17 18
M  V30 18 1 18 19
M  V30 19 1 19 20
M  V30 20 1 20 21
M  V30 21 1 21 22
M  V30 22 1 21 23
M  V30 23 1 21 24
M  V30 24 2 9 25
M  V30 25 1 25 26
M  V30 26 2 26 27
M  V30 27 2 5 28
M  V30 28 1 28 29
M  V30 29 2 29 30
M  V30 30 1 2 31
M  V30 31 1 31 32
M  V30 32 1 31 33
M  V30 33 1 31 34
M  V30 34 1 30 3
M  V30 35 1 27 7
M  V30 36 1 18 11
M  V30 37 1 24 19
M  V30 38 1 16 14
M  V30 39 1 1 35
M  V30 40 1 2 36
M  V30 41 1 4 37
M  V30 42 1 6 38
M  V30 43 1 8 39
M  V30 44 1 12 40
M  V30 45 1 14 41
M  V30 46 1 15 42
M  V30 47 1 15 43
M  V30 48 1 16 44
M  V30 49 1 16 45
M  V30 50 1 19 46
M  V30 51 1 20 47
M  V30 52 1 20 48
M  V30 53 1 24 49
M  V30 54 1 24 50
M  V30 55 1 25 51
M  V30 56 1 26 52
M  V30 57 1 28 53
M  V30 58 1 29 54
M  V30 END BOND
M  V30 END CTAB
M  END
>  <Dataset>  (348) 
ChEMBL_Kinases

>  <Ligand_Instance>  (348) 
nan

>  <PDB_ID>  (348) 
nan

>  <Standardized_SMILES>  (348) 
OC(c1cc(Nc2cc(Oc3cn(C4CC4)nc3C3CC(F)(F)C3)ccn2)ccn1)C(F)(F)F

>  <Name>  (348) 
nan

>  <Pocket>  (348) 
nan

>  <ATP_Site>  (348) 
nan

>  <Peripheral>  (348) 
nan

>  <Num_H_Atoms_ProtBoundConf>  (348) 
nan

>  <Num_Resolved_Atoms>  (348) 
nan

>  <Num_Not_Resolved_Atoms>  (348) 
nan

$$$$
CHEMBL4788508
     RDKit          3D

  0  0  0  0  0  0  0  0  0  0999 V3000
M  V30 BEGIN CTAB
M  V30 COUNTS 55 59 0 0 0
M  V30 BEGIN ATOM
M  V30 1 C 1.317856 -0.043808 5.460172 0
M  V30 2 C 2.387046 -0.822266 4.791151 0
M  V30 3 C 2.957475 -1.895386 5.434043 0
M  V30 4 C 3.940338 -2.598353 4.798858 0
M  V30 5 C 4.361096 -2.259627 3.553615 0
M  V30 6 C 3.831311 -1.183729 2.835571 0
M  V30 7 N 4.280270 -0.839384 1.551440 0
M  V30 8 C 3.834437 0.216670 0.669670 0
M  V30 9 C 2.421651 0.044722 0.224768 0
M  V30 10 N 1.177195 0.395034 0.587986 0
M  V30 11 C 0.258855 -0.092103 -0.261868 0
M  V30 12 C -1.154344 0.186859 -0.027584 0
M  V30 13 C -2.146599 -0.735269 0.232896 0
M  V30 14 C -3.448725 -0.345714 0.437858 0
M  V30 15 C -3.732554 0.996012 0.374994 0
M  V30 16 C -2.786206 1.967718 0.118718 0
M  V30 17 C -3.402767 3.202023 0.125761 0
M  V30 18 N -4.684280 2.929196 0.383468 0
M  V30 19 N -4.895379 1.635297 0.532910 0
M  V30 20 C -6.191251 1.070185 0.818512 0
M  V30 21 C -1.473528 1.539247 -0.084885 0
M  V30 22 C 0.941943 -0.796900 -1.229542 0
M  V30 23 C 0.247163 -1.465438 -2.322545 0
M  V30 24 C 0.597655 -0.989271 -3.560866 0
M  V30 25 C -0.007987 -1.557874 -4.687495 0
M  V30 26 C -0.929297 -2.570432 -4.504927 0
M  V30 27 C -1.255692 -3.020914 -3.261556 0
M  V30 28 C -2.215544 -4.089579 -2.893596 0
M  V30 29 N -0.656910 -2.455360 -2.190970 0
M  V30 30 N 2.242611 -0.695796 -0.908670 0
M  V30 31 C 2.845918 -0.516068 3.529618 0
M  V30 32 H 0.884525 -0.643181 6.290448 0
M  V30 33 H 0.448429 0.111955 4.760889 0
M  V30 34 H 1.658590 0.930203 5.849206 0
M  V30 35 H 2.678116 -2.226340 6.421929 0
M  V30 36 H 4.423631 -3.456575 5.266824 0
M  V30 37 H 5.154732 -2.839400 3.059188 0
M  V30 38 H 5.066986 -1.447777 1.169625 0
M  V30 39 H 3.888532 1.160413 1.298200 0
M  V30 40 H 4.519199 0.361932 -0.162923 0
M  V30 41 H -1.827735 -1.768654 0.262889 0
M  V30 42 H -4.176482 -1.121844 0.637364 0
M  V30 43 H -2.934119 4.161611 -0.042046 0
M  V30 44 H -6.808374 1.083281 -0.120170 0
M  V30 45 H -6.740692 1.616125 1.629978 0
M  V30 46 H -6.081288 0.020471 1.129621 0
M  V30 47 H -0.748119 2.325969 -0.284828 0
M  V30 48 H 1.298170 -0.210892 -3.808675 0
M  V30 49 H 0.146462 -1.309490 -5.728022 0
M  V30 50 H -1.463398 -3.086287 -5.311757 0
M  V30 51 H -1.712975 -4.777048 -2.200962 0
M  V30 52 H -2.654388 -4.613161 -3.762370 0
M  V30 53 H -3.016153 -3.568262 -2.293862 0
M  V30 54 H 2.915929 -1.190745 -1.562982 0
M  V30 55 H 2.363747 0.337068 3.082180 0
M  V30 END ATOM
M  V30 BEGIN BOND
M  V30 1 1 1 2
M  V30 2 2 2 3
M  V30 3 1 3 4
M  V30 4 2 4 5
M  V30 5 1 5 6
M  V30 6 1 6 7
M  V30 7 1 7 8
M  V30 8 1 8 9
M  V30 9 2 9 10
M  V30 10 1 10 11
M  V30 11 1 11 12
M  V30 12 2 12 13
M  V30 13 1 13 14
M  V30 14 2 14 15
M  V30 15 1 15 16
M  V30 16 1 16 17
M  V30 17 2 17 18
M  V30 18 1 18 19
M  V30 19 1 19 20
M  V30 20 2 16 21
M  V30 21 2 11 22
M  V30 22 1 22 23
M  V30 23 2 23 24
M  V30 24 1 24 25
M  V30 25 2 25 26
M  V30 26 1 26 27
M  V30 27 1 27 28
M  V30 28 2 27 29
M  V30 29 1 22 30
M  V30 30 2 6 31
M  V30 31 1 31 2
M  V30 32 1 30 9
M  V30 33 1 21 12
M  V30 34 1 29 23
M  V30 35 1 19 15
M  V30 36 1 1 32
M  V30 37 1 1 33
M  V30 38 1 1 34
M  V30 39 1 3 35
M  V30 40 1 4 36
M  V30 41 1 5 37
M  V30 42 1 7 38
M  V30 43 1 8 39
M  V30 44 1 8 40
M  V30 45 1 13 41
M  V30 46 1 14 42
M  V30 47 1 17 43
M  V30 48 1 20 44
M  V30 49 1 20 45
M  V30 50 1 20 46
M  V30 51 1 21 47
M  V30 52 1 24 48
M  V30 53 1 25 49
M  V30 54 1 26 50
M  V30 55 1 28 51
M  V30 56 1 28 52
M  V30 57 1 28 53
M  V30 58 1 30 54
M  V30 59 1 31 55
M  V30 END BOND
M  V30 END CTAB
M  END
>  <Dataset>  (349) 
ChEMBL_Kinases

>  <Ligand_Instance>  (349) 
nan

>  <PDB_ID>  (349) 
nan

>  <Standardized_SMILES>  (349) 
Cc1cccc(NCc2nc(-c3ccc4c(cnn4C)c3)c(-c3cccc(C)n3)[nH]2)c1

>  <Name>  (349) 
nan

>  <Pocket>  (349) 
nan

>  <ATP_Site>  (349) 
nan

>  <Peripheral>  (349) 
nan

>  <Num_H_Atoms_ProtBoundConf>  (349) 
nan

>  <Num_Resolved_Atoms>  (349) 
nan

>  <Num_Not_Resolved_Atoms>  (349) 
nan

$$$$
CHEMBL4788568
     RDKit          3D

  0  0  0  0  0  0  0  0  0  0999 V3000
M  V30 BEGIN CTAB
M  V30 COUNTS 60 63 0 0 0
M  V30 BEGIN ATOM
M  V30 1 C 1.818657 -4.259413 3.543277 0
M  V30 2 C 2.673158 -3.071230 3.536218 0
M  V30 3 O 2.732831 -2.393659 4.592425 0
M  V30 4 N 3.435076 -2.647406 2.400051 0
M  V30 5 C 4.249116 -1.475950 2.461850 0
M  V30 6 C 4.477147 -0.761643 1.177339 0
M  V30 7 N 3.917312 -1.406191 0.008612 0
M  V30 8 C 2.493064 -1.140336 -0.070725 0 CFG=1
M  V30 9 C 2.216134 0.347763 -0.160564 0
M  V30 10 C 0.844340 0.546234 -0.751105 0
M  V30 11 C -0.072460 -0.566637 -0.323489 0 CFG=1
M  V30 12 N -1.461397 -0.191547 -0.478639 0
M  V30 13 C -1.888639 0.862914 0.369477 0
M  V30 14 N -1.012993 1.388580 1.240858 0
M  V30 15 C -1.405074 2.394955 2.077384 0
M  V30 16 N -2.654070 2.890463 2.064641 0
M  V30 17 C -3.563563 2.394285 1.208175 0
M  V30 18 N -4.850918 2.713186 1.006660 0
M  V30 19 C -5.257909 1.889026 0.027532 0
M  V30 20 C -4.236655 1.035274 -0.407534 0
M  V30 21 C -4.430256 0.059961 -1.487010 0
M  V30 22 C -4.648188 -1.303528 -0.867050 0
M  V30 23 C -5.743201 0.351950 -2.243391 0
M  V30 24 C -3.160798 1.382172 0.369638 0
M  V30 25 C 0.336577 -1.794820 -1.090018 0
M  V30 26 C 1.853303 -1.776259 -1.284094 0
M  V30 27 C 4.175813 -2.807539 0.099748 0
M  V30 28 C 3.348011 -3.448247 1.193505 0
M  V30 29 H 0.740955 -4.018809 3.777793 0
M  V30 30 H 2.149214 -4.946179 4.355233 0
M  V30 31 H 1.828080 -4.821800 2.588242 0
M  V30 32 H 5.216638 -1.800110 2.946859 0
M  V30 33 H 3.798262 -0.808562 3.254001 0
M  V30 34 H 4.212750 0.304453 1.252861 0
M  V30 35 H 5.592155 -0.756050 0.989130 0
M  V30 36 H 2.021567 -1.603002 0.803058 0
M  V30 37 H 2.980346 0.778659 -0.837125 0
M  V30 38 H 2.310449 0.873507 0.811509 0
M  V30 39 H 0.921429 0.462399 -1.862886 0
M  V30 40 H 0.511107 1.557614 -0.517979 0
M  V30 41 H 0.021524 -0.748633 0.797260 0
M  V30 42 H -1.838505 -0.803178 -1.194140 0
M  V30 43 H -0.674789 2.794725 2.766532 0
M  V30 44 H -5.436046 3.428098 1.479313 0
M  V30 45 H -6.281149 1.909097 -0.363480 0
M  V30 46 H -3.650896 -0.015576 -2.234444 0
M  V30 47 H -5.698814 -1.308266 -0.458679 0
M  V30 48 H -3.992738 -1.433647 0.033792 0
M  V30 49 H -4.504240 -2.136902 -1.578241 0
M  V30 50 H -5.858537 1.432553 -2.363166 0
M  V30 51 H -5.689348 -0.228523 -3.184868 0
M  V30 52 H -6.589554 -0.008468 -1.616569 0
M  V30 53 H -0.026546 -2.734535 -0.672688 0
M  V30 54 H -0.086420 -1.666067 -2.126532 0
M  V30 55 H 2.233922 -2.779256 -1.526009 0
M  V30 56 H 2.110258 -1.154909 -2.192040 0
M  V30 57 H 4.050001 -3.337179 -0.839858 0
M  V30 58 H 5.248012 -2.906297 0.443747 0
M  V30 59 H 3.838432 -4.412636 1.436532 0
M  V30 60 H 2.314736 -3.669844 0.883941 0
M  V30 END ATOM
M  V30 BEGIN BOND
M  V30 1 1 1 2
M  V30 2 2 2 3
M  V30 3 1 2 4
M  V30 4 1 4 5
M  V30 5 1 5 6
M  V30 6 1 6 7
M  V30 7 1 7 8
M  V30 8 1 8 9
M  V30 9 1 9 10
M  V30 10 1 10 11
M  V30 11 1 11 12
M  V30 12 1 12 13
M  V30 13 2 13 14
M  V30 14 1 14 15
M  V30 15 2 15 16
M  V30 16 1 16 17
M  V30 17 1 17 18
M  V30 18 1 18 19
M  V30 19 2 19 20
M  V30 20 1 20 21
M  V30 21 1 21 22
M  V30 22 1 21 23
M  V30 23 1 20 24
M  V30 24 1 11 25
M  V30 25 1 25 26
M  V30 26 1 7 27
M  V30 27 1 27 28
M  V30 28 1 28 4
M  V30 29 1 26 8
M  V30 30 1 24 13
M  V30 31 2 24 17
M  V30 32 1 1 29
M  V30 33 1 1 30
M  V30 34 1 1 31
M  V30 35 1 5 32
M  V30 36 1 5 33
M  V30 37 1 6 34
M  V30 38 1 6 35
M  V30 39 1 8 36 CFG=1
M  V30 40 1 9 37
M  V30 41 1 9 38
M  V30 42 1 10 39
M  V30 43 1 10 40
M  V30 44 1 11 41 CFG=1
M  V30 45 1 12 42
M  V30 46 1 15 43
M  V30 47 1 18 44
M  V30 48 1 19 45
M  V30 49 1 21 46
M  V30 50 1 22 47
M  V30 51 1 22 48
M  V30 52 1 22 49
M  V30 53 1 23 50
M  V30 54 1 23 51
M  V30 55 1 23 52
M  V30 56 1 25 53
M  V30 57 1 25 54
M  V30 58 1 26 55
M  V30 59 1 26 56
M  V30 60 1 27 57
M  V30 61 1 27 58
M  V30 62 1 28 59
M  V30 63 1 28 60
M  V30 END BOND
M  V30 END CTAB
M  END
>  <Dataset>  (350) 
ChEMBL_Kinases

>  <Ligand_Instance>  (350) 
nan

>  <PDB_ID>  (350) 
nan

>  <Standardized_SMILES>  (350) 
CC(=O)N1CCN([C@H]2CC[C@@H](Nc3ncnc4[nH]cc(C(C)C)c34)CC2)CC1

>  <Name>  (350) 
nan

>  <Pocket>  (350) 
nan

>  <ATP_Site>  (350) 
nan

>  <Peripheral>  (350) 
nan

>  <Num_H_Atoms_ProtBoundConf>  (350) 
nan

>  <Num_Resolved_Atoms>  (350) 
nan

>  <Num_Not_Resolved_Atoms>  (350) 
nan

$$$$
CHEMBL4788673
     RDKit          3D

  0  0  0  0  0  0  0  0  0  0999 V3000
M  V30 BEGIN CTAB
M  V30 COUNTS 63 68 0 0 0
M  V30 BEGIN ATOM
M  V30 1 C 2.446074 0.294409 3.396365 0
M  V30 2 C 3.235519 1.053811 2.344586 0
M  V30 3 C 4.672297 1.118282 2.762518 0
M  V30 4 O 3.182660 0.396087 1.107173 0
M  V30 5 C 2.585119 2.362023 2.166244 0
M  V30 6 C 1.634482 2.622892 1.197280 0
M  V30 7 C 0.988241 3.826009 0.977421 0
M  V30 8 N 0.027645 4.034425 -0.018794 0
M  V30 9 C -0.937914 3.238180 -0.669172 0
M  V30 10 C -1.299563 1.970500 -0.284172 0
M  V30 11 C -2.208413 1.194921 -0.958200 0
M  V30 12 O -2.608858 -0.096765 -0.604824 0
M  V30 13 C -1.711510 -1.144492 -0.915208 0
M  V30 14 C -0.466806 -0.856598 -1.489800 0
M  V30 15 N 0.221138 -2.017686 -1.697119 0
M  V30 16 C 1.556593 -2.168894 -2.259746 0
M  V30 17 C 2.182065 -3.509296 -2.177445 0
M  V30 18 C 1.677466 -2.955532 -3.487936 0
M  V30 19 N -0.566085 -2.992524 -1.268067 0
M  V30 20 C -1.737077 -2.511985 -0.790429 0
M  V30 21 C -2.897144 -3.197316 -0.234963 0
M  V30 22 C -4.162858 -2.968992 -0.728182 0
M  V30 23 C -5.335589 -3.584243 -0.264203 0
M  V30 24 C -5.185306 -4.486820 0.768997 0
M  V30 25 C -3.912523 -4.737379 1.287761 0
M  V30 26 C -2.773314 -4.110854 0.805327 0
M  V30 27 O -1.502673 -4.366276 1.328871 0
M  V30 28 C -1.497732 -4.995117 2.613988 0
M  V30 29 C -2.420465 -6.209913 2.464028 0
M  V30 30 O -3.733823 -5.652887 2.340416 0
M  V30 31 C -2.818170 1.696284 -2.106005 0
M  V30 32 C -2.425507 2.965394 -2.448847 0
M  V30 33 N -1.536065 3.712782 -1.779800 0
M  V30 34 C 1.379243 4.810874 1.843741 0
M  V30 35 C 2.320060 4.604008 2.823966 0
M  V30 36 N 2.910168 3.407164 2.983241 0
M  V30 37 H 2.421734 -0.791810 3.231104 0
M  V30 38 H 1.395704 0.668747 3.474894 0
M  V30 39 H 2.936212 0.557825 4.378378 0
M  V30 40 H 5.078920 0.076370 2.706725 0
M  V30 41 H 4.729939 1.475525 3.806396 0
M  V30 42 H 5.201846 1.786961 2.042071 0
M  V30 43 H 2.502788 -0.325970 1.183423 0
M  V30 44 H 1.432884 1.755884 0.582364 0
M  V30 45 H 0.064359 5.049754 -0.346828 0
M  V30 46 H -0.882743 1.515261 0.596677 0
M  V30 47 H 0.018337 0.077410 -1.782430 0
M  V30 48 H 2.267610 -1.305523 -2.164110 0
M  V30 49 H 3.290307 -3.569272 -2.106783 0
M  V30 50 H 1.671809 -4.373300 -1.702042 0
M  V30 51 H 0.829301 -3.518108 -3.920240 0
M  V30 52 H 2.440694 -2.652249 -4.256078 0
M  V30 53 H -4.246909 -2.260377 -1.533829 0
M  V30 54 H -6.270517 -3.328083 -0.728246 0
M  V30 55 H -6.057160 -4.992066 1.166430 0
M  V30 56 H -1.952848 -4.356243 3.400507 0
M  V30 57 H -0.474866 -5.298212 2.888543 0
M  V30 58 H -2.181012 -6.663588 1.476353 0
M  V30 59 H -2.337976 -6.908972 3.296696 0
M  V30 60 H -3.537298 1.104779 -2.660815 0
M  V30 61 H -2.878534 3.412069 -3.349817 0
M  V30 62 H 0.960768 5.804787 1.791737 0
M  V30 63 H 2.639808 5.381358 3.520201 0
M  V30 END ATOM
M  V30 BEGIN BOND
M  V30 1 1 1 2
M  V30 2 1 2 3
M  V30 3 1 2 4
M  V30 4 1 2 5
M  V30 5 2 5 6
M  V30 6 1 6 7
M  V30 7 1 7 8
M  V30 8 1 8 9
M  V30 9 2 9 10
M  V30 10 1 10 11
M  V30 11 1 11 12
M  V30 12 1 12 13
M  V30 13 2 13 14
M  V30 14 1 14 15
M  V30 15 1 15 16
M  V30 16 1 16 17
M  V30 17 1 17 18
M  V30 18 1 15 19
M  V30 19 2 19 20
M  V30 20 1 20 21
M  V30 21 2 21 22
M  V30 22 1 22 23
M  V30 23 2 23 24
M  V30 24 1 24 25
M  V30 25 2 25 26
M  V30 26 1 26 27
M  V30 27 1 27 28
M  V30 28 1 28 29
M  V30 29 1 29 30
M  V30 30 2 11 31
M  V30 31 1 31 32
M  V30 32 2 32 33
M  V30 33 2 7 34
M  V30 34 1 34 35
M  V30 35 2 35 36
M  V30 36 1 36 5
M  V30 37 1 33 9
M  V30 38 1 20 13
M  V30 39 1 26 21
M  V30 40 1 18 16
M  V30 41 1 30 25
M  V30 42 1 1 37
M  V30 43 1 1 38
M  V30 44 1 1 39
M  V30 45 1 3 40
M  V30 46 1 3 41
M  V30 47 1 3 42
M  V30 48 1 4 43
M  V30 49 1 6 44
M  V30 50 1 8 45
M  V30 51 1 10 46
M  V30 52 1 14 47
M  V30 53 1 16 48
M  V30 54 1 17 49
M  V30 55 1 17 50
M  V30 56 1 18 51
M  V30 57 1 18 52
M  V30 58 1 22 53
M  V30 59 1 23 54
M  V30 60 1 24 55
M  V30 61 1 28 56
M  V30 62 1 28 57
M  V30 63 1 29 58
M  V30 64 1 29 59
M  V30 65 1 31 60
M  V30 66 1 32 61
M  V30 67 1 34 62
M  V30 68 1 35 63
M  V30 END BOND
M  V30 END CTAB
M  END
>  <Dataset>  (351) 
ChEMBL_Kinases

>  <Ligand_Instance>  (351) 
nan

>  <PDB_ID>  (351) 
nan

>  <Standardized_SMILES>  (351) 
CC(C)(O)c1cc(Nc2cc(Oc3cn(C4CC4)nc3-c3cccc4c3OCCO4)ccn2)ccn1

>  <Name>  (351) 
nan

>  <Pocket>  (351) 
nan

>  <ATP_Site>  (351) 
nan

>  <Peripheral>  (351) 
nan

>  <Num_H_Atoms_ProtBoundConf>  (351) 
nan

>  <Num_Resolved_Atoms>  (351) 
nan

>  <Num_Not_Resolved_Atoms>  (351) 
nan

$$$$
CHEMBL4788756
     RDKit          3D

  0  0  0  0  0  0  0  0  0  0999 V3000
M  V30 BEGIN CTAB
M  V30 COUNTS 58 61 0 0 0
M  V30 BEGIN ATOM
M  V30 1 C 3.918140 -5.631612 0.189173 0
M  V30 2 C 2.918069 -4.555491 -0.020187 0
M  V30 3 N 2.992678 -3.348124 0.568426 0
M  V30 4 C 1.987280 -2.554660 0.230471 0
M  V30 5 C 1.564465 -1.191503 0.513082 0
M  V30 6 C 2.263014 -0.074468 0.451138 0
M  V30 7 C 3.659542 -0.014325 0.059226 0
M  V30 8 O 4.392540 -0.974767 -0.278556 0
M  V30 9 N 4.045214 1.345414 0.128783 0
M  V30 10 C 2.911452 2.109625 0.553618 0
M  V30 11 C 2.701638 3.473589 0.791928 0
M  V30 12 C 1.449142 3.942035 1.210524 0
M  V30 13 C 0.380939 3.076327 1.402155 0
M  V30 14 C -0.879524 3.677072 1.828882 0
M  V30 15 O -0.943626 4.917510 1.861371 0
M  V30 16 N -1.991978 2.870846 2.192705 0
M  V30 17 C -3.323809 3.172870 2.632002 0 CFG=2
M  V30 18 C -3.381242 2.680947 4.092485 0
M  V30 19 C -4.277963 2.305989 1.897520 0
M  V30 20 C -5.448672 2.672590 1.309034 0
M  V30 21 C -6.172389 1.670049 0.675663 0
M  V30 22 C -5.742975 0.361395 0.634342 0
M  V30 23 C -4.531718 0.039908 1.256134 0
M  V30 24 N -3.847287 1.022867 1.862438 0
M  V30 25 C 0.593865 1.740451 1.166907 0
M  V30 26 C 1.826787 1.284618 0.755276 0
M  V30 27 C 1.220529 -3.318431 -0.636739 0
M  V30 28 C -0.040644 -2.980757 -1.352753 0
M  V30 29 C 1.780460 -4.583128 -0.814756 0
M  V30 30 N 1.391959 -5.706543 -1.589148 0
M  V30 31 C 1.823088 -5.976661 -2.934760 0
M  V30 32 O 2.607974 -5.136941 -3.439669 0
M  V30 33 C 1.367881 -7.176929 -3.684789 0
M  V30 34 Cl -0.076917 -6.798054 -4.660890 0
M  V30 35 H 4.929708 -5.150302 0.341921 0
M  V30 36 H 3.930262 -6.305344 -0.666883 0
M  V30 37 H 3.672214 -6.233428 1.111288 0
M  V30 38 H 3.739098 -3.052266 1.230829 0
M  V30 39 H 0.517703 -1.048428 0.827580 0
M  V30 40 H 4.987769 1.700679 -0.092884 0
M  V30 41 H 3.522883 4.160639 0.647118 0
M  V30 42 H 1.386884 5.031382 1.370247 0
M  V30 43 H -1.848597 1.839679 2.144263 0
M  V30 44 H -3.579847 4.251876 2.598658 0
M  V30 45 H -2.892005 3.424080 4.767002 0
M  V30 46 H -2.786814 1.746844 4.139221 0
M  V30 47 H -4.409128 2.443062 4.405935 0
M  V30 48 H -5.719408 3.704037 1.379902 0
M  V30 49 H -7.096948 1.944855 0.207049 0
M  V30 50 H -6.293739 -0.426493 0.145541 0
M  V30 51 H -4.164103 -0.991471 1.242022 0
M  V30 52 H -0.212303 1.041825 1.305565 0
M  V30 53 H -0.681062 -3.867036 -1.527160 0
M  V30 54 H 0.198138 -2.430361 -2.297532 0
M  V30 55 H -0.649487 -2.270386 -0.761215 0
M  V30 56 H 0.741252 -6.379437 -1.125966 0
M  V30 57 H 1.127953 -8.034646 -2.990334 0
M  V30 58 H 2.186269 -7.478921 -4.365939 0
M  V30 END ATOM
M  V30 BEGIN BOND
M  V30 1 1 1 2
M  V30 2 1 2 3
M  V30 3 1 3 4
M  V30 4 1 4 5
M  V30 5 2 5 6
M  V30 6 1 6 7
M  V30 7 2 7 8
M  V30 8 1 7 9
M  V30 9 1 9 10
M  V30 10 2 10 11
M  V30 11 1 11 12
M  V30 12 2 12 13
M  V30 13 1 13 14
M  V30 14 2 14 15
M  V30 15 1 14 16
M  V30 16 1 16 17
M  V30 17 1 17 18
M  V30 18 1 17 19
M  V30 19 2 19 20
M  V30 20 1 20 21
M  V30 21 2 21 22
M  V30 22 1 22 23
M  V30 23 2 23 24
M  V30 24 1 13 25
M  V30 25 2 25 26
M  V30 26 2 4 27
M  V30 27 1 27 28
M  V30 28 1 27 29
M  V30 29 1 29 30
M  V30 30 1 30 31
M  V30 31 2 31 32
M  V30 32 1 31 33
M  V30 33 1 33 34
M  V30 34 2 29 2
M  V30 35 1 26 6
M  V30 36 1 26 10
M  V30 37 1 24 19
M  V30 38 1 1 35
M  V30 39 1 1 36
M  V30 40 1 1 37
M  V30 41 1 3 38
M  V30 42 1 5 39
M  V30 43 1 9 40
M  V30 44 1 11 41
M  V30 45 1 12 42
M  V30 46 1 16 43
M  V30 47 1 17 44 CFG=1
M  V30 48 1 18 45
M  V30 49 1 18 46
M  V30 50 1 18 47
M  V30 51 1 20 48
M  V30 52 1 21 49
M  V30 53 1 22 50
M  V30 54 1 23 51
M  V30 55 1 25 52
M  V30 56 1 28 53
M  V30 57 1 28 54
M  V30 58 1 28 55
M  V30 59 1 30 56
M  V30 60 1 33 57
M  V30 61 1 33 58
M  V30 END BOND
M  V30 END CTAB
M  END
>  <Dataset>  (352) 
ChEMBL_Kinases

>  <Ligand_Instance>  (352) 
nan

>  <PDB_ID>  (352) 
nan

>  <Standardized_SMILES>  (352) 
Cc1[nH]c(/C=C2\C(=O)Nc3ccc(C(=O)N[C@H](C)c4ccccn4)cc32)c(C)c1NC(=O)CCl

>  <Name>  (352) 
nan

>  <Pocket>  (352) 
nan

>  <ATP_Site>  (352) 
nan

>  <Peripheral>  (352) 
nan

>  <Num_H_Atoms_ProtBoundConf>  (352) 
nan

>  <Num_Resolved_Atoms>  (352) 
nan

>  <Num_Not_Resolved_Atoms>  (352) 
nan

$$$$
CHEMBL492251
     RDKit          3D

  0  0  0  0  0  0  0  0  0  0999 V3000
M  V30 BEGIN CTAB
M  V30 COUNTS 46 49 0 0 0
M  V30 BEGIN ATOM
M  V30 1 C -1.245789 -5.624461 -0.674490 0
M  V30 2 O -1.951862 -4.418318 -0.566660 0
M  V30 3 C -1.304813 -3.199802 -0.710949 0
M  V30 4 C 0.049550 -3.173301 -0.963590 0
M  V30 5 C 0.744592 -1.991122 -1.116108 0
M  V30 6 C 0.075936 -0.788938 -1.015119 0
M  V30 7 C 0.586093 0.571901 -1.135688 0
M  V30 8 C -0.130237 1.493319 -1.909736 0
M  V30 9 N 0.237771 2.773558 -2.096719 0
M  V30 10 C 1.355031 3.268684 -1.533646 0
M  V30 11 C 2.097097 2.400253 -0.760484 0
M  V30 12 C 3.309861 2.886266 -0.132126 0
M  V30 13 N 4.296581 3.262416 0.368871 0
M  V30 14 C 1.731147 1.086466 -0.560961 0
M  V30 15 N 2.489288 0.181392 0.235387 0
M  V30 16 C 2.182717 0.080463 1.639848 0
M  V30 17 C 2.839786 -0.755603 2.518591 0
M  V30 18 C 2.502233 -0.809604 3.854026 0
M  V30 19 C 1.491335 -0.026724 4.362430 0
M  V30 20 N 0.982127 0.106439 5.583727 0
M  V30 21 C -0.019574 1.028172 5.547979 0
M  V30 22 C -0.156425 1.503106 4.253322 0
M  V30 23 C 0.804683 0.825555 3.523294 0
M  V30 24 C 1.163420 0.858649 2.193856 0
M  V30 25 C -1.289711 -0.825493 -0.760197 0
M  V30 26 C -1.982201 -2.009071 -0.608145 0
M  V30 27 O -3.332261 -2.098840 -0.355079 0
M  V30 28 C -4.101386 -0.916669 -0.235025 0
M  V30 29 H -1.911535 -6.471967 -0.405599 0
M  V30 30 H -0.844148 -5.765948 -1.719888 0
M  V30 31 H -0.368508 -5.651165 0.016706 0
M  V30 32 H 0.625627 -4.084443 -1.052987 0
M  V30 33 H 1.799228 -1.869878 -1.315353 0
M  V30 34 H -1.047447 1.146660 -2.391940 0
M  V30 35 H 1.701720 4.285829 -1.646817 0
M  V30 36 H 3.279222 -0.452389 -0.074619 0
M  V30 37 H 3.643619 -1.373847 2.098505 0
M  V30 38 H 3.082060 -1.499532 4.452653 0
M  V30 39 H 1.304388 -0.416826 6.433166 0
M  V30 40 H -0.638696 1.368196 6.374696 0
M  V30 41 H -0.865511 2.248246 3.885626 0
M  V30 42 H 0.591914 1.549641 1.563260 0
M  V30 43 H -1.924898 0.049587 -0.659088 0
M  V30 44 H -5.183265 -1.199625 -0.237393 0
M  V30 45 H -3.881866 -0.363230 0.710658 0
M  V30 46 H -3.898595 -0.234471 -1.090296 0
M  V30 END ATOM
M  V30 BEGIN BOND
M  V30 1 1 1 2
M  V30 2 1 2 3
M  V30 3 2 3 4
M  V30 4 1 4 5
M  V30 5 2 5 6
M  V30 6 1 6 7
M  V30 7 2 7 8
M  V30 8 1 8 9
M  V30 9 2 9 10
M  V30 10 1 10 11
M  V30 11 1 11 12
M  V30 12 3 12 13
M  V30 13 2 11 14
M  V30 14 1 14 15
M  V30 15 1 15 16
M  V30 16 2 16 17
M  V30 17 1 17 18
M  V30 18 2 18 19
M  V30 19 1 19 20
M  V30 20 1 20 21
M  V30 21 2 21 22
M  V30 22 1 22 23
M  V30 23 2 23 24
M  V30 24 1 6 25
M  V30 25 2 25 26
M  V30 26 1 26 27
M  V30 27 1 27 28
M  V30 28 1 26 3
M  V30 29 1 14 7
M  V30 30 1 24 16
M  V30 31 1 23 19
M  V30 32 1 1 29
M  V30 33 1 1 30
M  V30 34 1 1 31
M  V30 35 1 4 32
M  V30 36 1 5 33
M  V30 37 1 8 34
M  V30 38 1 10 35
M  V30 39 1 15 36
M  V30 40 1 17 37
M  V30 41 1 18 38
M  V30 42 1 20 39
M  V30 43 1 21 40
M  V30 44 1 22 41
M  V30 45 1 24 42
M  V30 46 1 25 43
M  V30 47 1 28 44
M  V30 48 1 28 45
M  V30 49 1 28 46
M  V30 END BOND
M  V30 END CTAB
M  END
>  <Dataset>  (353) 
ChEMBL_Kinases

>  <Ligand_Instance>  (353) 
nan

>  <PDB_ID>  (353) 
nan

>  <Standardized_SMILES>  (353) 
COc1ccc(-c2cncc(C#N)c2Nc2ccc3[nH]ccc3c2)cc1OC

>  <Name>  (353) 
nan

>  <Pocket>  (353) 
nan

>  <ATP_Site>  (353) 
nan

>  <Peripheral>  (353) 
nan

>  <Num_H_Atoms_ProtBoundConf>  (353) 
nan

>  <Num_Resolved_Atoms>  (353) 
nan

>  <Num_Not_Resolved_Atoms>  (353) 
nan

$$$$
CHEMBL4788859
     RDKit          3D

  0  0  0  0  0  0  0  0  0  0999 V3000
M  V30 BEGIN CTAB
M  V30 COUNTS 57 62 0 0 0
M  V30 BEGIN ATOM
M  V30 1 C 6.349573 -5.841410 0.583359 0
M  V30 2 C 5.002544 -5.624013 1.166333 0
M  V30 3 C 4.465578 -4.359422 1.303807 0
M  V30 4 C 3.202110 -4.073131 1.844092 0
M  V30 5 C 2.864965 -2.665860 1.890555 0
M  V30 6 C 3.755476 -1.787683 2.517642 0
M  V30 7 N 3.248157 -0.526911 2.406459 0
M  V30 8 C 2.083355 -0.596350 1.736095 0
M  V30 9 C 1.204995 0.398253 1.362266 0
M  V30 10 C 0.068522 0.060588 0.654036 0
M  V30 11 C -0.973606 0.966833 0.172048 0
M  V30 12 C -2.298436 0.586744 0.049380 0
M  V30 13 C -3.269145 1.457015 -0.409283 0
M  V30 14 C -2.880738 2.735092 -0.747827 0
M  V30 15 N -3.826166 3.681591 -1.224837 0
M  V30 16 C -5.254134 3.571619 -1.424997 0
M  V30 17 C -5.644265 3.525119 -2.879941 0
M  V30 18 N -4.905195 4.573900 -3.563187 0
M  V30 19 C -4.460986 5.589431 -2.627909 0
M  V30 20 C -3.475656 5.031172 -1.623773 0
M  V30 21 C -1.577300 3.168594 -0.646166 0
M  V30 22 C -0.624779 2.277409 -0.184140 0
M  V30 23 C -0.122623 -1.274850 0.357941 0
M  V30 24 C 0.783317 -2.233458 0.753317 0
M  V30 25 N 1.868625 -1.888732 1.433559 0
M  V30 26 C 2.522620 -5.200567 2.240237 0
M  V30 27 C 1.289600 -4.942268 2.790371 0
M  V30 28 C 0.485733 -5.953802 3.249022 0
M  V30 29 F -0.725002 -5.806516 3.797649 0
M  V30 30 C 0.971733 -7.254743 3.134884 0
M  V30 31 C 2.224895 -7.485903 2.574984 0
M  V30 32 C 3.033216 -6.469727 2.114330 0
M  V30 33 N 4.244509 -6.664002 1.588500 0
M  V30 34 H 6.861646 -6.720309 1.058397 0
M  V30 35 H 6.985455 -4.966959 0.766386 0
M  V30 36 H 6.239710 -6.085674 -0.496559 0
M  V30 37 H 5.121083 -3.556788 0.946760 0
M  V30 38 H 4.715111 -1.916793 3.043223 0
M  V30 39 H 1.323288 1.438803 1.575514 0
M  V30 40 H -2.576500 -0.434099 0.325560 0
M  V30 41 H -4.282914 1.116254 -0.487266 0
M  V30 42 H -5.821062 4.353732 -0.863515 0
M  V30 43 H -5.577046 2.609841 -0.976633 0
M  V30 44 H -6.714172 3.688694 -3.025581 0
M  V30 45 H -5.268210 2.559835 -3.279009 0
M  V30 46 H -4.110217 4.189411 -4.130905 0
M  V30 47 H -5.350837 6.043955 -2.184045 0
M  V30 48 H -3.928516 6.360231 -3.220800 0
M  V30 49 H -3.416895 5.717312 -0.775817 0
M  V30 50 H -2.510253 4.943248 -2.203965 0
M  V30 51 H -1.182085 4.143180 -0.885881 0
M  V30 52 H 0.417341 2.544618 -0.077988 0
M  V30 53 H -0.990221 -1.652673 -0.199609 0
M  V30 54 H 0.625956 -3.296786 0.512299 0
M  V30 55 H 0.883768 -3.954934 2.914965 0
M  V30 56 H 0.376259 -8.099138 3.482167 0
M  V30 57 H 2.609831 -8.512721 2.484590 0
M  V30 END ATOM
M  V30 BEGIN BOND
M  V30 1 1 1 2
M  V30 2 2 2 3
M  V30 3 1 3 4
M  V30 4 1 4 5
M  V30 5 2 5 6
M  V30 6 1 6 7
M  V30 7 2 7 8
M  V30 8 1 8 9
M  V30 9 2 9 10
M  V30 10 1 10 11
M  V30 11 2 11 12
M  V30 12 1 12 13
M  V30 13 2 13 14
M  V30 14 1 14 15
M  V30 15 1 15 16
M  V30 16 1 16 17
M  V30 17 1 17 18
M  V30 18 1 18 19
M  V30 19 1 19 20
M  V30 20 1 14 21
M  V30 21 2 21 22
M  V30 22 1 10 23
M  V30 23 2 23 24
M  V30 24 1 24 25
M  V30 25 2 4 26
M  V30 26 1 26 27
M  V30 27 2 27 28
M  V30 28 1 28 29
M  V30 29 1 28 30
M  V30 30 2 30 31
M  V30 31 1 31 32
M  V30 32 2 32 33
M  V30 33 1 33 2
M  V30 34 1 25 5
M  V30 35 1 32 26
M  V30 36 1 25 8
M  V30 37 1 22 11
M  V30 38 1 20 15
M  V30 39 1 1 34
M  V30 40 1 1 35
M  V30 41 1 1 36
M  V30 42 1 3 37
M  V30 43 1 6 38
M  V30 44 1 9 39
M  V30 45 1 12 40
M  V30 46 1 13 41
M  V30 47 1 16 42
M  V30 48 1 16 43
M  V30 49 1 17 44
M  V30 50 1 17 45
M  V30 51 1 18 46
M  V30 52 1 19 47
M  V30 53 1 19 48
M  V30 54 1 20 49
M  V30 55 1 20 50
M  V30 56 1 21 51
M  V30 57 1 22 52
M  V30 58 1 23 53
M  V30 59 1 24 54
M  V30 60 1 27 55
M  V30 61 1 30 56
M  V30 62 1 31 57
M  V30 END BOND
M  V30 END CTAB
M  END
>  <Dataset>  (354) 
ChEMBL_Kinases

>  <Ligand_Instance>  (354) 
nan

>  <PDB_ID>  (354) 
nan

>  <Standardized_SMILES>  (354) 
Cc1cc(-c2cnc3cc(-c4ccc(N5CCNCC5)cc4)ccn23)c2cc(F)ccc2n1

>  <Name>  (354) 
nan

>  <Pocket>  (354) 
nan

>  <ATP_Site>  (354) 
nan

>  <Peripheral>  (354) 
nan

>  <Num_H_Atoms_ProtBoundConf>  (354) 
nan

>  <Num_Resolved_Atoms>  (354) 
nan

>  <Num_Not_Resolved_Atoms>  (354) 
nan

$$$$
CHEMBL4788980
     RDKit          3D

  0  0  0  0  0  0  0  0  0  0999 V3000
M  V30 BEGIN CTAB
M  V30 COUNTS 59 61 0 0 0
M  V30 BEGIN ATOM
M  V30 1 C -1.298867 0.540334 7.242733 0
M  V30 2 C -0.888607 1.338995 6.063728 0
M  V30 3 N -1.013838 0.777539 4.783542 0
M  V30 4 C -0.706432 1.633412 3.683476 0
M  V30 5 C -1.693760 2.759743 3.466538 0
M  V30 6 C -0.965438 -0.605816 4.600073 0
M  V30 7 C 0.383032 -1.184382 4.846670 0
M  V30 8 C 1.482205 -0.691502 3.938441 0
M  V30 9 N 1.162011 -1.025912 2.557431 0
M  V30 10 C 2.061842 -0.661697 1.527262 0
M  V30 11 O 3.059560 -0.058794 2.000304 0
M  V30 12 C 1.947746 -0.900957 0.102891 0
M  V30 13 C 2.914970 -0.440072 -0.763209 0
M  V30 14 C 4.149152 0.333526 -0.456957 0
M  V30 15 N 2.564007 -0.809848 -2.007798 0
M  V30 16 C 1.411233 -1.495188 -2.026642 0
M  V30 17 C 0.857970 -2.043165 -3.247741 0
M  V30 18 C -0.303586 -1.871912 -3.842664 0
M  V30 19 C -1.348891 -1.008722 -3.335607 0
M  V30 20 O -1.277248 -0.315617 -2.317715 0
M  V30 21 N -2.411755 -1.154564 -4.258573 0
M  V30 22 C -2.022070 -2.065982 -5.278946 0
M  V30 23 C -2.700483 -2.540734 -6.407434 0
M  V30 24 C -2.130301 -3.440988 -7.291473 0
M  V30 25 C -0.837503 -3.909701 -7.077884 0
M  V30 26 F -0.146650 -4.774524 -7.830181 0
M  V30 27 C -0.195102 -3.428289 -5.964070 0
M  V30 28 C -0.742271 -2.531016 -5.069186 0
M  V30 29 C 1.033792 -1.546867 -0.695996 0
M  V30 30 C -0.164182 -2.228192 -0.155047 0
M  V30 31 H -0.654997 -0.261725 7.579339 0
M  V30 32 H -2.372427 0.200346 7.190510 0
M  V30 33 H -1.325772 1.267917 8.112970 0
M  V30 34 H -1.420562 2.310708 6.114865 0
M  V30 35 H 0.208864 1.577412 6.209394 0
M  V30 36 H -0.572722 1.130755 2.713501 0
M  V30 37 H 0.259186 2.155240 3.934216 0
M  V30 38 H -2.475089 2.490374 2.727442 0
M  V30 39 H -2.164809 3.083678 4.406821 0
M  V30 40 H -1.164071 3.626160 3.038168 0
M  V30 41 H -1.231964 -0.831132 3.533610 0
M  V30 42 H -1.721048 -1.181599 5.184381 0
M  V30 43 H 0.713541 -1.126898 5.910626 0
M  V30 44 H 0.293201 -2.304968 4.666511 0
M  V30 45 H 2.380507 -1.352865 4.166453 0
M  V30 46 H 1.766008 0.350709 4.073713 0
M  V30 47 H 0.291550 -1.526463 2.282856 0
M  V30 48 H 4.747208 -0.153869 0.317425 0
M  V30 49 H 3.839246 1.358403 -0.148144 0
M  V30 50 H 4.784291 0.456600 -1.355297 0
M  V30 51 H 3.145522 -0.577454 -2.870007 0
M  V30 52 H 1.566256 -2.728009 -3.746964 0
M  V30 53 H -3.311426 -0.634305 -4.133684 0
M  V30 54 H -3.708037 -2.180352 -6.578682 0
M  V30 55 H -2.625667 -3.822898 -8.164321 0
M  V30 56 H 0.818471 -3.711628 -5.676247 0
M  V30 57 H -0.717258 -2.698395 -1.026559 0
M  V30 58 H -0.918315 -1.507369 0.248322 0
M  V30 59 H 0.058645 -3.072416 0.512358 0
M  V30 END ATOM
M  V30 BEGIN BOND
M  V30 1 1 1 2
M  V30 2 1 2 3
M  V30 3 1 3 4
M  V30 4 1 4 5
M  V30 5 1 3 6
M  V30 6 1 6 7
M  V30 7 1 7 8
M  V30 8 1 8 9
M  V30 9 1 9 10
M  V30 10 2 10 11
M  V30 11 1 10 12
M  V30 12 2 12 13
M  V30 13 1 13 14
M  V30 14 1 13 15
M  V30 15 1 15 16
M  V30 16 1 16 17
M  V30 17 2 17 18
M  V30 18 1 18 19
M  V30 19 2 19 20
M  V30 20 1 19 21
M  V30 21 1 21 22
M  V30 22 2 22 23
M  V30 23 1 23 24
M  V30 24 2 24 25
M  V30 25 1 25 26
M  V30 26 1 25 27
M  V30 27 2 27 28
M  V30 28 2 16 29
M  V30 29 1 29 30
M  V30 30 1 29 12
M  V30 31 1 28 18
M  V30 32 1 28 22
M  V30 33 1 1 31
M  V30 34 1 1 32
M  V30 35 1 1 33
M  V30 36 1 2 34
M  V30 37 1 2 35
M  V30 38 1 4 36
M  V30 39 1 4 37
M  V30 40 1 5 38
M  V30 41 1 5 39
M  V30 42 1 5 40
M  V30 43 1 6 41
M  V30 44 1 6 42
M  V30 45 1 7 43
M  V30 46 1 7 44
M  V30 47 1 8 45
M  V30 48 1 8 46
M  V30 49 1 9 47
M  V30 50 1 14 48
M  V30 51 1 14 49
M  V30 52 1 14 50
M  V30 53 1 15 51
M  V30 54 1 17 52
M  V30 55 1 21 53
M  V30 56 1 23 54
M  V30 57 1 24 55
M  V30 58 1 27 56
M  V30 59 1 30 57
M  V30 60 1 30 58
M  V30 61 1 30 59
M  V30 END BOND
M  V30 END CTAB
M  END
>  <Dataset>  (355) 
ChEMBL_Kinases

>  <Ligand_Instance>  (355) 
nan

>  <PDB_ID>  (355) 
nan

>  <Standardized_SMILES>  (355) 
CCN(CC)CCCNC(=O)c1c(C)[nH]c(/C=C2\C(=O)Nc3ccc(F)cc32)c1C

>  <Name>  (355) 
nan

>  <Pocket>  (355) 
nan

>  <ATP_Site>  (355) 
nan

>  <Peripheral>  (355) 
nan

>  <Num_H_Atoms_ProtBoundConf>  (355) 
nan

>  <Num_Resolved_Atoms>  (355) 
nan

>  <Num_Not_Resolved_Atoms>  (355) 
nan

$$$$
CHEMBL1652738
     RDKit          3D

  0  0  0  0  0  0  0  0  0  0999 V3000
M  V30 BEGIN CTAB
M  V30 COUNTS 38 41 0 0 0
M  V30 BEGIN ATOM
M  V30 1 N 0.244215 -2.445940 5.451047 0
M  V30 2 C 1.087752 -2.279063 4.651692 0
M  V30 3 C 2.122184 -2.085039 3.670682 0
M  V30 4 C 3.464849 -2.226466 4.003482 0
M  V30 5 C 4.439961 -2.030279 3.018118 0
M  V30 6 C 4.106539 -1.693606 1.699998 0
M  V30 7 C 2.753762 -1.550495 1.364812 0
M  V30 8 N 2.350384 -1.201500 0.029304 0
M  V30 9 C 0.982854 -0.888505 -0.212383 0
M  V30 10 N 0.715598 0.401591 0.062766 0
M  V30 11 C -0.510515 0.954878 -0.090319 0
M  V30 12 C -0.720902 2.295056 0.215537 0
M  V30 13 C -2.003621 2.779848 0.033423 0
M  V30 14 C -2.286541 4.179912 0.344708 0
M  V30 15 O -3.385191 4.780215 0.235833 0
M  V30 16 O -1.259082 5.002022 0.824428 0
M  V30 17 C -2.998746 1.947129 -0.429726 0
M  V30 18 C -2.761897 0.619957 -0.725529 0
M  V30 19 C -1.502236 0.105615 -0.556822 0
M  V30 20 C -1.271564 -1.213521 -0.848428 0
M  V30 21 C -2.263584 -2.047065 -1.310321 0
M  V30 22 N -1.963561 -3.344235 -1.578091 0
M  V30 23 C -0.701884 -3.793067 -1.387330 0
M  V30 24 C 0.346691 -3.024101 -0.929201 0
M  V30 25 C -0.005890 -1.728489 -0.674911 0
M  V30 26 C 1.828479 -1.753631 2.365678 0
M  V30 27 H 3.762819 -2.487484 5.020602 0
M  V30 28 H 5.498835 -2.147138 3.306576 0
M  V30 29 H 4.876389 -1.547020 0.953586 0
M  V30 30 H 3.096199 -1.199195 -0.701222 0
M  V30 31 H 0.084080 2.913945 0.575541 0
M  V30 32 H -1.386164 5.975483 1.076860 0
M  V30 33 H -3.980697 2.409979 -0.546414 0
M  V30 34 H -3.630105 0.093197 -1.078530 0
M  V30 35 H -3.267109 -1.743962 -1.475283 0
M  V30 36 H -0.514756 -4.848517 -1.618468 0
M  V30 37 H 1.346457 -3.357028 -0.771530 0
M  V30 38 H 0.780717 -1.644615 2.112015 0
M  V30 END ATOM
M  V30 BEGIN BOND
M  V30 1 3 1 2
M  V30 2 1 2 3
M  V30 3 2 3 4
M  V30 4 1 4 5
M  V30 5 2 5 6
M  V30 6 1 6 7
M  V30 7 1 7 8
M  V30 8 1 8 9
M  V30 9 2 9 10
M  V30 10 1 10 11
M  V30 11 2 11 12
M  V30 12 1 12 13
M  V30 13 1 13 14
M  V30 14 2 14 15
M  V30 15 1 14 16
M  V30 16 2 13 17
M  V30 17 1 17 18
M  V30 18 2 18 19
M  V30 19 1 19 20
M  V30 20 2 20 21
M  V30 21 1 21 22
M  V30 22 2 22 23
M  V30 23 1 23 24
M  V30 24 2 24 25
M  V30 25 2 7 26
M  V30 26 1 26 3
M  V30 27 1 25 9
M  V30 28 1 19 11
M  V30 29 1 25 20
M  V30 30 1 4 27
M  V30 31 1 5 28
M  V30 32 1 6 29
M  V30 33 1 8 30
M  V30 34 1 12 31
M  V30 35 1 16 32
M  V30 36 1 17 33
M  V30 37 1 18 34
M  V30 38 1 21 35
M  V30 39 1 23 36
M  V30 40 1 24 37
M  V30 41 1 26 38
M  V30 END BOND
M  V30 END CTAB
M  END
>  <Dataset>  (356) 
ChEMBL_Kinases

>  <Ligand_Instance>  (356) 
nan

>  <PDB_ID>  (356) 
nan

>  <Standardized_SMILES>  (356) 
N#Cc1cccc(Nc2nc3cc(C(=O)O)ccc3c3cnccc23)c1

>  <Name>  (356) 
nan

>  <Pocket>  (356) 
nan

>  <ATP_Site>  (356) 
nan

>  <Peripheral>  (356) 
nan

>  <Num_H_Atoms_ProtBoundConf>  (356) 
nan

>  <Num_Resolved_Atoms>  (356) 
nan

>  <Num_Not_Resolved_Atoms>  (356) 
nan

$$$$
CHEMBL1672002
     RDKit          3D

  0  0  0  0  0  0  0  0  0  0999 V3000
M  V30 BEGIN CTAB
M  V30 COUNTS 24 24 0 0 0
M  V30 BEGIN ATOM
M  V30 1 C 1.843672 2.185969 3.536858 0
M  V30 2 C 1.360141 1.184656 2.533018 0
M  V30 3 C 2.031992 0.056166 2.264545 0
M  V30 4 C 1.566135 -0.933252 1.281091 0
M  V30 5 O 2.226668 -1.979370 1.058962 0
M  V30 6 C 0.313012 -0.608423 0.606884 0
M  V30 7 C -0.169573 -1.598405 -0.388877 0
M  V30 8 C 0.866712 -1.915720 -1.422446 0
M  V30 9 C -1.478559 -1.151207 -1.022080 0
M  V30 10 C -0.373221 0.488998 0.844647 0
M  V30 11 C 0.127523 1.443259 1.829626 0
M  V30 12 O -0.506429 2.498643 2.076688 0
M  V30 13 H 1.632037 3.213092 3.184744 0
M  V30 14 H 2.926285 2.004494 3.724449 0
M  V30 15 H 1.314997 2.033713 4.499633 0
M  V30 16 H 2.965439 -0.102936 2.821449 0
M  V30 17 H -0.428875 -2.537154 0.161551 0
M  V30 18 H 1.294757 -2.950170 -1.294251 0
M  V30 19 H 1.709310 -1.211451 -1.469964 0
M  V30 20 H 0.351497 -1.919040 -2.415653 0
M  V30 21 H -1.796229 -1.984225 -1.689798 0
M  V30 22 H -2.255334 -1.069294 -0.242995 0
M  V30 23 H -1.360436 -0.267173 -1.651110 0
M  V30 24 H -1.309384 0.710574 0.327038 0
M  V30 END ATOM
M  V30 BEGIN BOND
M  V30 1 1 1 2
M  V30 2 2 2 3
M  V30 3 1 3 4
M  V30 4 2 4 5
M  V30 5 1 4 6
M  V30 6 1 6 7
M  V30 7 1 7 8
M  V30 8 1 7 9
M  V30 9 2 6 10
M  V30 10 1 10 11
M  V30 11 2 11 12
M  V30 12 1 11 2
M  V30 13 1 1 13
M  V30 14 1 1 14
M  V30 15 1 1 15
M  V30 16 1 3 16
M  V30 17 1 7 17
M  V30 18 1 8 18
M  V30 19 1 8 19
M  V30 20 1 8 20
M  V30 21 1 9 21
M  V30 22 1 9 22
M  V30 23 1 9 23
M  V30 24 1 10 24
M  V30 END BOND
M  V30 END CTAB
M  END
>  <Dataset>  (357) 
ChEMBL_Kinases

>  <Ligand_Instance>  (357) 
nan

>  <PDB_ID>  (357) 
nan

>  <Standardized_SMILES>  (357) 
CC1=CC(=O)C(C(C)C)=CC1=O

>  <Name>  (357) 
THYMOQUINONE

>  <Pocket>  (357) 
nan

>  <ATP_Site>  (357) 
nan

>  <Peripheral>  (357) 
nan

>  <Num_H_Atoms_ProtBoundConf>  (357) 
nan

>  <Num_Resolved_Atoms>  (357) 
nan

>  <Num_Not_Resolved_Atoms>  (357) 
nan

$$$$
CHEMBL572514
     RDKit          3D

  0  0  0  0  0  0  0  0  0  0999 V3000
M  V30 BEGIN CTAB
M  V30 COUNTS 42 45 0 0 0
M  V30 BEGIN ATOM
M  V30 1 C -1.852543 -3.684428 0.605551 0
M  V30 2 N -1.104035 -4.843127 0.225889 0
M  V30 3 C -1.503119 -5.375779 -1.062317 0
M  V30 4 C 0.322918 -4.655275 0.303570 0
M  V30 5 C 0.809366 -3.546673 -0.589036 0
M  V30 6 N 0.862139 -2.329787 -0.089617 0
M  V30 7 C 1.276851 -1.259895 -0.783368 0
M  V30 8 C 1.621599 -1.637360 -2.048947 0
M  V30 9 S 2.157738 -0.039212 -2.828821 0
M  V30 10 C 1.844412 0.968222 -1.317322 0
M  V30 11 C 2.029319 2.354784 -1.132664 0
M  V30 12 C 1.711718 2.835254 0.104817 0
M  V30 13 C 1.250692 1.942505 1.037168 0
M  V30 14 C 0.912694 2.493287 2.371677 0
M  V30 15 C 1.048956 1.757152 3.523100 0
M  V30 16 C 0.744892 2.232977 4.779938 0
M  V30 17 C 0.273376 3.541229 4.858591 0
M  V30 18 O -0.068216 4.131434 6.088168 0
M  V30 19 C 0.126744 4.307731 3.703819 0
M  V30 20 F -0.329945 5.588901 3.732712 0
M  V30 21 C 0.445392 3.788784 2.453202 0
M  V30 22 C 1.069616 0.597749 0.863377 0
M  V30 23 C 1.362613 0.025968 -0.348006 0
M  V30 24 C 1.583614 -2.890803 -2.613735 0
M  V30 25 O 1.961054 -2.956989 -3.810840 0
M  V30 26 N 1.154134 -3.892167 -1.837270 0
M  V30 27 H -1.409144 -3.313102 1.559002 0
M  V30 28 H -1.852728 -2.901233 -0.162742 0
M  V30 29 H -2.914415 -4.007130 0.766557 0
M  V30 30 H -1.589992 -4.564778 -1.817284 0
M  V30 31 H -0.751828 -6.134432 -1.352383 0
M  V30 32 H -2.513048 -5.803972 -0.943171 0
M  V30 33 H 0.556899 -4.426085 1.352973 0
M  V30 34 H 0.833424 -5.577569 0.019838 0
M  V30 35 H 2.404159 2.853524 -2.014069 0
M  V30 36 H 1.858986 3.891681 0.226088 0
M  V30 37 H 1.414055 0.747074 3.452645 0
M  V30 38 H 0.848219 1.666004 5.681846 0
M  V30 39 H -0.883085 4.756151 6.095205 0
M  V30 40 H 0.325933 4.397615 1.562538 0
M  V30 41 H 0.697323 0.004688 1.685612 0
M  V30 42 H 1.128157 -4.835466 -2.270577 0
M  V30 END ATOM
M  V30 BEGIN BOND
M  V30 1 1 1 2
M  V30 2 1 2 3
M  V30 3 1 2 4
M  V30 4 1 4 5
M  V30 5 2 5 6
M  V30 6 1 6 7
M  V30 7 2 7 8
M  V30 8 1 8 9
M  V30 9 1 9 10
M  V30 10 2 10 11
M  V30 11 1 11 12
M  V30 12 2 12 13
M  V30 13 1 13 14
M  V30 14 2 14 15
M  V30 15 1 15 16
M  V30 16 2 16 17
M  V30 17 1 17 18
M  V30 18 1 17 19
M  V30 19 1 19 20
M  V30 20 2 19 21
M  V30 21 1 13 22
M  V30 22 2 22 23
M  V30 23 1 8 24
M  V30 24 2 24 25
M  V30 25 1 24 26
M  V30 26 1 26 5
M  V30 27 1 23 7
M  V30 28 1 23 10
M  V30 29 1 21 14
M  V30 30 1 1 27
M  V30 31 1 1 28
M  V30 32 1 1 29
M  V30 33 1 3 30
M  V30 34 1 3 31
M  V30 35 1 3 32
M  V30 36 1 4 33
M  V30 37 1 4 34
M  V30 38 1 11 35
M  V30 39 1 12 36
M  V30 40 1 15 37
M  V30 41 1 16 38
M  V30 42 1 18 39
M  V30 43 1 21 40
M  V30 44 1 22 41
M  V30 45 1 26 42
M  V30 END BOND
M  V30 END CTAB
M  END
>  <Dataset>  (358) 
ChEMBL_Kinases

>  <Ligand_Instance>  (358) 
nan

>  <PDB_ID>  (358) 
nan

>  <Standardized_SMILES>  (358) 
CN(C)Cc1nc2c(sc3ccc(-c4ccc(O)c(F)c4)cc32)c(=O)[nH]1

>  <Name>  (358) 
nan

>  <Pocket>  (358) 
nan

>  <ATP_Site>  (358) 
nan

>  <Peripheral>  (358) 
nan

>  <Num_H_Atoms_ProtBoundConf>  (358) 
nan

>  <Num_Resolved_Atoms>  (358) 
nan

>  <Num_Not_Resolved_Atoms>  (358) 
nan

$$$$
CHEMBL572556
     RDKit          3D

  0  0  0  0  0  0  0  0  0  0999 V3000
M  V30 BEGIN CTAB
M  V30 COUNTS 37 39 0 0 0
M  V30 BEGIN ATOM
M  V30 1 C -3.351409 -3.832326 1.631547 0
M  V30 2 C -2.065675 -3.924370 2.358570 0
M  V30 3 C -0.845358 -3.670259 1.547984 0
M  V30 4 C -0.275471 -4.769126 0.938906 0
M  V30 5 C 0.846154 -4.499409 0.200745 0
M  V30 6 C 1.316442 -3.237603 0.108759 0
M  V30 7 S 2.755127 -2.605746 -0.783935 0
M  V30 8 C 2.524570 -0.904891 -0.299592 0
M  V30 9 C 3.268125 0.221105 -0.609049 0
M  V30 10 O 4.255969 0.060743 -1.334642 0
M  V30 11 N 2.892549 1.414004 -0.118268 0
M  V30 12 C 1.792707 1.389812 0.651091 0
M  V30 13 C 1.361059 2.703405 1.205917 0
M  V30 14 N 0.450585 3.422073 0.373300 0
M  V30 15 C -0.772246 2.734663 0.108064 0
M  V30 16 C 1.085920 3.730062 -0.889355 0
M  V30 17 N 1.065319 0.310846 0.958028 0
M  V30 18 C 1.376984 -0.915448 0.505906 0
M  V30 19 C 0.766406 -2.122582 0.706929 0
M  V30 20 C -0.364151 -2.386806 1.452413 0
M  V30 21 H -3.828077 -2.837533 1.646457 0
M  V30 22 H -4.093053 -4.510632 2.129224 0
M  V30 23 H -3.295758 -4.124648 0.565196 0
M  V30 24 H -2.029922 -3.213032 3.218117 0
M  V30 25 H -1.987399 -4.933780 2.811205 0
M  V30 26 H -0.638856 -5.777213 1.003716 0
M  V30 27 H 1.358275 -5.292390 -0.309767 0
M  V30 28 H 3.454553 2.231374 -0.358557 0
M  V30 29 H 0.868881 2.501575 2.178230 0
M  V30 30 H 2.233766 3.342185 1.437660 0
M  V30 31 H -0.651255 1.818157 -0.495610 0
M  V30 32 H -1.394744 3.432061 -0.525467 0
M  V30 33 H -1.378170 2.504528 0.995914 0
M  V30 34 H 2.052163 4.228103 -0.616931 0
M  V30 35 H 0.438590 4.386533 -1.504878 0
M  V30 36 H 1.319797 2.792592 -1.429435 0
M  V30 37 H -0.914749 -1.622451 1.984575 0
M  V30 END ATOM
M  V30 BEGIN BOND
M  V30 1 1 1 2
M  V30 2 1 2 3
M  V30 3 2 3 4
M  V30 4 1 4 5
M  V30 5 2 5 6
M  V30 6 1 6 7
M  V30 7 1 7 8
M  V30 8 1 8 9
M  V30 9 2 9 10
M  V30 10 1 9 11
M  V30 11 1 11 12
M  V30 12 1 12 13
M  V30 13 1 13 14
M  V30 14 1 14 15
M  V30 15 1 14 16
M  V30 16 2 12 17
M  V30 17 1 17 18
M  V30 18 1 18 19
M  V30 19 2 19 20
M  V30 20 1 20 3
M  V30 21 1 19 6
M  V30 22 2 18 8
M  V30 23 1 1 21
M  V30 24 1 1 22
M  V30 25 1 1 23
M  V30 26 1 2 24
M  V30 27 1 2 25
M  V30 28 1 4 26
M  V30 29 1 5 27
M  V30 30 1 11 28
M  V30 31 1 13 29
M  V30 32 1 13 30
M  V30 33 1 15 31
M  V30 34 1 15 32
M  V30 35 1 15 33
M  V30 36 1 16 34
M  V30 37 1 16 35
M  V30 38 1 16 36
M  V30 39 1 20 37
M  V30 END BOND
M  V30 END CTAB
M  END
>  <Dataset>  (359) 
ChEMBL_Kinases

>  <Ligand_Instance>  (359) 
nan

>  <PDB_ID>  (359) 
nan

>  <Standardized_SMILES>  (359) 
CCc1ccc2sc3c(=O)[nH]c(CN(C)C)nc3c2c1

>  <Name>  (359) 
nan

>  <Pocket>  (359) 
nan

>  <ATP_Site>  (359) 
nan

>  <Peripheral>  (359) 
nan

>  <Num_H_Atoms_ProtBoundConf>  (359) 
nan

>  <Num_Resolved_Atoms>  (359) 
nan

>  <Num_Not_Resolved_Atoms>  (359) 
nan

$$$$
CHEMBL4643620
     RDKit          3D

  0  0  0  0  0  0  0  0  0  0999 V3000
M  V30 BEGIN CTAB
M  V30 COUNTS 50 54 0 0 0
M  V30 BEGIN ATOM
M  V30 1 C 1.581141 -3.946800 4.670790 0
M  V30 2 O 2.221476 -2.762517 5.078199 0
M  V30 3 C 3.012138 -1.971029 4.264662 0
M  V30 4 C 3.620485 -0.805538 4.731611 0
M  V30 5 C 4.400150 -0.055393 3.870243 0
M  V30 6 C 4.573747 -0.453347 2.568872 0
M  V30 7 C 3.985035 -1.611149 2.058077 0
M  V30 8 C 4.200396 -2.003541 0.640019 0
M  V30 9 N 3.111046 -1.357041 -0.108238 0
M  V30 10 C 3.103681 -0.044599 -0.715381 0
M  V30 11 C 1.912341 0.776177 -0.300105 0
M  V30 12 C 0.633071 0.072636 -0.466892 0
M  V30 13 C -0.568161 0.734213 -0.640492 0
M  V30 14 C -1.737007 0.007172 -0.791778 0
M  V30 15 C -3.041387 0.643934 -0.980835 0
M  V30 16 C -3.380665 1.881216 -0.421196 0
M  V30 17 C -4.621606 2.455030 -0.620341 0
M  V30 18 C -5.543788 1.766367 -1.402156 0
M  V30 19 N -6.814674 2.154588 -1.719204 0
M  V30 20 N -7.312887 1.173622 -2.487413 0
M  V30 21 C -6.406830 0.196670 -2.659370 0
M  V30 22 C -5.261032 0.545105 -1.976628 0
M  V30 23 C -4.006351 0.018802 -1.744682 0
M  V30 24 C -1.738310 -1.375539 -0.774393 0
M  V30 25 C -0.510420 -2.026068 -0.597357 0
M  V30 26 C 0.664694 -1.312220 -0.444887 0
M  V30 27 C 1.893094 -2.107397 -0.265971 0
M  V30 28 O 1.871422 -3.364025 -0.252966 0
M  V30 29 C 3.211804 -2.344473 2.933672 0
M  V30 30 H 0.751087 -4.134003 5.396245 0
M  V30 31 H 1.167237 -3.905390 3.653340 0
M  V30 32 H 2.270641 -4.828489 4.736690 0
M  V30 33 H 3.443351 -0.544336 5.772041 0
M  V30 34 H 4.820147 0.819513 4.333951 0
M  V30 35 H 5.189276 0.158674 1.930330 0
M  V30 36 H 4.095784 -3.093413 0.527738 0
M  V30 37 H 5.181909 -1.657546 0.269147 0
M  V30 38 H 4.050130 0.457686 -0.479375 0
M  V30 39 H 3.064648 -0.185682 -1.814210 0
M  V30 40 H 2.017501 1.001552 0.775816 0
M  V30 41 H 1.892962 1.712245 -0.889713 0
M  V30 42 H -0.601160 1.819301 -0.659282 0
M  V30 43 H -2.633328 2.391827 0.185854 0
M  V30 44 H -4.829210 3.421964 -0.159015 0
M  V30 45 H -7.324548 3.023008 -1.441893 0
M  V30 46 H -6.504374 -0.714269 -3.218701 0
M  V30 47 H -3.822455 -0.939756 -2.212062 0
M  V30 48 H -2.641736 -1.969264 -0.891708 0
M  V30 49 H -0.514783 -3.126064 -0.584133 0
M  V30 50 H 2.775838 -3.233850 2.492343 0
M  V30 END ATOM
M  V30 BEGIN BOND
M  V30 1 1 1 2
M  V30 2 1 2 3
M  V30 3 2 3 4
M  V30 4 1 4 5
M  V30 5 2 5 6
M  V30 6 1 6 7
M  V30 7 1 7 8
M  V30 8 1 8 9
M  V30 9 1 9 10
M  V30 10 1 10 11
M  V30 11 1 11 12
M  V30 12 2 12 13
M  V30 13 1 13 14
M  V30 14 1 14 15
M  V30 15 2 15 16
M  V30 16 1 16 17
M  V30 17 2 17 18
M  V30 18 1 18 19
M  V30 19 1 19 20
M  V30 20 2 20 21
M  V30 21 1 21 22
M  V30 22 2 22 23
M  V30 23 2 14 24
M  V30 24 1 24 25
M  V30 25 2 25 26
M  V30 26 1 26 27
M  V30 27 2 27 28
M  V30 28 2 7 29
M  V30 29 1 29 3
M  V30 30 1 27 9
M  V30 31 1 26 12
M  V30 32 1 23 15
M  V30 33 1 22 18
M  V30 34 1 1 30
M  V30 35 1 1 31
M  V30 36 1 1 32
M  V30 37 1 4 33
M  V30 38 1 5 34
M  V30 39 1 6 35
M  V30 40 1 8 36
M  V30 41 1 8 37
M  V30 42 1 10 38
M  V30 43 1 10 39
M  V30 44 1 11 40
M  V30 45 1 11 41
M  V30 46 1 13 42
M  V30 47 1 16 43
M  V30 48 1 17 44
M  V30 49 1 19 45
M  V30 50 1 21 46
M  V30 51 1 23 47
M  V30 52 1 24 48
M  V30 53 1 25 49
M  V30 54 1 29 50
M  V30 END BOND
M  V30 END CTAB
M  END
>  <Dataset>  (360) 
ChEMBL_Kinases

>  <Ligand_Instance>  (360) 
nan

>  <PDB_ID>  (360) 
nan

>  <Standardized_SMILES>  (360) 
COc1cccc(CN2CCc3cc(-c4ccc5[nH]ncc5c4)ccc3C2=O)c1

>  <Name>  (360) 
nan

>  <Pocket>  (360) 
nan

>  <ATP_Site>  (360) 
nan

>  <Peripheral>  (360) 
nan

>  <Num_H_Atoms_ProtBoundConf>  (360) 
nan

>  <Num_Resolved_Atoms>  (360) 
nan

>  <Num_Not_Resolved_Atoms>  (360) 
nan

$$$$
CHEMBL572629
     RDKit          3D

  0  0  0  0  0  0  0  0  0  0999 V3000
M  V30 BEGIN CTAB
M  V30 COUNTS 66 71 0 0 0
M  V30 BEGIN ATOM
M  V30 1 C 4.639881 0.692602 6.316449 0
M  V30 2 C 3.698495 0.957191 5.177687 0
M  V30 3 N 3.840142 0.139883 4.118470 0
M  V30 4 C 3.068547 0.251941 3.019880 0
M  V30 5 C 3.126473 -0.563282 1.823632 0
M  V30 6 C 4.381280 -0.440976 1.222441 0
M  V30 7 C 4.706520 -1.123991 0.048867 0
M  V30 8 C 3.740637 -1.936194 -0.510856 0
M  V30 9 C 2.512096 -2.040302 0.100044 0
M  V30 10 C 2.182197 -1.367673 1.261640 0
M  V30 11 C 2.100470 1.235142 2.974980 0
M  V30 12 C 1.151157 1.556228 1.915313 0
M  V30 13 C -0.176154 1.422715 2.340367 0
M  V30 14 C -1.212929 1.688453 1.462356 0
M  V30 15 C -0.989606 2.092232 0.143874 0
M  V30 16 C -2.120892 2.369740 -0.769896 0
M  V30 17 N -2.553835 1.255683 -1.491105 0
M  V30 18 C -1.684848 0.580911 -2.351174 0
M  V30 19 C -2.360236 -0.763308 -2.665174 0
M  V30 20 C -3.040936 -1.197785 -1.408223 0
M  V30 21 N -3.239522 -2.601965 -1.261394 0
M  V30 22 C -4.392042 -3.293630 -1.118783 0
M  V30 23 O -5.554072 -2.809149 -1.087558 0
M  V30 24 N -4.189889 -4.617022 -1.006165 0
M  V30 25 C -2.846973 -4.756187 -1.082279 0
M  V30 26 C -2.123801 -5.937792 -1.017877 0
M  V30 27 C -0.750293 -5.891452 -1.113727 0
M  V30 28 C -0.129449 -4.669823 -1.271434 0
M  V30 29 C -0.865796 -3.506012 -1.333277 0
M  V30 30 C -2.243277 -3.504212 -1.241730 0
M  V30 31 C -4.296697 -0.395409 -1.265425 0
M  V30 32 C -3.945102 1.046658 -1.645908 0
M  V30 33 C 0.334097 2.209064 -0.226813 0
M  V30 34 C 1.380784 1.948328 0.634943 0
M  V30 35 N 1.969287 2.055848 4.056761 0
M  V30 36 C 2.737966 1.947696 5.156746 0
M  V30 37 O 2.646085 2.677145 6.159018 0
M  V30 38 H 5.677176 0.940293 6.048986 0
M  V30 39 H 4.628344 -0.369554 6.637598 0
M  V30 40 H 4.361594 1.272834 7.211401 0
M  V30 41 H 5.232072 0.168934 1.565357 0
M  V30 42 H 5.643633 -1.067759 -0.450250 0
M  V30 43 H 3.915552 -2.496507 -1.416870 0
M  V30 44 H 1.744503 -2.669404 -0.321402 0
M  V30 45 H 1.263818 -1.389988 1.796795 0
M  V30 46 H -0.491834 1.113432 3.348893 0
M  V30 47 H -2.243749 1.591103 1.771950 0
M  V30 48 H -2.952566 2.723498 -0.124577 0
M  V30 49 H -1.844240 3.257037 -1.389191 0
M  V30 50 H -0.675822 0.461431 -1.959238 0
M  V30 51 H -1.611616 1.130229 -3.332876 0
M  V30 52 H -1.698807 -1.480883 -3.137784 0
M  V30 53 H -3.178304 -0.556484 -3.408041 0
M  V30 54 H -2.376534 -0.882272 -0.552374 0
M  V30 55 H -4.903294 -5.363208 -0.887589 0
M  V30 56 H -2.629843 -6.891817 -0.893165 0
M  V30 57 H -0.191692 -6.821187 -1.062289 0
M  V30 58 H 0.943921 -4.703796 -1.339693 0
M  V30 59 H -0.366003 -2.555779 -1.457017 0
M  V30 60 H -4.717222 -0.364780 -0.252634 0
M  V30 61 H -5.040526 -0.737121 -2.036590 0
M  V30 62 H -4.496421 1.780641 -1.054472 0
M  V30 63 H -4.194139 1.237327 -2.718890 0
M  V30 64 H 0.572424 2.521747 -1.247675 0
M  V30 65 H 2.420737 2.028186 0.382676 0
M  V30 66 H 1.265857 2.838251 4.131527 0
M  V30 END ATOM
M  V30 BEGIN BOND
M  V30 1 1 1 2
M  V30 2 2 2 3
M  V30 3 1 3 4
M  V30 4 1 4 5
M  V30 5 2 5 6
M  V30 6 1 6 7
M  V30 7 2 7 8
M  V30 8 1 8 9
M  V30 9 2 9 10
M  V30 10 2 4 11
M  V30 11 1 11 12
M  V30 12 2 12 13
M  V30 13 1 13 14
M  V30 14 2 14 15
M  V30 15 1 15 16
M  V30 16 1 16 17
M  V30 17 1 17 18
M  V30 18 1 18 19
M  V30 19 1 19 20
M  V30 20 1 20 21
M  V30 21 1 21 22
M  V30 22 2 22 23
M  V30 23 1 22 24
M  V30 24 1 24 25
M  V30 25 2 25 26
M  V30 26 1 26 27
M  V30 27 2 27 28
M  V30 28 1 28 29
M  V30 29 2 29 30
M  V30 30 1 20 31
M  V30 31 1 31 32
M  V30 32 1 15 33
M  V30 33 2 33 34
M  V30 34 1 11 35
M  V30 35 1 35 36
M  V30 36 2 36 37
M  V30 37 1 36 2
M  V30 38 1 10 5
M  V30 39 1 34 12
M  V30 40 1 32 17
M  V30 41 1 30 21
M  V30 42 1 30 25
M  V30 43 1 1 38
M  V30 44 1 1 39
M  V30 45 1 1 40
M  V30 46 1 6 41
M  V30 47 1 7 42
M  V30 48 1 8 43
M  V30 49 1 9 44
M  V30 50 1 10 45
M  V30 51 1 13 46
M  V30 52 1 14 47
M  V30 53 1 16 48
M  V30 54 1 16 49
M  V30 55 1 18 50
M  V30 56 1 18 51
M  V30 57 1 19 52
M  V30 58 1 19 53
M  V30 59 1 20 54
M  V30 60 1 24 55
M  V30 61 1 26 56
M  V30 62 1 27 57
M  V30 63 1 28 58
M  V30 64 1 29 59
M  V30 65 1 31 60
M  V30 66 1 31 61
M  V30 67 1 32 62
M  V30 68 1 32 63
M  V30 69 1 33 64
M  V30 70 1 34 65
M  V30 71 1 35 66
M  V30 END BOND
M  V30 END CTAB
M  END
>  <Dataset>  (361) 
ChEMBL_Kinases

>  <Ligand_Instance>  (361) 
nan

>  <PDB_ID>  (361) 
nan

>  <Standardized_SMILES>  (361) 
Cc1nc(-c2ccccc2)c(-c2ccc(CN3CCC(n4c(=O)[nH]c5ccccc54)CC3)cc2)[nH]c1=O

>  <Name>  (361) 
nan

>  <Pocket>  (361) 
nan

>  <ATP_Site>  (361) 
nan

>  <Peripheral>  (361) 
nan

>  <Num_H_Atoms_ProtBoundConf>  (361) 
nan

>  <Num_Resolved_Atoms>  (361) 
nan

>  <Num_Not_Resolved_Atoms>  (361) 
nan

$$$$
CHEMBL209669
     RDKit          3D

  0  0  0  0  0  0  0  0  0  0999 V3000
M  V30 BEGIN CTAB
M  V30 COUNTS 59 60 0 0 0
M  V30 BEGIN ATOM
M  V30 1 C 0.235945 -0.884127 6.683695 0
M  V30 2 C 1.053804 -1.758224 5.728285 0
M  V30 3 C 2.517651 -1.447043 5.857556 0
M  V30 4 C 2.829437 -0.003234 5.533136 0
M  V30 5 N 2.465895 0.371198 4.200203 0
M  V30 6 C 3.042623 -0.295119 3.084455 0
M  V30 7 O 3.883810 -1.228695 3.167467 0
M  V30 8 C 2.619969 0.145011 1.749460 0
M  V30 9 C 2.915506 1.593852 1.462980 0
M  V30 10 C 2.608045 1.909594 0.040087 0
M  V30 11 N 1.988380 0.901259 -0.728394 0
M  V30 12 C 0.663824 1.117286 -1.169739 0
M  V30 13 C 0.055893 0.038972 -1.968849 0
M  V30 14 O 0.283302 -1.119734 -2.461328 0
M  V30 15 N -1.294496 0.351309 -2.372140 0
M  V30 16 C -2.029895 -0.599144 -3.159479 0
M  V30 17 C -2.073259 -0.683503 -4.535399 0
M  V30 18 C -2.843360 -1.673079 -5.091801 0
M  V30 19 N -2.870306 -1.737562 -6.513342 0
M  V30 20 C -3.570112 -2.579747 -4.339451 0
M  V30 21 C -4.364894 -3.601520 -4.936456 0
M  V30 22 N -5.010771 -4.421841 -5.418950 0
M  V30 23 C -3.495755 -2.455962 -2.960046 0
M  V30 24 O -4.191627 -3.321884 -2.135801 0
M  V30 25 C -4.136070 -3.221260 -0.722589 0
M  V30 26 C -4.628038 -1.898398 -0.225930 0
M  V30 27 N -2.734596 -1.477464 -2.390669 0
M  V30 28 C 2.456268 -0.420981 -0.595432 0
M  V30 29 C 3.298533 -0.656179 0.648610 0
M  V30 30 H 0.833135 -0.630267 7.585813 0
M  V30 31 H -0.060864 0.037603 6.123026 0
M  V30 32 H -0.711548 -1.373124 6.970528 0
M  V30 33 H 0.930222 -2.827176 6.000785 0
M  V30 34 H 0.686103 -1.665822 4.693767 0
M  V30 35 H 2.829820 -1.630527 6.898740 0
M  V30 36 H 3.078032 -2.104181 5.180382 0
M  V30 37 H 3.913742 0.151418 5.728812 0
M  V30 38 H 2.291664 0.613282 6.273260 0
M  V30 39 H 1.761882 1.150746 4.050876 0
M  V30 40 H 1.529732 0.018485 1.598089 0
M  V30 41 H 4.012531 1.744807 1.660374 0
M  V30 42 H 2.352639 2.195950 2.200409 0
M  V30 43 H 1.916990 2.802872 0.031513 0
M  V30 44 H 3.528659 2.274812 -0.485898 0
M  V30 45 H 0.639908 2.041125 -1.806371 0
M  V30 46 H -0.056084 1.344949 -0.332452 0
M  V30 47 H -1.894252 1.201883 -2.190604 0
M  V30 48 H -1.488214 0.048218 -5.054213 0
M  V30 49 H -3.568684 -1.267396 -7.134619 0
M  V30 50 H -2.067557 -2.338721 -6.826442 0
M  V30 51 H -3.048406 -3.313303 -0.436814 0
M  V30 52 H -4.667702 -4.057380 -0.231538 0
M  V30 53 H -5.022540 -1.927343 0.795515 0
M  V30 54 H -5.405387 -1.493785 -0.935541 0
M  V30 55 H -3.766940 -1.187061 -0.211308 0
M  V30 56 H 3.138007 -0.647482 -1.460641 0
M  V30 57 H 1.663098 -1.179444 -0.570332 0
M  V30 58 H 4.312365 -0.210219 0.550259 0
M  V30 59 H 3.332813 -1.731634 0.914035 0
M  V30 END ATOM
M  V30 BEGIN BOND
M  V30 1 1 1 2
M  V30 2 1 2 3
M  V30 3 1 3 4
M  V30 4 1 4 5
M  V30 5 1 5 6
M  V30 6 2 6 7
M  V30 7 1 6 8
M  V30 8 1 8 9
M  V30 9 1 9 10
M  V30 10 1 10 11
M  V30 11 1 11 12
M  V30 12 1 12 13
M  V30 13 2 13 14
M  V30 14 1 13 15
M  V30 15 1 15 16
M  V30 16 2 16 17
M  V30 17 1 17 18
M  V30 18 1 18 19
M  V30 19 2 18 20
M  V30 20 1 20 21
M  V30 21 3 21 22
M  V30 22 1 20 23
M  V30 23 1 23 24
M  V30 24 1 24 25
M  V30 25 1 25 26
M  V30 26 2 23 27
M  V30 27 1 11 28
M  V30 28 1 28 29
M  V30 29 1 29 8
M  V30 30 1 27 16
M  V30 31 1 1 30
M  V30 32 1 1 31
M  V30 33 1 1 32
M  V30 34 1 2 33
M  V30 35 1 2 34
M  V30 36 1 3 35
M  V30 37 1 3 36
M  V30 38 1 4 37
M  V30 39 1 4 38
M  V30 40 1 5 39
M  V30 41 1 8 40
M  V30 42 1 9 41
M  V30 43 1 9 42
M  V30 44 1 10 43
M  V30 45 1 10 44
M  V30 46 1 12 45
M  V30 47 1 12 46
M  V30 48 1 15 47
M  V30 49 1 17 48
M  V30 50 1 19 49
M  V30 51 1 19 50
M  V30 52 1 25 51
M  V30 53 1 25 52
M  V30 54 1 26 53
M  V30 55 1 26 54
M  V30 56 1 26 55
M  V30 57 1 28 56
M  V30 58 1 28 57
M  V30 59 1 29 58
M  V30 60 1 29 59
M  V30 END BOND
M  V30 END CTAB
M  END
>  <Dataset>  (362) 
ChEMBL_Kinases

>  <Ligand_Instance>  (362) 
nan

>  <PDB_ID>  (362) 
nan

>  <Standardized_SMILES>  (362) 
CCCCNC(=O)C1CCN(CC(=O)Nc2cc(N)c(C#N)c(OCC)n2)CC1

>  <Name>  (362) 
nan

>  <Pocket>  (362) 
nan

>  <ATP_Site>  (362) 
nan

>  <Peripheral>  (362) 
nan

>  <Num_H_Atoms_ProtBoundConf>  (362) 
nan

>  <Num_Resolved_Atoms>  (362) 
nan

>  <Num_Not_Resolved_Atoms>  (362) 
nan

$$$$
CHEMBL1243129
     RDKit          3D

  0  0  0  0  0  0  0  0  0  0999 V3000
M  V30 BEGIN CTAB
M  V30 COUNTS 31 34 0 0 0
M  V30 BEGIN ATOM
M  V30 1 O 0.798484 -6.902440 0.859157 0
M  V30 2 C 1.088578 -5.782382 0.340328 0
M  V30 3 C 0.493413 -4.563733 0.870307 0
M  V30 4 C -0.389817 -4.465167 1.916655 0
M  V30 5 N -0.713400 -3.159896 2.107112 0
M  V30 6 C -0.057023 -2.379030 1.199703 0
M  V30 7 C 0.672736 -3.262694 0.457093 0
M  V30 8 C 1.482156 -2.801098 -0.585693 0
M  V30 9 C 1.536628 -1.450814 -0.856367 0
M  V30 10 C 0.785797 -0.596672 -0.083948 0
M  V30 11 C 0.657513 0.780817 -0.139149 0
M  V30 12 C 1.177463 1.813853 -0.920934 0
M  V30 13 C 0.818729 3.138942 -0.691247 0
M  V30 14 C -0.061589 3.452995 0.318846 0
M  V30 15 C -0.602173 2.441035 1.122225 0
M  V30 16 C -1.552395 2.802886 2.209087 0
M  V30 17 F -1.772782 4.161270 2.267468 0
M  V30 18 F -0.969843 2.401118 3.401155 0
M  V30 19 F -2.765883 2.159952 2.065895 0
M  V30 20 C -0.221572 1.139228 0.862723 0
M  V30 21 N -0.637232 0.025315 1.531488 0
M  V30 22 C -0.022304 -1.020335 0.951485 0
M  V30 23 H 1.771296 -5.746737 -0.485493 0
M  V30 24 H -0.776062 -5.287583 2.505777 0
M  V30 25 H -1.367768 -2.733680 2.828665 0
M  V30 26 H 2.083577 -3.446443 -1.210303 0
M  V30 27 H 2.152608 -1.050961 -1.657337 0
M  V30 28 H 1.867868 1.510692 -1.704461 0
M  V30 29 H 1.289890 3.843047 -1.364404 0
M  V30 30 H -0.310853 4.510649 0.457633 0
M  V30 31 H -1.301403 -0.056447 2.341998 0
M  V30 END ATOM
M  V30 BEGIN BOND
M  V30 1 2 1 2
M  V30 2 1 2 3
M  V30 3 2 3 4
M  V30 4 1 4 5
M  V30 5 1 5 6
M  V30 6 2 6 7
M  V30 7 1 7 8
M  V30 8 2 8 9
M  V30 9 1 9 10
M  V30 10 1 10 11
M  V30 11 2 11 12
M  V30 12 1 12 13
M  V30 13 2 13 14
M  V30 14 1 14 15
M  V30 15 1 15 16
M  V30 16 1 16 17
M  V30 17 1 16 18
M  V30 18 1 16 19
M  V30 19 2 15 20
M  V30 20 1 20 21
M  V30 21 1 21 22
M  V30 22 1 7 3
M  V30 23 2 22 10
M  V30 24 1 22 6
M  V30 25 1 20 11
M  V30 26 1 2 23
M  V30 27 1 4 24
M  V30 28 1 5 25
M  V30 29 1 8 26
M  V30 30 1 9 27
M  V30 31 1 12 28
M  V30 32 1 13 29
M  V30 33 1 14 30
M  V30 34 1 21 31
M  V30 END BOND
M  V30 END CTAB
M  END
>  <Dataset>  (363) 
ChEMBL_Kinases

>  <Ligand_Instance>  (363) 
nan

>  <PDB_ID>  (363) 
nan

>  <Standardized_SMILES>  (363) 
O=Cc1c[nH]c2c1ccc1c3cccc(C(F)(F)F)c3[nH]c12

>  <Name>  (363) 
nan

>  <Pocket>  (363) 
nan

>  <ATP_Site>  (363) 
nan

>  <Peripheral>  (363) 
nan

>  <Num_H_Atoms_ProtBoundConf>  (363) 
nan

>  <Num_Resolved_Atoms>  (363) 
nan

>  <Num_Not_Resolved_Atoms>  (363) 
nan

$$$$
CHEMBL210765
     RDKit          3D

  0  0  0  0  0  0  0  0  0  0999 V3000
M  V30 BEGIN CTAB
M  V30 COUNTS 64 67 0 0 0
M  V30 BEGIN ATOM
M  V30 1 C 1.999958 0.737393 4.422324 0
M  V30 2 N 1.864738 -0.693089 4.677984 0
M  V30 3 C 3.151553 -1.361349 4.623685 0
M  V30 4 C 3.762406 -1.311465 3.233647 0
M  V30 5 N 2.758228 -1.541751 2.214779 0
M  V30 6 C 3.279408 -2.352131 1.153154 0
M  V30 7 C 4.330186 -1.667868 0.322663 0
M  V30 8 C 3.757230 -0.434876 -0.308748 0
M  V30 9 O 2.581326 -0.484761 0.168137 0
M  V30 10 N 4.395892 0.470948 -1.172116 0
M  V30 11 S 3.436954 1.800351 -1.726894 0
M  V30 12 O 4.150063 3.052366 -1.364573 0
M  V30 13 O 3.332907 1.703960 -3.213388 0
M  V30 14 C 1.834144 1.727976 -1.041413 0
M  V30 15 C 0.794297 1.008419 -1.636153 0
M  V30 16 C -0.408772 1.046472 -0.970621 0
M  V30 17 C -0.707517 1.702279 0.199663 0
M  V30 18 N -1.970845 1.691949 0.843849 0
M  V30 19 C -3.133427 0.939098 0.492563 0
M  V30 20 N -4.302809 1.018862 1.149712 0
M  V30 21 C -5.144964 0.172313 0.545693 0
M  V30 22 N -6.452630 0.140685 1.137657 0
M  V30 23 N -4.534991 -0.443628 -0.481293 0
M  V30 24 C -5.272869 -1.381396 -1.242671 0
M  V30 25 O -6.489665 -1.568370 -0.888964 0
M  V30 26 C -4.869996 -2.178690 -2.376588 0
M  V30 27 C -5.829679 -3.004193 -2.948173 0
M  V30 28 F -7.112181 -3.120201 -2.530919 0
M  V30 29 C -5.516715 -3.805242 -4.045170 0
M  V30 30 C -4.265743 -3.827949 -4.617755 0
M  V30 31 C -3.276194 -3.004945 -4.062064 0
M  V30 32 C -3.641894 -2.241880 -2.987310 0
M  V30 33 F -2.673511 -1.469672 -2.479139 0
M  V30 34 N -3.315168 0.044948 -0.485708 0
M  V30 35 C 0.355564 2.395009 0.739948 0
M  V30 36 C 1.594580 2.407613 0.135419 0
M  V30 37 C 1.655592 -2.245074 2.836892 0
M  V30 38 C 0.903801 -1.307572 3.788377 0
M  V30 39 H 1.784706 1.269607 5.369414 0
M  V30 40 H 1.263891 1.064296 3.658950 0
M  V30 41 H 3.035513 0.989851 4.108612 0
M  V30 42 H 3.833308 -0.808470 5.294683 0
M  V30 43 H 3.027890 -2.377684 5.017292 0
M  V30 44 H 4.264617 -0.350088 3.065887 0
M  V30 45 H 4.535162 -2.097476 3.159512 0
M  V30 46 H 3.715673 -3.274733 1.573470 0
M  V30 47 H 2.458944 -2.652426 0.459572 0
M  V30 48 H 5.216115 -1.439654 0.949061 0
M  V30 49 H 4.564190 -2.363433 -0.529792 0
M  V30 50 H 5.385481 0.255286 -1.395285 0
M  V30 51 H 0.968393 0.481307 -2.544806 0
M  V30 52 H -1.193907 0.483972 -1.454174 0
M  V30 53 H -2.047129 2.327387 1.689579 0
M  V30 54 H -7.002665 -0.421228 1.822552 0
M  V30 55 H -7.176948 0.873464 0.870615 0
M  V30 56 H -6.249159 -4.459445 -4.510502 0
M  V30 57 H -3.994962 -4.437858 -5.466716 0
M  V30 58 H -2.278727 -2.986045 -4.474722 0
M  V30 59 H 0.211152 2.949429 1.675273 0
M  V30 60 H 2.376048 2.989498 0.644833 0
M  V30 61 H 0.944994 -2.641068 2.067548 0
M  V30 62 H 2.037012 -3.105029 3.389658 0
M  V30 63 H 0.323585 -0.555145 3.218297 0
M  V30 64 H 0.188031 -1.914231 4.368417 0
M  V30 END ATOM
M  V30 BEGIN BOND
M  V30 1 1 1 2
M  V30 2 1 2 3
M  V30 3 1 3 4
M  V30 4 1 4 5
M  V30 5 1 5 6
M  V30 6 1 6 7
M  V30 7 1 7 8
M  V30 8 2 8 9
M  V30 9 1 8 10
M  V30 10 1 10 11
M  V30 11 2 11 12
M  V30 12 2 11 13
M  V30 13 1 11 14
M  V30 14 2 14 15
M  V30 15 1 15 16
M  V30 16 2 16 17
M  V30 17 1 17 18
M  V30 18 1 18 19
M  V30 19 1 19 20
M  V30 20 2 20 21
M  V30 21 1 21 22
M  V30 22 1 21 23
M  V30 23 1 23 24
M  V30 24 2 24 25
M  V30 25 1 24 26
M  V30 26 2 26 27
M  V30 27 1 27 28
M  V30 28 1 27 29
M  V30 29 2 29 30
M  V30 30 1 30 31
M  V30 31 2 31 32
M  V30 32 1 32 33
M  V30 33 1 23 34
M  V30 34 1 17 35
M  V30 35 2 35 36
M  V30 36 1 5 37
M  V30 37 1 37 38
M  V30 38 1 38 2
M  V30 39 1 36 14
M  V30 40 2 34 19
M  V30 41 1 32 26
M  V30 42 1 1 39
M  V30 43 1 1 40
M  V30 44 1 1 41
M  V30 45 1 3 42
M  V30 46 1 3 43
M  V30 47 1 4 44
M  V30 48 1 4 45
M  V30 49 1 6 46
M  V30 50 1 6 47
M  V30 51 1 7 48
M  V30 52 1 7 49
M  V30 53 1 10 50
M  V30 54 1 15 51
M  V30 55 1 16 52
M  V30 56 1 18 53
M  V30 57 1 22 54
M  V30 58 1 22 55
M  V30 59 1 29 56
M  V30 60 1 30 57
M  V30 61 1 31 58
M  V30 62 1 35 59
M  V30 63 1 36 60
M  V30 64 1 37 61
M  V30 65 1 37 62
M  V30 66 1 38 63
M  V30 67 1 38 64
M  V30 END BOND
M  V30 END CTAB
M  END
>  <Dataset>  (364) 
ChEMBL_Kinases

>  <Ligand_Instance>  (364) 
nan

>  <PDB_ID>  (364) 
nan

>  <Standardized_SMILES>  (364) 
CN1CCN(CCC(=O)NS(=O)(=O)c2ccc(Nc3nc(N)n(C(=O)c4c(F)cccc4F)n3)cc2)CC1

>  <Name>  (364) 
nan

>  <Pocket>  (364) 
nan

>  <ATP_Site>  (364) 
nan

>  <Peripheral>  (364) 
nan

>  <Num_H_Atoms_ProtBoundConf>  (364) 
nan

>  <Num_Resolved_Atoms>  (364) 
nan

>  <Num_Not_Resolved_Atoms>  (364) 
nan

$$$$
CHEMBL213475
     RDKit          3D

  0  0  0  0  0  0  0  0  0  0999 V3000
M  V30 BEGIN CTAB
M  V30 COUNTS 41 45 0 0 0
M  V30 BEGIN ATOM
M  V30 1 C 3.561945 -4.580801 2.485807 0
M  V30 2 O 3.164786 -5.145150 1.256747 0
M  V30 3 C 2.280572 -4.551173 0.367457 0
M  V30 4 C 1.990632 -5.230395 -0.797063 0
M  V30 5 C 1.116383 -4.672263 -1.705916 0
M  V30 6 C 0.535777 -3.450818 -1.459892 0
M  V30 7 C 0.792401 -2.732071 -0.310749 0
M  V30 8 C 0.249964 -1.443648 0.099026 0
M  V30 9 C 1.264041 -0.539978 0.444209 0
M  V30 10 C 0.927226 0.740536 0.836937 0
M  V30 11 N 1.700680 1.800048 1.218752 0
M  V30 12 C 0.835146 2.792915 1.490346 0
M  V30 13 C 1.186037 4.072976 1.919914 0
M  V30 14 C 0.209952 5.021725 2.171253 0
M  V30 15 C -1.126290 4.651032 1.979884 0
M  V30 16 O -2.105433 5.598375 2.230599 0
M  V30 17 C -1.392059 3.370432 1.554762 0
M  V30 18 C -0.470202 2.402047 1.294204 0
M  V30 19 C -0.399231 1.104798 0.881927 0
M  V30 20 C -1.390205 0.239449 0.550832 0
M  V30 21 C -1.070430 -1.038726 0.158028 0
M  V30 22 C -2.236372 -1.831959 -0.151794 0
M  V30 23 O -2.307686 -3.032217 -0.537011 0
M  V30 24 N -3.334161 -0.953655 0.074421 0
M  V30 25 C -2.825950 0.299671 0.499299 0
M  V30 26 O -3.654603 1.185301 0.741023 0
M  V30 27 C 1.683940 -3.330259 0.586573 0
M  V30 28 H 4.597884 -4.908851 2.770796 0
M  V30 29 H 3.640340 -3.458298 2.447284 0
M  V30 30 H 2.917097 -4.882375 3.332056 0
M  V30 31 H 2.434854 -6.192819 -1.013122 0
M  V30 32 H 0.874837 -5.187125 -2.625171 0
M  V30 33 H -0.146330 -2.977390 -2.152205 0
M  V30 34 H 2.321445 -0.763229 0.430027 0
M  V30 35 H 2.748197 1.806470 1.277596 0
M  V30 36 H 2.202340 4.374302 2.071679 0
M  V30 37 H 0.489196 6.000381 2.500277 0
M  V30 38 H -2.901027 5.291711 2.770127 0
M  V30 39 H -2.424071 3.178740 1.437030 0
M  V30 40 H -4.329918 -1.285573 -0.080466 0
M  V30 41 H 1.941129 -2.838190 1.509602 0
M  V30 END ATOM
M  V30 BEGIN BOND
M  V30 1 1 1 2
M  V30 2 1 2 3
M  V30 3 2 3 4
M  V30 4 1 4 5
M  V30 5 2 5 6
M  V30 6 1 6 7
M  V30 7 1 7 8
M  V30 8 2 8 9
M  V30 9 1 9 10
M  V30 10 1 10 11
M  V30 11 1 11 12
M  V30 12 2 12 13
M  V30 13 1 13 14
M  V30 14 2 14 15
M  V30 15 1 15 16
M  V30 16 1 15 17
M  V30 17 2 17 18
M  V30 18 1 18 19
M  V30 19 1 19 20
M  V30 20 2 20 21
M  V30 21 1 21 22
M  V30 22 2 22 23
M  V30 23 1 22 24
M  V30 24 1 24 25
M  V30 25 2 25 26
M  V30 26 2 7 27
M  V30 27 1 27 3
M  V30 28 1 21 8
M  V30 29 2 19 10
M  V30 30 1 25 20
M  V30 31 1 18 12
M  V30 32 1 1 28
M  V30 33 1 1 29
M  V30 34 1 1 30
M  V30 35 1 4 31
M  V30 36 1 5 32
M  V30 37 1 6 33
M  V30 38 1 9 34
M  V30 39 1 11 35
M  V30 40 1 13 36
M  V30 41 1 14 37
M  V30 42 1 16 38
M  V30 43 1 17 39
M  V30 44 1 24 40
M  V30 45 1 27 41
M  V30 END BOND
M  V30 END CTAB
M  END
>  <Dataset>  (365) 
ChEMBL_Kinases

>  <Ligand_Instance>  (365) 
nan

>  <PDB_ID>  (365) 
nan

>  <Standardized_SMILES>  (365) 
COc1cccc(-c2cc3[nH]c4ccc(O)cc4c3c3c2C(=O)NC3=O)c1

>  <Name>  (365) 
nan

>  <Pocket>  (365) 
nan

>  <ATP_Site>  (365) 
nan

>  <Peripheral>  (365) 
nan

>  <Num_H_Atoms_ProtBoundConf>  (365) 
nan

>  <Num_Resolved_Atoms>  (365) 
nan

>  <Num_Not_Resolved_Atoms>  (365) 
nan

$$$$
CHEMBL1243128
     RDKit          3D

  0  0  0  0  0  0  0  0  0  0999 V3000
M  V30 BEGIN CTAB
M  V30 COUNTS 34 37 0 0 0
M  V30 BEGIN ATOM
M  V30 1 C 0.639687 -4.666847 -2.049943 0
M  V30 2 O 0.922618 -3.576340 -1.195946 0
M  V30 3 C 2.121424 -3.336480 -0.569179 0
M  V30 4 O 2.980888 -4.207847 -0.832345 0
M  V30 5 C 2.328065 -2.176311 0.302940 0
M  V30 6 C 3.574415 -2.018544 0.891969 0
M  V30 7 C 3.898436 -0.961271 1.739143 0
M  V30 8 C 2.914662 -0.006816 2.011087 0
M  V30 9 C 1.666699 -0.165726 1.420655 0
M  V30 10 C 1.365080 -1.227637 0.578963 0
M  V30 11 N 0.096812 -1.136586 0.151414 0
M  V30 12 C -0.474791 -0.024039 0.690501 0
M  V30 13 C 0.497906 0.567122 1.469829 0
M  V30 14 C 0.146257 1.728030 2.126884 0
M  V30 15 C -1.103772 2.301715 2.035993 0
M  V30 16 C -2.006867 1.636407 1.232903 0
M  V30 17 C -3.318481 1.959256 0.946920 0
M  V30 18 C -4.137593 3.077205 1.394129 0
M  V30 19 O -5.333025 3.322812 1.100254 0
M  V30 20 C -3.817364 0.977985 0.084123 0
M  V30 21 N -2.844842 0.086282 -0.149331 0
M  V30 22 C -1.759717 0.472697 0.533585 0
M  V30 23 H 0.303215 -4.308680 -3.052510 0
M  V30 24 H -0.284923 -5.143436 -1.613041 0
M  V30 25 H 1.426870 -5.427249 -2.096407 0
M  V30 26 H 4.381463 -2.716807 0.726753 0
M  V30 27 H 4.883305 -0.871953 2.180468 0
M  V30 28 H 3.101678 0.836790 2.659440 0
M  V30 29 H -0.411462 -1.790700 -0.491583 0
M  V30 30 H 0.902992 2.202129 2.742876 0
M  V30 31 H -1.397349 3.210570 2.543335 0
M  V30 32 H -3.665096 3.802909 2.072205 0
M  V30 33 H -4.772564 0.819996 -0.392628 0
M  V30 34 H -2.826236 -0.782120 -0.735212 0
M  V30 END ATOM
M  V30 BEGIN BOND
M  V30 1 1 1 2
M  V30 2 1 2 3
M  V30 3 2 3 4
M  V30 4 1 3 5
M  V30 5 2 5 6
M  V30 6 1 6 7
M  V30 7 2 7 8
M  V30 8 1 8 9
M  V30 9 2 9 10
M  V30 10 1 10 11
M  V30 11 1 11 12
M  V30 12 2 12 13
M  V30 13 1 13 14
M  V30 14 2 14 15
M  V30 15 1 15 16
M  V30 16 1 16 17
M  V30 17 1 17 18
M  V30 18 2 18 19
M  V30 19 2 17 20
M  V30 20 1 20 21
M  V30 21 1 21 22
M  V30 22 1 10 5
M  V30 23 1 22 12
M  V30 24 1 13 9
M  V30 25 2 22 16
M  V30 26 1 1 23
M  V30 27 1 1 24
M  V30 28 1 1 25
M  V30 29 1 6 26
M  V30 30 1 7 27
M  V30 31 1 8 28
M  V30 32 1 11 29
M  V30 33 1 14 30
M  V30 34 1 15 31
M  V30 35 1 18 32
M  V30 36 1 20 33
M  V30 37 1 21 34
M  V30 END BOND
M  V30 END CTAB
M  END
>  <Dataset>  (366) 
ChEMBL_Kinases

>  <Ligand_Instance>  (366) 
nan

>  <PDB_ID>  (366) 
nan

>  <Standardized_SMILES>  (366) 
COC(=O)c1cccc2c1[nH]c1c2ccc2c(C=O)c[nH]c21

>  <Name>  (366) 
nan

>  <Pocket>  (366) 
nan

>  <ATP_Site>  (366) 
nan

>  <Peripheral>  (366) 
nan

>  <Num_H_Atoms_ProtBoundConf>  (366) 
nan

>  <Num_Resolved_Atoms>  (366) 
nan

>  <Num_Not_Resolved_Atoms>  (366) 
nan

$$$$
CHEMBL2064562
     RDKit          3D

  0  0  0  0  0  0  0  0  0  0999 V3000
M  V30 BEGIN CTAB
M  V30 COUNTS 62 65 0 0 0
M  V30 BEGIN ATOM
M  V30 1 C 3.609423 -1.864188 4.171603 0
M  V30 2 N 2.316849 -1.225543 4.237417 0
M  V30 3 C 1.547991 -1.836946 5.317133 0
M  V30 4 C 1.586944 -1.281149 3.002968 0
M  V30 5 C 2.278940 -0.414850 1.955782 0 CFG=1
M  V30 6 O 1.585267 -0.452936 0.744636 0
M  V30 7 C 2.072064 -0.880054 -0.469568 0
M  V30 8 O 3.287022 -1.271741 -0.431310 0
M  V30 9 N 1.166023 -0.827830 -1.588932 0
M  V30 10 C -0.208025 -0.378871 -1.608831 0
M  V30 11 C -0.858130 -1.379429 -2.456888 0
M  V30 12 C -2.096382 -1.975534 -2.694240 0
M  V30 13 N -3.296015 -1.645136 -1.974808 0
M  V30 14 C -3.864643 -2.175867 -0.772890 0
M  V30 15 O -3.225623 -3.104025 -0.213392 0
M  V30 16 C -5.121895 -1.585100 -0.325232 0
M  V30 17 C -5.860808 -0.586589 -0.889949 0
M  V30 18 C -7.034447 -0.164693 -0.305670 0
M  V30 19 C -7.512390 -0.717910 0.854943 0
M  V30 20 F -8.677200 -0.190125 1.297090 0
M  V30 21 C -6.766536 -1.727017 1.426249 0
M  V30 22 C -5.606962 -2.151558 0.858748 0
M  V30 23 N -1.855718 -2.852070 -3.689173 0
M  V30 24 N -0.584578 -2.805298 -4.038891 0
M  V30 25 C 0.101444 -1.906290 -3.310780 0
M  V30 26 C 1.378947 -1.205657 -2.978374 0
M  V30 27 C 1.506185 -0.043799 -3.904070 0
M  V30 28 C 2.531235 -2.174637 -3.131073 0
M  V30 29 C 2.309939 0.991362 2.462575 0
M  V30 30 C 1.052211 1.595429 2.360037 0
M  V30 31 C 0.898936 2.908400 2.785546 0
M  V30 32 C 1.983123 3.596240 3.301074 0
M  V30 33 C 3.196043 2.989748 3.391596 0
M  V30 34 C 3.392125 1.676316 2.976631 0
M  V30 35 H 4.432700 -1.199168 3.879189 0
M  V30 36 H 3.583591 -2.771482 3.537480 0
M  V30 37 H 3.883685 -2.228808 5.204892 0
M  V30 38 H 0.822347 -1.118523 5.724716 0
M  V30 39 H 2.168599 -2.197110 6.145568 0
M  V30 40 H 1.055186 -2.749247 4.886915 0
M  V30 41 H 1.535552 -2.324967 2.631180 0
M  V30 42 H 0.546196 -0.947740 3.182693 0
M  V30 43 H 3.321320 -0.768502 1.902183 0
M  V30 44 H -0.644929 -0.270626 -0.605754 0
M  V30 45 H -0.220737 0.634634 -2.057960 0
M  V30 46 H -3.682569 -0.879118 -2.569652 0
M  V30 47 H -5.437333 -0.190458 -1.797930 0
M  V30 48 H -7.532224 0.638034 -0.849605 0
M  V30 49 H -7.193975 -2.132721 2.351505 0
M  V30 50 H -5.135884 -2.948381 1.422506 0
M  V30 51 H -0.135573 -3.381660 -4.784642 0
M  V30 52 H 2.594338 -0.009996 -4.208256 0
M  V30 53 H 0.920160 -0.242726 -4.815579 0
M  V30 54 H 1.284477 0.893743 -3.395463 0
M  V30 55 H 3.499049 -1.635377 -3.169901 0
M  V30 56 H 2.405399 -2.747344 -4.075495 0
M  V30 57 H 2.566637 -2.899116 -2.319801 0
M  V30 58 H 0.157457 1.128676 1.971297 0
M  V30 59 H -0.074185 3.403978 2.716577 0
M  V30 60 H 1.859979 4.607005 3.627383 0
M  V30 61 H 4.077346 3.477329 3.784976 0
M  V30 62 H 4.310848 1.104778 3.004731 0
M  V30 END ATOM
M  V30 BEGIN BOND
M  V30 1 1 1 2
M  V30 2 1 2 3
M  V30 3 1 2 4
M  V30 4 1 4 5
M  V30 5 1 5 6
M  V30 6 1 6 7
M  V30 7 2 7 8
M  V30 8 1 7 9
M  V30 9 1 9 10
M  V30 10 1 10 11
M  V30 11 1 11 12
M  V30 12 1 12 13
M  V30 13 1 13 14
M  V30 14 2 14 15
M  V30 15 1 14 16
M  V30 16 2 16 17
M  V30 17 1 17 18
M  V30 18 2 18 19
M  V30 19 1 19 20
M  V30 20 1 19 21
M  V30 21 2 21 22
M  V30 22 2 12 23
M  V30 23 1 23 24
M  V30 24 1 24 25
M  V30 25 1 25 26
M  V30 26 1 26 27
M  V30 27 1 26 28
M  V30 28 1 5 29
M  V30 29 2 29 30
M  V30 30 1 30 31
M  V30 31 2 31 32
M  V30 32 1 32 33
M  V30 33 2 33 34
M  V30 34 1 26 9
M  V30 35 1 34 29
M  V30 36 2 25 11
M  V30 37 1 22 16
M  V30 38 1 1 35
M  V30 39 1 1 36
M  V30 40 1 1 37
M  V30 41 1 3 38
M  V30 42 1 3 39
M  V30 43 1 3 40
M  V30 44 1 4 41
M  V30 45 1 4 42
M  V30 46 1 5 43 CFG=3
M  V30 47 1 10 44
M  V30 48 1 10 45
M  V30 49 1 13 46
M  V30 50 1 17 47
M  V30 51 1 18 48
M  V30 52 1 21 49
M  V30 53 1 22 50
M  V30 54 1 24 51
M  V30 55 1 27 52
M  V30 56 1 27 53
M  V30 57 1 27 54
M  V30 58 1 28 55
M  V30 59 1 28 56
M  V30 60 1 28 57
M  V30 61 1 30 58
M  V30 62 1 31 59
M  V30 63 1 32 60
M  V30 64 1 33 61
M  V30 65 1 34 62
M  V30 END BOND
M  V30 END CTAB
M  END
>  <Dataset>  (367) 
ChEMBL_Kinases

>  <Ligand_Instance>  (367) 
nan

>  <PDB_ID>  (367) 
nan

>  <Standardized_SMILES>  (367) 
CN(C)C[C@@H](OC(=O)N1Cc2c(NC(=O)c3ccc(F)cc3)n[nH]c2C1(C)C)c1ccccc1

>  <Name>  (367) 
nan

>  <Pocket>  (367) 
nan

>  <ATP_Site>  (367) 
nan

>  <Peripheral>  (367) 
nan

>  <Num_H_Atoms_ProtBoundConf>  (367) 
nan

>  <Num_Resolved_Atoms>  (367) 
nan

>  <Num_Not_Resolved_Atoms>  (367) 
nan

$$$$
CHEMBL601834
     RDKit          3D

  0  0  0  0  0  0  0  0  0  0999 V3000
M  V30 BEGIN CTAB
M  V30 COUNTS 47 49 0 0 0
M  V30 BEGIN ATOM
M  V30 1 C -1.286474 -4.796866 1.170660 0
M  V30 2 N -1.567175 -3.520415 0.547136 0
M  V30 3 C -0.432300 -2.861276 -0.005524 0
M  V30 4 C -0.873356 -1.942790 -1.103569 0
M  V30 5 C -1.546832 -0.725811 -0.501610 0
M  V30 6 N -1.171097 -0.667266 0.921876 0
M  V30 7 C -0.093628 0.197009 1.107819 0
M  V30 8 N 0.641251 0.644867 0.077855 0
M  V30 9 C 1.703209 1.449669 0.226708 0
M  V30 10 C 2.372558 1.828150 -1.010812 0
M  V30 11 C 1.918862 1.372879 -2.230680 0
M  V30 12 C 2.525062 1.707726 -3.428149 0
M  V30 13 N 3.601702 2.509012 -3.419006 0
M  V30 14 C 4.095061 2.987402 -2.264976 0
M  V30 15 C 3.478000 2.643330 -1.079333 0
M  V30 16 C 2.124100 1.882188 1.463745 0
M  V30 17 N 1.409580 1.455518 2.547556 0
M  V30 18 C 0.336802 0.636763 2.331930 0
M  V30 19 N -0.269370 0.350383 3.582659 0
M  V30 20 C -1.510127 0.565051 4.353315 0
M  V30 21 C 0.569545 -0.427620 4.511454 0
M  V30 22 C -1.867937 -1.449560 1.877289 0
M  V30 23 C -2.489325 -2.715716 1.265253 0
M  V30 24 H -0.450821 -4.686153 1.884938 0
M  V30 25 H -2.218826 -5.109096 1.696253 0
M  V30 26 H -1.032669 -5.525389 0.381022 0
M  V30 27 H 0.220918 -3.653170 -0.443230 0
M  V30 28 H 0.202559 -2.350540 0.745658 0
M  V30 29 H 0.012280 -1.649292 -1.715003 0
M  V30 30 H -1.603706 -2.490374 -1.721324 0
M  V30 31 H -1.234754 0.199778 -1.036505 0
M  V30 32 H -2.636796 -0.839948 -0.621041 0
M  V30 33 H 1.045367 0.718122 -2.286265 0
M  V30 34 H 2.164998 1.346325 -4.397027 0
M  V30 35 H 4.965091 3.632313 -2.284652 0
M  V30 36 H 3.891360 3.038156 -0.172691 0
M  V30 37 H 2.981784 2.529461 1.561662 0
M  V30 38 H -1.305721 1.168745 5.256454 0
M  V30 39 H -1.988102 -0.405492 4.587311 0
M  V30 40 H -2.243911 1.131763 3.743873 0
M  V30 41 H 0.078881 -1.362201 4.830184 0
M  V30 42 H 0.780083 0.216206 5.405990 0
M  V30 43 H 1.541919 -0.691903 4.099695 0
M  V30 44 H -2.756334 -0.897369 2.240907 0
M  V30 45 H -1.262196 -1.762941 2.745735 0
M  V30 46 H -2.953490 -3.264308 2.107276 0
M  V30 47 H -3.275936 -2.359592 0.570777 0
M  V30 END ATOM
M  V30 BEGIN BOND
M  V30 1 1 1 2
M  V30 2 1 2 3
M  V30 3 1 3 4
M  V30 4 1 4 5
M  V30 5 1 5 6
M  V30 6 1 6 7
M  V30 7 2 7 8
M  V30 8 1 8 9
M  V30 9 1 9 10
M  V30 10 2 10 11
M  V30 11 1 11 12
M  V30 12 2 12 13
M  V30 13 1 13 14
M  V30 14 2 14 15
M  V30 15 2 9 16
M  V30 16 1 16 17
M  V30 17 2 17 18
M  V30 18 1 18 19
M  V30 19 1 19 20
M  V30 20 1 19 21
M  V30 21 1 6 22
M  V30 22 1 22 23
M  V30 23 1 23 2
M  V30 24 1 18 7
M  V30 25 1 15 10
M  V30 26 1 1 24
M  V30 27 1 1 25
M  V30 28 1 1 26
M  V30 29 1 3 27
M  V30 30 1 3 28
M  V30 31 1 4 29
M  V30 32 1 4 30
M  V30 33 1 5 31
M  V30 34 1 5 32
M  V30 35 1 11 33
M  V30 36 1 12 34
M  V30 37 1 14 35
M  V30 38 1 15 36
M  V30 39 1 16 37
M  V30 40 1 20 38
M  V30 41 1 20 39
M  V30 42 1 20 40
M  V30 43 1 21 41
M  V30 44 1 21 42
M  V30 45 1 21 43
M  V30 46 1 22 44
M  V30 47 1 22 45
M  V30 48 1 23 46
M  V30 49 1 23 47
M  V30 END BOND
M  V30 END CTAB
M  END
>  <Dataset>  (368) 
ChEMBL_Kinases

>  <Ligand_Instance>  (368) 
nan

>  <PDB_ID>  (368) 
nan

>  <Standardized_SMILES>  (368) 
CN1CCCN(c2nc(-c3ccncc3)cnc2N(C)C)CC1

>  <Name>  (368) 
nan

>  <Pocket>  (368) 
nan

>  <ATP_Site>  (368) 
nan

>  <Peripheral>  (368) 
nan

>  <Num_H_Atoms_ProtBoundConf>  (368) 
nan

>  <Num_Resolved_Atoms>  (368) 
nan

>  <Num_Not_Resolved_Atoms>  (368) 
nan

$$$$
CHEMBL1094904
     RDKit          3D

  0  0  0  0  0  0  0  0  0  0999 V3000
M  V30 BEGIN CTAB
M  V30 COUNTS 66 70 0 0 0
M  V30 BEGIN ATOM
M  V30 1 C 1.859649 -0.002620 5.946966 0
M  V30 2 C 2.905026 -0.786408 5.223824 0
M  V30 3 N 2.763359 -0.667087 3.782987 0
M  V30 4 C 3.339042 0.267407 2.990347 0
M  V30 5 C 2.905321 -0.033235 1.694797 0
M  V30 6 C 3.258703 0.691617 0.502251 0
M  V30 7 C 4.417096 0.353617 -0.190896 0
M  V30 8 C 4.707463 1.090719 -1.339511 0
M  V30 9 N 3.924969 2.090939 -1.786507 0
M  V30 10 C 2.793703 2.435634 -1.126206 0
M  V30 11 N 1.837870 3.379881 -1.342801 0
M  V30 12 C 0.899492 3.316258 -0.381244 0
M  V30 13 C -0.328769 4.105250 -0.157132 0
M  V30 14 N -0.216762 5.253620 0.625849 0
M  V30 15 C -1.284495 6.087986 0.913308 0
M  V30 16 C -2.378007 5.597385 1.788300 0
M  V30 17 O -3.041477 4.481464 1.323277 0
M  V30 18 C 1.270277 2.288525 0.486799 0
M  V30 19 C 2.448404 1.732148 0.033959 0
M  V30 20 C 2.098626 -1.121934 1.767656 0
M  V30 21 C 1.389772 -1.843586 0.716774 0
M  V30 22 C 0.409446 -1.375997 -0.124605 0
M  V30 23 C -0.171684 -2.169852 -1.067888 0
M  V30 24 C 0.222429 -3.500489 -1.203182 0
M  V30 25 N -0.478242 -4.213472 -2.238639 0
M  V30 26 C -1.655646 -4.810175 -1.707763 0
M  V30 27 O -1.869483 -4.621827 -0.484224 0
M  V30 28 N -2.549346 -5.585698 -2.528197 0
M  V30 29 C -3.740372 -6.196818 -2.030917 0
M  V30 30 C -3.974205 -7.444302 -1.490051 0
M  V30 31 C -5.253793 -7.759268 -1.089117 0
M  V30 32 C -6.306547 -6.885007 -1.205004 0
M  V30 33 C -6.086436 -5.621824 -1.748953 0
M  V30 34 C -4.805337 -5.296493 -2.153945 0
M  V30 35 C 1.207608 -4.004852 -0.372053 0
M  V30 36 C 1.775664 -3.169782 0.574145 0
M  V30 37 N 2.025112 -1.494867 3.059434 0
M  V30 38 H 0.967275 0.248722 5.370211 0
M  V30 39 H 1.492913 -0.638736 6.802652 0
M  V30 40 H 2.307683 0.894315 6.454323 0
M  V30 41 H 3.903062 -0.378218 5.489210 0
M  V30 42 H 2.898556 -1.862589 5.538391 0
M  V30 43 H 3.993296 1.070166 3.304609 0
M  V30 44 H 5.041608 -0.441839 0.163463 0
M  V30 45 H 5.629695 0.779491 -1.842711 0
M  V30 46 H 1.802452 4.065800 -2.120777 0
M  V30 47 H -0.649628 4.465136 -1.183265 0
M  V30 48 H -1.167237 3.408025 0.110989 0
M  V30 49 H 0.690042 5.716164 0.446047 0
M  V30 50 H -1.741832 6.415412 -0.048784 0
M  V30 51 H -0.889973 7.023543 1.371016 0
M  V30 52 H -1.999846 5.381654 2.809050 0
M  V30 53 H -3.146450 6.389243 1.914596 0
M  V30 54 H -4.017920 4.489098 1.458958 0
M  V30 55 H 0.772423 1.948546 1.362177 0
M  V30 56 H 0.146342 -0.342232 0.026882 0
M  V30 57 H -0.927997 -1.727869 -1.683095 0
M  V30 58 H -0.235941 -4.335827 -3.266298 0
M  V30 59 H -2.265473 -5.675062 -3.535183 0
M  V30 60 H -3.062678 -8.023587 -1.459073 0
M  V30 61 H -5.343997 -8.761506 -0.676895 0
M  V30 62 H -7.238220 -7.299907 -0.840332 0
M  V30 63 H -6.945918 -4.990511 -1.810835 0
M  V30 64 H -4.779762 -4.282194 -2.558708 0
M  V30 65 H 1.460186 -5.041913 -0.535262 0
M  V30 66 H 2.545685 -3.634481 1.194041 0
M  V30 END ATOM
M  V30 BEGIN BOND
M  V30 1 1 1 2
M  V30 2 1 2 3
M  V30 3 1 3 4
M  V30 4 2 4 5
M  V30 5 1 5 6
M  V30 6 2 6 7
M  V30 7 1 7 8
M  V30 8 2 8 9
M  V30 9 1 9 10
M  V30 10 1 10 11
M  V30 11 1 11 12
M  V30 12 1 12 13
M  V30 13 1 13 14
M  V30 14 1 14 15
M  V30 15 1 15 16
M  V30 16 1 16 17
M  V30 17 2 12 18
M  V30 18 1 18 19
M  V30 19 1 5 20
M  V30 20 1 20 21
M  V30 21 2 21 22
M  V30 22 1 22 23
M  V30 23 2 23 24
M  V30 24 1 24 25
M  V30 25 1 25 26
M  V30 26 2 26 27
M  V30 27 1 26 28
M  V30 28 1 28 29
M  V30 29 2 29 30
M  V30 30 1 30 31
M  V30 31 2 31 32
M  V30 32 1 32 33
M  V30 33 2 33 34
M  V30 34 1 24 35
M  V30 35 2 35 36
M  V30 36 2 20 37
M  V30 37 1 37 3
M  V30 38 1 19 6
M  V30 39 1 36 21
M  V30 40 2 19 10
M  V30 41 1 34 29
M  V30 42 1 1 38
M  V30 43 1 1 39
M  V30 44 1 1 40
M  V30 45 1 2 41
M  V30 46 1 2 42
M  V30 47 1 4 43
M  V30 48 1 7 44
M  V30 49 1 8 45
M  V30 50 1 11 46
M  V30 51 1 13 47
M  V30 52 1 13 48
M  V30 53 1 14 49
M  V30 54 1 15 50
M  V30 55 1 15 51
M  V30 56 1 16 52
M  V30 57 1 16 53
M  V30 58 1 17 54
M  V30 59 1 18 55
M  V30 60 1 22 56
M  V30 61 1 23 57
M  V30 62 1 25 58
M  V30 63 1 28 59
M  V30 64 1 30 60
M  V30 65 1 31 61
M  V30 66 1 32 62
M  V30 67 1 33 63
M  V30 68 1 34 64
M  V30 69 1 35 65
M  V30 70 1 36 66
M  V30 END BOND
M  V30 END CTAB
M  END
>  <Dataset>  (369) 
ChEMBL_Kinases

>  <Ligand_Instance>  (369) 
nan

>  <PDB_ID>  (369) 
nan

>  <Standardized_SMILES>  (369) 
CCn1cc(-c2ccnc3[nH]c(CNCCO)cc23)c(-c2ccc(NC(=O)Nc3ccccc3)cc2)n1

>  <Name>  (369) 
nan

>  <Pocket>  (369) 
nan

>  <ATP_Site>  (369) 
nan

>  <Peripheral>  (369) 
nan

>  <Num_H_Atoms_ProtBoundConf>  (369) 
nan

>  <Num_Resolved_Atoms>  (369) 
nan

>  <Num_Not_Resolved_Atoms>  (369) 
nan

$$$$
CHEMBL601757
     RDKit          3D

  0  0  0  0  0  0  0  0  0  0999 V3000
M  V30 BEGIN CTAB
M  V30 COUNTS 24 25 0 0 0
M  V30 BEGIN ATOM
M  V30 1 C -0.193125 -1.483888 4.358916 0
M  V30 2 C 0.229269 -0.769488 3.107836 0
M  V30 3 N -0.136019 -1.299448 1.925873 0
M  V30 4 C 0.187127 -0.744337 0.748732 0
M  V30 5 C -0.170269 -1.260146 -0.476641 0
M  V30 6 O -0.834655 -2.310323 -0.403430 0
M  V30 7 N 0.215522 -0.608853 -1.587105 0
M  V30 8 C -0.210908 -1.232760 -2.831317 0
M  V30 9 C 0.939418 0.530426 -1.538915 0
M  V30 10 O 1.267999 1.090684 -2.627589 0
M  V30 11 N 1.307110 1.063941 -0.351619 0
M  V30 12 C 0.974693 0.494414 0.820005 0
M  V30 13 N 1.322326 0.995477 2.029176 0
M  V30 14 C 2.097322 2.216224 2.052525 0
M  V30 15 N 0.948844 0.363968 3.130549 0
M  V30 16 H 0.613497 -2.142311 4.751574 0
M  V30 17 H -0.444498 -0.733068 5.148566 0
M  V30 18 H -1.131719 -2.050152 4.191403 0
M  V30 19 H 0.006186 -2.317000 -2.843771 0
M  V30 20 H 0.301588 -0.768030 -3.703870 0
M  V30 21 H -1.320292 -1.054173 -2.934166 0
M  V30 22 H 1.419893 3.078847 2.032841 0
M  V30 23 H 2.756311 2.301500 1.172508 0
M  V30 24 H 2.706518 2.230243 2.981929 0
M  V30 END ATOM
M  V30 BEGIN BOND
M  V30 1 1 1 2
M  V30 2 1 2 3
M  V30 3 2 3 4
M  V30 4 1 4 5
M  V30 5 2 5 6
M  V30 6 1 5 7
M  V30 7 1 7 8
M  V30 8 1 7 9
M  V30 9 2 9 10
M  V30 10 1 9 11
M  V30 11 2 11 12
M  V30 12 1 12 13
M  V30 13 1 13 14
M  V30 14 1 13 15
M  V30 15 2 15 2
M  V30 16 1 12 4
M  V30 17 1 1 16
M  V30 18 1 1 17
M  V30 19 1 1 18
M  V30 20 1 8 19
M  V30 21 1 8 20
M  V30 22 1 8 21
M  V30 23 1 14 22
M  V30 24 1 14 23
M  V30 25 1 14 24
M  V30 END BOND
M  V30 END CTAB
M  END
>  <Dataset>  (370) 
ChEMBL_Kinases

>  <Ligand_Instance>  (370) 
nan

>  <PDB_ID>  (370) 
nan

>  <Standardized_SMILES>  (370) 
Cc1nc2c(=O)n(C)c(=O)nc-2n(C)n1

>  <Name>  (370) 
nan

>  <Pocket>  (370) 
nan

>  <ATP_Site>  (370) 
nan

>  <Peripheral>  (370) 
nan

>  <Num_H_Atoms_ProtBoundConf>  (370) 
nan

>  <Num_Resolved_Atoms>  (370) 
nan

>  <Num_Not_Resolved_Atoms>  (370) 
nan

$$$$
CHEMBL86257
     RDKit          3D

  0  0  0  0  0  0  0  0  0  0999 V3000
M  V30 BEGIN CTAB
M  V30 COUNTS 28 29 0 0 0
M  V30 BEGIN ATOM
M  V30 1 C -1.485041 -3.316706 4.165238 0
M  V30 2 C -0.000013 -3.112277 4.358901 0
M  V30 3 O 0.660435 -3.054801 3.115651 0
M  V30 4 C 0.327960 -2.064837 2.208631 0
M  V30 5 C 1.072687 -2.162740 1.036265 0
M  V30 6 C 0.932169 -1.295518 -0.024923 0
M  V30 7 C 0.014113 -0.263855 0.043810 0
M  V30 8 C -0.264484 0.737931 -0.975895 0
M  V30 9 C 0.715938 1.224283 -1.710722 0
M  V30 10 S 2.491275 0.854419 -1.693605 0
M  V30 11 C 2.977071 2.299913 -2.638629 0
M  V30 12 O 4.129637 2.743515 -2.719954 0
M  V30 13 N 1.779555 2.782122 -3.236709 0
M  V30 14 C 0.569519 2.227059 -2.761250 0
M  V30 15 O -0.558405 2.572003 -3.211041 0
M  V30 16 C -0.721582 -0.168637 1.204625 0
M  V30 17 C -0.585814 -1.033081 2.270096 0
M  V30 18 H -1.789759 -3.301844 3.100651 0
M  V30 19 H -1.798252 -4.334544 4.549177 0
M  V30 20 H -2.108411 -2.583665 4.707431 0
M  V30 21 H 0.094347 -2.083447 4.815917 0
M  V30 22 H 0.459779 -3.792472 5.078432 0
M  V30 23 H 1.836322 -2.930134 0.843386 0
M  V30 24 H 1.497358 -1.356654 -0.936345 0
M  V30 25 H -1.287334 1.079874 -1.124241 0
M  V30 26 H 1.856014 3.508443 -3.983732 0
M  V30 27 H -1.484298 0.584535 1.419417 0
M  V30 28 H -1.125182 -1.011870 3.202028 0
M  V30 END ATOM
M  V30 BEGIN BOND
M  V30 1 1 1 2
M  V30 2 1 2 3
M  V30 3 1 3 4
M  V30 4 2 4 5
M  V30 5 1 5 6
M  V30 6 2 6 7
M  V30 7 1 7 8
M  V30 8 2 8 9
M  V30 9 1 9 10
M  V30 10 1 10 11
M  V30 11 2 11 12
M  V30 12 1 11 13
M  V30 13 1 13 14
M  V30 14 2 14 15
M  V30 15 1 7 16
M  V30 16 2 16 17
M  V30 17 1 17 4
M  V30 18 1 14 9
M  V30 19 1 1 18
M  V30 20 1 1 19
M  V30 21 1 1 20
M  V30 22 1 2 21
M  V30 23 1 2 22
M  V30 24 1 5 23
M  V30 25 1 6 24
M  V30 26 1 8 25
M  V30 27 1 13 26
M  V30 28 1 16 27
M  V30 29 1 17 28
M  V30 END BOND
M  V30 END CTAB
M  END
>  <Dataset>  (371) 
ChEMBL_Kinases

>  <Ligand_Instance>  (371) 
nan

>  <PDB_ID>  (371) 
nan

>  <Standardized_SMILES>  (371) 
CCOc1ccc(/C=C2\SC(=O)NC2=O)cc1

>  <Name>  (371) 
nan

>  <Pocket>  (371) 
nan

>  <ATP_Site>  (371) 
nan

>  <Peripheral>  (371) 
nan

>  <Num_H_Atoms_ProtBoundConf>  (371) 
nan

>  <Num_Resolved_Atoms>  (371) 
nan

>  <Num_Not_Resolved_Atoms>  (371) 
nan

$$$$
CHEMBL1083786
     RDKit          3D

  0  0  0  0  0  0  0  0  0  0999 V3000
M  V30 BEGIN CTAB
M  V30 COUNTS 53 56 0 0 0
M  V30 BEGIN ATOM
M  V30 1 C 2.048081 -5.722885 1.120320 0
M  V30 2 C 2.993848 -5.298038 0.045100 0
M  V30 3 O 3.119939 -6.009523 -0.988196 0
M  V30 4 N 3.739023 -4.090206 0.209371 0
M  V30 5 C 3.579496 -3.291175 1.398615 0
M  V30 6 C 4.173938 -1.921620 1.111118 0
M  V30 7 N 3.703356 -1.534135 -0.201723 0
M  V30 8 C 2.647729 -0.631363 -0.484713 0
M  V30 9 C 1.877489 -0.045976 0.488769 0
M  V30 10 C 0.853543 0.832191 0.195006 0
M  V30 11 C 0.556218 1.163835 -1.109935 0
M  V30 12 N -0.497756 2.065737 -1.426371 0
M  V30 13 C -1.222227 2.608129 -0.324667 0
M  V30 14 N -0.915197 3.748861 0.300336 0
M  V30 15 C -1.644334 4.186070 1.324234 0
M  V30 16 C -2.716819 3.408794 1.697867 0
M  V30 17 C -3.093403 2.233692 1.109901 0
M  V30 18 C -4.202642 1.362074 1.440185 0
M  V30 19 S -4.503417 -0.150674 0.531828 0
M  V30 20 C -6.002766 -0.637670 1.516703 0
M  V30 21 C -6.839879 -1.864340 1.319920 0
M  V30 22 N -6.078245 0.327471 2.339722 0
M  V30 23 C -5.218565 1.314293 2.327964 0
M  V30 24 C -5.375579 2.415815 3.328363 0
M  V30 25 N -2.274531 1.883145 0.072057 0
M  V30 26 C 1.336026 0.572083 -2.108272 0
M  V30 27 C 2.351804 -0.300952 -1.785091 0
M  V30 28 C 4.483981 -2.225280 -1.196267 0
M  V30 29 C 4.654558 -3.691836 -0.846843 0
M  V30 30 H 2.553278 -5.696755 2.111988 0
M  V30 31 H 1.643272 -6.727183 0.887523 0
M  V30 32 H 1.237951 -4.976616 1.137623 0
M  V30 33 H 2.510588 -3.128200 1.632047 0
M  V30 34 H 4.059194 -3.806172 2.252300 0
M  V30 35 H 3.758937 -1.210760 1.846174 0
M  V30 36 H 5.276980 -2.009007 1.183337 0
M  V30 37 H 2.030808 -0.242478 1.537921 0
M  V30 38 H 0.256926 1.283890 0.982677 0
M  V30 39 H -0.684591 2.280448 -2.424772 0
M  V30 40 H -1.434466 5.100961 1.859060 0
M  V30 41 H -3.307565 3.737298 2.507705 0
M  V30 42 H -6.728373 -2.604303 2.111352 0
M  V30 43 H -7.909480 -1.575561 1.163009 0
M  V30 44 H -6.557648 -2.373525 0.358827 0
M  V30 45 H -5.600146 3.375421 2.812680 0
M  V30 46 H -6.268306 2.274654 4.001952 0
M  V30 47 H -4.533432 2.469025 4.048546 0
M  V30 48 H 1.062471 0.864016 -3.102913 0
M  V30 49 H 2.848845 -0.663204 -2.642443 0
M  V30 50 H 5.511357 -1.756867 -1.159282 0
M  V30 51 H 4.150800 -2.130989 -2.222543 0
M  V30 52 H 5.679406 -3.898829 -0.476468 0
M  V30 53 H 4.495596 -4.305764 -1.743996 0
M  V30 END ATOM
M  V30 BEGIN BOND
M  V30 1 1 1 2
M  V30 2 2 2 3
M  V30 3 1 2 4
M  V30 4 1 4 5
M  V30 5 1 5 6
M  V30 6 1 6 7
M  V30 7 1 7 8
M  V30 8 2 8 9
M  V30 9 1 9 10
M  V30 10 2 10 11
M  V30 11 1 11 12
M  V30 12 1 12 13
M  V30 13 2 13 14
M  V30 14 1 14 15
M  V30 15 2 15 16
M  V30 16 1 16 17
M  V30 17 1 17 18
M  V30 18 1 18 19
M  V30 19 1 19 20
M  V30 20 1 20 21
M  V30 21 2 20 22
M  V30 22 1 22 23
M  V30 23 1 23 24
M  V30 24 2 17 25
M  V30 25 1 11 26
M  V30 26 2 26 27
M  V30 27 1 7 28
M  V30 28 1 28 29
M  V30 29 1 29 4
M  V30 30 1 27 8
M  V30 31 1 25 13
M  V30 32 2 23 18
M  V30 33 1 1 30
M  V30 34 1 1 31
M  V30 35 1 1 32
M  V30 36 1 5 33
M  V30 37 1 5 34
M  V30 38 1 6 35
M  V30 39 1 6 36
M  V30 40 1 9 37
M  V30 41 1 10 38
M  V30 42 1 12 39
M  V30 43 1 15 40
M  V30 44 1 16 41
M  V30 45 1 21 42
M  V30 46 1 21 43
M  V30 47 1 21 44
M  V30 48 1 24 45
M  V30 49 1 24 46
M  V30 50 1 24 47
M  V30 51 1 26 48
M  V30 52 1 27 49
M  V30 53 1 28 50
M  V30 54 1 28 51
M  V30 55 1 29 52
M  V30 56 1 29 53
M  V30 END BOND
M  V30 END CTAB
M  END
>  <Dataset>  (372) 
ChEMBL_Kinases

>  <Ligand_Instance>  (372) 
nan

>  <PDB_ID>  (372) 
nan

>  <Standardized_SMILES>  (372) 
CC(=O)N1CCN(c2ccc(Nc3nccc(-c4sc(C)nc4C)n3)cc2)CC1

>  <Name>  (372) 
nan

>  <Pocket>  (372) 
nan

>  <ATP_Site>  (372) 
nan

>  <Peripheral>  (372) 
nan

>  <Num_H_Atoms_ProtBoundConf>  (372) 
nan

>  <Num_Resolved_Atoms>  (372) 
nan

>  <Num_Not_Resolved_Atoms>  (372) 
nan

$$$$
CHEMBL208447
     RDKit          3D

  0  0  0  0  0  0  0  0  0  0999 V3000
M  V30 BEGIN CTAB
M  V30 COUNTS 41 42 0 0 0
M  V30 BEGIN ATOM
M  V30 1 C -0.322023 -5.246117 4.747747 0
M  V30 2 C -0.494362 -4.063210 3.811454 0
M  V30 3 O -0.684617 -4.577775 2.499708 0
M  V30 4 C -0.875046 -3.786999 1.386276 0
M  V30 5 N -0.894231 -2.434480 1.468567 0
M  V30 6 C -1.083004 -1.696546 0.357785 0
M  V30 7 N -1.119585 -0.271700 0.338375 0
M  V30 8 C 0.030627 0.544480 0.147034 0
M  V30 9 O 1.165256 0.003341 -0.018055 0
M  V30 10 C -0.316920 1.983383 0.175228 0
M  V30 11 C 0.873253 2.851158 -0.023184 0
M  V30 12 C 1.277423 3.256192 -1.287157 0
M  V30 13 C 2.399257 4.071123 -1.441533 0
M  V30 14 C 3.137627 4.498357 -0.359710 0
M  V30 15 C 2.743150 4.099754 0.909543 0
M  V30 16 C 3.555306 4.574388 2.048458 0
M  V30 17 C 1.629597 3.292549 1.044242 0
M  V30 18 C -1.259375 -2.295369 -0.876843 0
M  V30 19 C -1.241672 -3.689212 -0.975048 0
M  V30 20 N -1.417385 -4.375983 -2.218875 0
M  V30 21 C -1.046876 -4.422477 0.175484 0
M  V30 22 C -1.028188 -5.872105 0.075147 0
M  V30 23 N -0.999089 -7.031365 -0.013606 0
M  V30 24 H -1.341729 -5.575168 5.029577 0
M  V30 25 H 0.272833 -5.012538 5.639960 0
M  V30 26 H 0.150305 -6.067971 4.150967 0
M  V30 27 H -1.378905 -3.444520 4.073972 0
M  V30 28 H 0.442684 -3.447814 3.837916 0
M  V30 29 H -2.101694 0.031732 0.484170 0
M  V30 30 H -0.816606 2.280235 1.140904 0
M  V30 31 H -1.110314 2.149167 -0.592567 0
M  V30 32 H 0.705655 2.926188 -2.133907 0
M  V30 33 H 2.720105 4.390701 -2.423682 0
M  V30 34 H 4.010635 5.134634 -0.502663 0
M  V30 35 H 3.529730 5.695820 2.029010 0
M  V30 36 H 4.578151 4.211950 1.921521 0
M  V30 37 H 3.054143 4.220611 2.979915 0
M  V30 38 H 1.384088 3.023464 2.061985 0
M  V30 39 H -1.416869 -1.798945 -1.821775 0
M  V30 40 H -0.715893 -4.741868 -2.894022 0
M  V30 41 H -2.442608 -4.483113 -2.397234 0
M  V30 END ATOM
M  V30 BEGIN BOND
M  V30 1 1 1 2
M  V30 2 1 2 3
M  V30 3 1 3 4
M  V30 4 2 4 5
M  V30 5 1 5 6
M  V30 6 1 6 7
M  V30 7 1 7 8
M  V30 8 2 8 9
M  V30 9 1 8 10
M  V30 10 1 10 11
M  V30 11 2 11 12
M  V30 12 1 12 13
M  V30 13 2 13 14
M  V30 14 1 14 15
M  V30 15 1 15 16
M  V30 16 2 15 17
M  V30 17 2 6 18
M  V30 18 1 18 19
M  V30 19 1 19 20
M  V30 20 2 19 21
M  V30 21 1 21 22
M  V30 22 3 22 23
M  V30 23 1 21 4
M  V30 24 1 17 11
M  V30 25 1 1 24
M  V30 26 1 1 25
M  V30 27 1 1 26
M  V30 28 1 2 27
M  V30 29 1 2 28
M  V30 30 1 7 29
M  V30 31 1 10 30
M  V30 32 1 10 31
M  V30 33 1 12 32
M  V30 34 1 13 33
M  V30 35 1 14 34
M  V30 36 1 16 35
M  V30 37 1 16 36
M  V30 38 1 16 37
M  V30 39 1 17 38
M  V30 40 1 18 39
M  V30 41 1 20 40
M  V30 42 1 20 41
M  V30 END BOND
M  V30 END CTAB
M  END
>  <Dataset>  (373) 
ChEMBL_Kinases

>  <Ligand_Instance>  (373) 
nan

>  <PDB_ID>  (373) 
nan

>  <Standardized_SMILES>  (373) 
CCOc1nc(NC(=O)Cc2cccc(C)c2)cc(N)c1C#N

>  <Name>  (373) 
nan

>  <Pocket>  (373) 
nan

>  <ATP_Site>  (373) 
nan

>  <Peripheral>  (373) 
nan

>  <Num_H_Atoms_ProtBoundConf>  (373) 
nan

>  <Num_Resolved_Atoms>  (373) 
nan

>  <Num_Not_Resolved_Atoms>  (373) 
nan

$$$$
CHEMBL4634210
     RDKit          3D

  0  0  0  0  0  0  0  0  0  0999 V3000
M  V30 BEGIN CTAB
M  V30 COUNTS 25 27 0 0 0
M  V30 BEGIN ATOM
M  V30 1 N -0.597585 -5.088777 4.872146 0
M  V30 2 C -0.340476 -4.367832 4.005192 0
M  V30 3 C 0.002044 -3.462370 2.934762 0
M  V30 4 C 0.702890 -3.965443 1.862059 0
M  V30 5 C 1.047763 -3.114963 0.813311 0
M  V30 6 C 0.651998 -1.786976 0.923841 0
M  V30 7 N 0.870820 -0.806829 0.049440 0
M  V30 8 C 0.322360 0.338016 0.532562 0
M  V30 9 C 0.300512 1.689394 -0.067634 0
M  V30 10 C -0.305817 2.760700 0.558643 0
M  V30 11 C -0.296908 4.016296 -0.053656 0
M  V30 12 N 0.307824 4.154568 -1.250754 0
M  V30 13 C 0.896400 3.104920 -1.854090 0
M  V30 14 C 0.929231 1.817997 -1.305023 0
M  V30 15 N -0.239644 0.049963 1.720773 0
M  V30 16 C -0.047992 -1.274426 1.990446 0
M  V30 17 C -0.388966 -2.122998 3.030997 0
M  V30 18 H 1.006985 -4.995156 1.781544 0
M  V30 19 H 1.595833 -3.471916 -0.042855 0
M  V30 20 H 1.371981 -0.847014 -0.869203 0
M  V30 21 H -0.783309 2.597153 1.529650 0
M  V30 22 H -0.786031 4.833443 0.473904 0
M  V30 23 H 1.383698 3.232315 -2.826298 0
M  V30 24 H 1.414812 1.040113 -1.844555 0
M  V30 25 H -0.932976 -1.734813 3.864760 0
M  V30 END ATOM
M  V30 BEGIN BOND
M  V30 1 3 1 2
M  V30 2 1 2 3
M  V30 3 2 3 4
M  V30 4 1 4 5
M  V30 5 2 5 6
M  V30 6 1 6 7
M  V30 7 1 7 8
M  V30 8 1 8 9
M  V30 9 2 9 10
M  V30 10 1 10 11
M  V30 11 2 11 12
M  V30 12 1 12 13
M  V30 13 2 13 14
M  V30 14 2 8 15
M  V30 15 1 15 16
M  V30 16 2 16 17
M  V30 17 1 17 3
M  V30 18 1 16 6
M  V30 19 1 14 9
M  V30 20 1 4 18
M  V30 21 1 5 19
M  V30 22 1 7 20
M  V30 23 1 10 21
M  V30 24 1 11 22
M  V30 25 1 13 23
M  V30 26 1 14 24
M  V30 27 1 17 25
M  V30 END BOND
M  V30 END CTAB
M  END
>  <Dataset>  (374) 
ChEMBL_Kinases

>  <Ligand_Instance>  (374) 
nan

>  <PDB_ID>  (374) 
nan

>  <Standardized_SMILES>  (374) 
N#Cc1ccc2[nH]c(-c3ccncc3)nc2c1

>  <Name>  (374) 
nan

>  <Pocket>  (374) 
nan

>  <ATP_Site>  (374) 
nan

>  <Peripheral>  (374) 
nan

>  <Num_H_Atoms_ProtBoundConf>  (374) 
nan

>  <Num_Resolved_Atoms>  (374) 
nan

>  <Num_Not_Resolved_Atoms>  (374) 
nan

$$$$
CHEMBL2087984
     RDKit          3D

  0  0  0  0  0  0  0  0  0  0999 V3000
M  V30 BEGIN CTAB
M  V30 COUNTS 47 51 0 0 0
M  V30 BEGIN ATOM
M  V30 1 C 1.769268 -2.297619 3.856895 0
M  V30 2 C 1.454712 -2.547460 2.405292 0
M  V30 3 C 1.733451 -3.710216 1.717471 0
M  V30 4 C 1.377367 -3.786049 0.371693 0
M  V30 5 C 0.756992 -2.709808 -0.251053 0
M  V30 6 C 0.510730 -1.577529 0.505988 0
M  V30 7 C -0.152698 -0.457601 -0.202574 0
M  V30 8 N 0.638980 0.597517 -0.230686 0
M  V30 9 C 0.184744 1.659790 -0.823529 0
M  V30 10 N 0.615229 2.972832 -1.109886 0
M  V30 11 C 1.904077 3.411956 -0.690889 0
M  V30 12 C 2.134907 3.386384 0.755907 0
M  V30 13 C 1.755361 4.557113 1.424216 0
M  V30 14 C 1.894277 4.732140 2.774017 0
M  V30 15 F 1.532010 5.854315 3.426771 0
M  V30 16 C 2.435338 3.719676 3.555270 0
M  V30 17 C 2.811872 2.563300 2.905547 0
M  V30 18 F 3.348580 1.531274 3.606560 0
M  V30 19 C 2.669095 2.389938 1.535644 0
M  V30 20 S -1.545330 1.173369 -1.426356 0
M  V30 21 C -1.446527 -0.461995 -0.784665 0
M  V30 22 C -2.250963 -1.678152 -0.704390 0
M  V30 23 C -2.648966 -2.321324 -1.871019 0
M  V30 24 C -3.415443 -3.480423 -1.742457 0
M  V30 25 C -3.746357 -3.940632 -0.486098 0
M  V30 26 N -4.463464 -5.016939 -0.103818 0
M  V30 27 C -4.502374 -5.030620 1.253673 0
M  V30 28 N -3.798346 -3.947673 1.667042 0
M  V30 29 N -3.338257 -3.284285 0.614806 0
M  V30 30 C -2.594488 -2.158236 0.528001 0
M  V30 31 N 0.859551 -1.515017 1.807274 0
M  V30 32 H 2.453862 -3.080957 4.211644 0
M  V30 33 H 0.801340 -2.322663 4.426159 0
M  V30 34 H 2.243439 -1.304554 3.934053 0
M  V30 35 H 2.217457 -4.492883 2.284206 0
M  V30 36 H 1.607731 -4.716421 -0.152606 0
M  V30 37 H 0.500341 -2.820100 -1.300524 0
M  V30 38 H 0.043792 3.663386 -1.618899 0
M  V30 39 H 2.656771 2.706204 -1.155187 0
M  V30 40 H 2.176630 4.414049 -1.082328 0
M  V30 41 H 1.315349 5.430435 0.920661 0
M  V30 42 H 2.553217 3.835884 4.612940 0
M  V30 43 H 2.954403 1.509687 1.012945 0
M  V30 44 H -2.356505 -1.909073 -2.818126 0
M  V30 45 H -3.729126 -3.986300 -2.630357 0
M  V30 46 H -5.027983 -5.812218 1.755755 0
M  V30 47 H -2.303961 -1.686772 1.436610 0
M  V30 END ATOM
M  V30 BEGIN BOND
M  V30 1 1 1 2
M  V30 2 2 2 3
M  V30 3 1 3 4
M  V30 4 2 4 5
M  V30 5 1 5 6
M  V30 6 1 6 7
M  V30 7 1 7 8
M  V30 8 2 8 9
M  V30 9 1 9 10
M  V30 10 1 10 11
M  V30 11 1 11 12
M  V30 12 2 12 13
M  V30 13 1 13 14
M  V30 14 1 14 15
M  V30 15 2 14 16
M  V30 16 1 16 17
M  V30 17 1 17 18
M  V30 18 2 17 19
M  V30 19 1 9 20
M  V30 20 1 20 21
M  V30 21 1 21 22
M  V30 22 1 22 23
M  V30 23 2 23 24
M  V30 24 1 24 25
M  V30 25 2 25 26
M  V30 26 1 26 27
M  V30 27 2 27 28
M  V30 28 1 28 29
M  V30 29 1 29 30
M  V30 30 2 6 31
M  V30 31 1 31 2
M  V30 32 2 21 7
M  V30 33 2 30 22
M  V30 34 1 19 12
M  V30 35 1 29 25
M  V30 36 1 1 32
M  V30 37 1 1 33
M  V30 38 1 1 34
M  V30 39 1 3 35
M  V30 40 1 4 36
M  V30 41 1 5 37
M  V30 42 1 10 38
M  V30 43 1 11 39
M  V30 44 1 11 40
M  V30 45 1 13 41
M  V30 46 1 16 42
M  V30 47 1 19 43
M  V30 48 1 23 44
M  V30 49 1 24 45
M  V30 50 1 27 46
M  V30 51 1 30 47
M  V30 END BOND
M  V30 END CTAB
M  END
>  <Dataset>  (375) 
ChEMBL_Kinases

>  <Ligand_Instance>  (375) 
nan

>  <PDB_ID>  (375) 
nan

>  <Standardized_SMILES>  (375) 
Cc1cccc(-c2nc(NCc3cc(F)cc(F)c3)sc2-c2ccc3ncnn3c2)n1

>  <Name>  (375) 
nan

>  <Pocket>  (375) 
nan

>  <ATP_Site>  (375) 
nan

>  <Peripheral>  (375) 
nan

>  <Num_H_Atoms_ProtBoundConf>  (375) 
nan

>  <Num_Resolved_Atoms>  (375) 
nan

>  <Num_Not_Resolved_Atoms>  (375) 
nan

$$$$
CHEMBL206889
     RDKit          3D

  0  0  0  0  0  0  0  0  0  0999 V3000
M  V30 BEGIN CTAB
M  V30 COUNTS 58 59 0 0 0
M  V30 BEGIN ATOM
M  V30 1 C -1.501265 -3.380022 2.013760 0
M  V30 2 C -0.062504 -3.634782 2.361096 0
M  V30 3 C 0.243501 -2.932621 3.653058 0
M  V30 4 C 0.900691 -3.468312 1.264604 0
M  V30 5 C 1.009231 -2.149230 0.605598 0
M  V30 6 C 1.396097 -1.021677 1.431346 0
M  V30 7 O 1.733870 -0.496766 2.526757 0
M  V30 8 O 1.472792 0.218856 0.760269 0
M  V30 9 C 1.838881 1.379740 1.445081 0
M  V30 10 C 1.887474 2.625034 0.624943 0
M  V30 11 C 2.213964 3.806792 1.522860 0
M  V30 12 O 1.289452 3.817841 2.554950 0
M  V30 13 C 0.549974 2.849126 -0.038233 0
M  V30 14 C 0.629600 1.882937 -1.160571 0
M  V30 15 C -0.256651 1.066094 -1.696492 0
M  V30 16 C -1.628458 0.905920 -1.276929 0
M  V30 17 C -2.212305 0.774166 -0.041741 0
M  V30 18 C -3.573353 0.656499 0.126456 0
M  V30 19 C -4.441923 0.662973 -0.945642 0
M  V30 20 C -3.870515 0.794261 -2.197615 0
M  V30 21 O -4.774287 0.796649 -3.259355 0
M  V30 22 C -2.506530 0.912456 -2.363977 0
M  V30 23 C 2.048030 2.055156 -1.554496 0
M  V30 24 O 2.510085 1.792505 -2.722647 0
M  V30 25 O 2.787668 2.544590 -0.456621 0
M  V30 26 C 0.854385 -4.643420 0.318484 0
M  V30 27 C -0.437144 -4.907514 -0.356695 0
M  V30 28 C 1.983787 -4.515558 -0.691854 0
M  V30 29 H -2.029102 -3.080150 2.942340 0
M  V30 30 H -2.024065 -4.304815 1.689573 0
M  V30 31 H -1.641937 -2.542479 1.309257 0
M  V30 32 H -0.044988 -4.736100 2.634214 0
M  V30 33 H 1.311285 -2.931831 3.924215 0
M  V30 34 H -0.254014 -3.505431 4.494383 0
M  V30 35 H -0.254416 -1.935675 3.746726 0
M  V30 36 H 1.923331 -3.605342 1.749814 0
M  V30 37 H 1.650269 -2.150207 -0.300131 0
M  V30 38 H -0.008643 -1.925650 0.164647 0
M  V30 39 H 2.876141 1.224343 1.857295 0
M  V30 40 H 1.109798 1.528394 2.292616 0
M  V30 41 H 2.139967 4.764028 0.948786 0
M  V30 42 H 3.224083 3.692259 1.932261 0
M  V30 43 H 1.654934 3.558455 3.425090 0
M  V30 44 H -0.278758 2.719064 0.645029 0
M  V30 45 H 0.518087 3.869868 -0.527216 0
M  V30 46 H 0.136311 0.473549 -2.537560 0
M  V30 47 H -1.521524 0.759645 0.763617 0
M  V30 48 H -3.917547 0.557795 1.151765 0
M  V30 49 H -5.505217 0.569017 -0.785625 0
M  V30 50 H -4.656696 1.571350 -3.922248 0
M  V30 51 H -2.222210 1.007398 -3.408780 0
M  V30 52 H 1.092602 -5.550803 0.934803 0
M  V30 53 H -1.028817 -5.756050 0.066124 0
M  V30 54 H -0.197767 -5.278147 -1.398684 0
M  V30 55 H -1.116146 -4.077322 -0.516829 0
M  V30 56 H 2.234066 -5.499507 -1.140601 0
M  V30 57 H 2.864222 -4.036175 -0.216345 0
M  V30 58 H 1.626813 -3.809027 -1.477668 0
M  V30 END ATOM
M  V30 BEGIN BOND
M  V30 1 1 1 2
M  V30 2 1 2 3
M  V30 3 1 2 4
M  V30 4 1 4 5
M  V30 5 1 5 6
M  V30 6 2 6 7
M  V30 7 1 6 8
M  V30 8 1 8 9
M  V30 9 1 9 10
M  V30 10 1 10 11
M  V30 11 1 11 12
M  V30 12 1 10 13
M  V30 13 1 13 14
M  V30 14 2 14 15
M  V30 15 1 15 16
M  V30 16 2 16 17
M  V30 17 1 17 18
M  V30 18 2 18 19
M  V30 19 1 19 20
M  V30 20 1 20 21
M  V30 21 2 20 22
M  V30 22 1 14 23
M  V30 23 2 23 24
M  V30 24 1 23 25
M  V30 25 1 4 26
M  V30 26 1 26 27
M  V30 27 1 26 28
M  V30 28 1 25 10
M  V30 29 1 22 16
M  V30 30 1 1 29
M  V30 31 1 1 30
M  V30 32 1 1 31
M  V30 33 1 2 32
M  V30 34 1 3 33
M  V30 35 1 3 34
M  V30 36 1 3 35
M  V30 37 1 4 36
M  V30 38 1 5 37
M  V30 39 1 5 38
M  V30 40 1 9 39
M  V30 41 1 9 40
M  V30 42 1 11 41
M  V30 43 1 11 42
M  V30 44 1 12 43
M  V30 45 1 13 44
M  V30 46 1 13 45
M  V30 47 1 15 46
M  V30 48 1 17 47
M  V30 49 1 18 48
M  V30 50 1 19 49
M  V30 51 1 21 50
M  V30 52 1 22 51
M  V30 53 1 26 52
M  V30 54 1 27 53
M  V30 55 1 27 54
M  V30 56 1 27 55
M  V30 57 1 28 56
M  V30 58 1 28 57
M  V30 59 1 28 58
M  V30 END BOND
M  V30 END CTAB
M  END
>  <Dataset>  (376) 
ChEMBL_Kinases

>  <Ligand_Instance>  (376) 
nan

>  <PDB_ID>  (376) 
nan

>  <Standardized_SMILES>  (376) 
CC(C)C(CC(=O)OCC1(CO)C/C(=C\c2cccc(O)c2)C(=O)O1)C(C)C

>  <Name>  (376) 
nan

>  <Pocket>  (376) 
nan

>  <ATP_Site>  (376) 
nan

>  <Peripheral>  (376) 
nan

>  <Num_H_Atoms_ProtBoundConf>  (376) 
nan

>  <Num_Resolved_Atoms>  (376) 
nan

>  <Num_Not_Resolved_Atoms>  (376) 
nan

$$$$
CHEMBL87277
     RDKit          3D

  0  0  0  0  0  0  0  0  0  0999 V3000
M  V30 BEGIN CTAB
M  V30 COUNTS 40 41 0 0 0
M  V30 BEGIN ATOM
M  V30 1 C 3.202837 -1.982080 1.082909 0
M  V30 2 N 2.047292 -1.850612 0.202239 0
M  V30 3 N 1.476651 -2.853572 -0.449592 0
M  V30 4 C 0.427979 -2.365630 -1.173898 0
M  V30 5 C -0.547167 -3.054593 -2.079588 0
M  V30 6 C -0.242342 -4.532383 -2.140814 0
M  V30 7 C -1.939825 -2.908046 -1.481165 0
M  V30 8 C -0.548682 -2.390376 -3.417457 0
M  V30 9 C 0.325166 -0.994296 -0.976047 0
M  V30 10 C 1.376766 -0.721824 -0.094959 0
M  V30 11 N 1.647317 0.592444 0.384435 0
M  V30 12 C 1.090596 1.144684 1.554259 0
M  V30 13 O 0.301439 0.380673 2.188263 0
M  V30 14 N 1.321153 2.427160 2.070430 0
M  V30 15 C 0.592584 2.667310 3.281808 0
M  V30 16 C 0.985998 2.430724 4.582386 0
M  V30 17 C 0.117224 2.740066 5.607240 0
M  V30 18 C -1.129453 3.277712 5.363703 0
M  V30 19 Cl -2.183828 3.647331 6.713373 0
M  V30 20 C -1.524652 3.516075 4.044364 0
M  V30 21 C -0.652338 3.205257 3.019252 0
M  V30 22 H 4.115428 -2.157992 0.479959 0
M  V30 23 H 3.076520 -2.797805 1.832152 0
M  V30 24 H 3.345537 -1.011146 1.632778 0
M  V30 25 H -0.965171 -5.123696 -1.537480 0
M  V30 26 H -0.398917 -4.895864 -3.190976 0
M  V30 27 H 0.759482 -4.765543 -1.759569 0
M  V30 28 H -2.194508 -3.831926 -0.889698 0
M  V30 29 H -1.991879 -2.026375 -0.821118 0
M  V30 30 H -2.721435 -2.840184 -2.269206 0
M  V30 31 H -1.594977 -2.456262 -3.834928 0
M  V30 32 H 0.145472 -2.865878 -4.157091 0
M  V30 33 H -0.302326 -1.320381 -3.285851 0
M  V30 34 H -0.372315 -0.277005 -1.377991 0
M  V30 35 H 2.297643 1.211084 -0.145282 0
M  V30 36 H 1.981009 3.021752 1.511022 0
M  V30 37 H 1.978336 2.008930 4.663506 0
M  V30 38 H 0.485382 2.529791 6.621258 0
M  V30 39 H -2.514239 3.939924 3.904532 0
M  V30 40 H -1.070276 3.434107 2.048669 0
M  V30 END ATOM
M  V30 BEGIN BOND
M  V30 1 1 1 2
M  V30 2 1 2 3
M  V30 3 2 3 4
M  V30 4 1 4 5
M  V30 5 1 5 6
M  V30 6 1 5 7
M  V30 7 1 5 8
M  V30 8 1 4 9
M  V30 9 2 9 10
M  V30 10 1 10 11
M  V30 11 1 11 12
M  V30 12 2 12 13
M  V30 13 1 12 14
M  V30 14 1 14 15
M  V30 15 2 15 16
M  V30 16 1 16 17
M  V30 17 2 17 18
M  V30 18 1 18 19
M  V30 19 1 18 20
M  V30 20 2 20 21
M  V30 21 1 10 2
M  V30 22 1 21 15
M  V30 23 1 1 22
M  V30 24 1 1 23
M  V30 25 1 1 24
M  V30 26 1 6 25
M  V30 27 1 6 26
M  V30 28 1 6 27
M  V30 29 1 7 28
M  V30 30 1 7 29
M  V30 31 1 7 30
M  V30 32 1 8 31
M  V30 33 1 8 32
M  V30 34 1 8 33
M  V30 35 1 9 34
M  V30 36 1 11 35
M  V30 37 1 14 36
M  V30 38 1 16 37
M  V30 39 1 17 38
M  V30 40 1 20 39
M  V30 41 1 21 40
M  V30 END BOND
M  V30 END CTAB
M  END
>  <Dataset>  (377) 
ChEMBL_Kinases

>  <Ligand_Instance>  (377) 
nan

>  <PDB_ID>  (377) 
nan

>  <Standardized_SMILES>  (377) 
Cn1nc(C(C)(C)C)cc1NC(=O)Nc1ccc(Cl)cc1

>  <Name>  (377) 
nan

>  <Pocket>  (377) 
nan

>  <ATP_Site>  (377) 
nan

>  <Peripheral>  (377) 
nan

>  <Num_H_Atoms_ProtBoundConf>  (377) 
nan

>  <Num_Resolved_Atoms>  (377) 
nan

>  <Num_Not_Resolved_Atoms>  (377) 
nan

$$$$
CHEMBL1089116
     RDKit          3D

  0  0  0  0  0  0  0  0  0  0999 V3000
M  V30 BEGIN CTAB
M  V30 COUNTS 54 58 0 0 0
M  V30 BEGIN ATOM
M  V30 1 C 3.609602 -0.502780 5.839218 0
M  V30 2 C 2.751180 0.720546 5.583535 0
M  V30 3 N 2.488510 0.824049 4.148525 0
M  V30 4 C 3.301972 1.504333 3.344333 0
M  V30 5 C 2.753803 1.394040 2.062219 0
M  V30 6 C 3.133680 1.893914 0.732779 0
M  V30 7 C 4.294125 1.608609 0.030185 0
M  V30 8 C 4.484739 2.164416 -1.202341 0
M  V30 9 N 3.579301 2.993478 -1.778210 0
M  V30 10 C 2.422446 3.304692 -1.127397 0
M  V30 11 N 1.367094 4.078279 -1.440942 0
M  V30 12 C 0.452176 4.070901 -0.456073 0
M  V30 13 C 1.001363 3.236780 0.506979 0
M  V30 14 C 2.220021 2.744490 0.125777 0
M  V30 15 C 1.605819 0.632957 2.154594 0
M  V30 16 C 0.570028 0.134801 1.251827 0
M  V30 17 C -0.786940 0.406492 1.290889 0
M  V30 18 C -1.625535 -0.156592 0.347954 0
M  V30 19 C -1.146564 -0.991347 -0.643301 0
M  V30 20 N -2.094771 -1.521839 -1.569802 0
M  V30 21 C -2.727225 -2.760069 -1.274427 0
M  V30 22 O -2.400992 -3.313126 -0.195939 0
M  V30 23 N -3.668812 -3.388067 -2.090050 0
M  V30 24 C -4.371770 -4.606406 -1.924967 0
M  V30 25 C -5.263095 -5.009907 -2.891840 0
M  V30 26 C -5.975691 -6.183753 -2.787497 0
M  V30 27 C -5.832594 -7.021341 -1.702256 0
M  V30 28 C -4.948541 -6.653773 -0.709668 0
M  V30 29 C -4.262481 -5.471539 -0.863810 0
M  V30 30 C 0.222028 -1.278895 -0.700527 0
M  V30 31 C 1.036383 -0.702050 0.254875 0
M  V30 32 N 1.483080 0.302836 3.467746 0
M  V30 33 H 4.576926 -0.173376 6.302978 0
M  V30 34 H 3.106715 -1.261566 6.457845 0
M  V30 35 H 3.883746 -0.977435 4.873291 0
M  V30 36 H 3.142493 1.642916 6.017669 0
M  V30 37 H 1.775951 0.526192 6.110820 0
M  V30 38 H 4.209062 2.069275 3.463013 0
M  V30 39 H 4.974930 0.942182 0.543071 0
M  V30 40 H 5.417498 1.882827 -1.670379 0
M  V30 41 H 1.292133 4.611464 -2.349510 0
M  V30 42 H -0.495902 4.579335 -0.391990 0
M  V30 43 H 0.493461 3.025052 1.438855 0
M  V30 44 H -1.083609 1.067369 2.095060 0
M  V30 45 H -2.679251 0.092641 0.428846 0
M  V30 46 H -2.338507 -1.026594 -2.460170 0
M  V30 47 H -3.855854 -2.826637 -2.960779 0
M  V30 48 H -5.411943 -4.373513 -3.778786 0
M  V30 49 H -6.652566 -6.415587 -3.598480 0
M  V30 50 H -6.409469 -7.929233 -1.661330 0
M  V30 51 H -4.814424 -7.290162 0.154180 0
M  V30 52 H -3.588247 -5.239626 -0.056929 0
M  V30 53 H 0.579524 -1.934167 -1.482971 0
M  V30 54 H 2.095951 -0.968941 0.152010 0
M  V30 END ATOM
M  V30 BEGIN BOND
M  V30 1 1 1 2
M  V30 2 1 2 3
M  V30 3 1 3 4
M  V30 4 2 4 5
M  V30 5 1 5 6
M  V30 6 2 6 7
M  V30 7 1 7 8
M  V30 8 2 8 9
M  V30 9 1 9 10
M  V30 10 1 10 11
M  V30 11 1 11 12
M  V30 12 2 12 13
M  V30 13 1 13 14
M  V30 14 1 5 15
M  V30 15 1 15 16
M  V30 16 2 16 17
M  V30 17 1 17 18
M  V30 18 2 18 19
M  V30 19 1 19 20
M  V30 20 1 20 21
M  V30 21 2 21 22
M  V30 22 1 21 23
M  V30 23 1 23 24
M  V30 24 2 24 25
M  V30 25 1 25 26
M  V30 26 2 26 27
M  V30 27 1 27 28
M  V30 28 2 28 29
M  V30 29 1 19 30
M  V30 30 2 30 31
M  V30 31 2 15 32
M  V30 32 1 32 3
M  V30 33 1 14 6
M  V30 34 1 31 16
M  V30 35 2 14 10
M  V30 36 1 29 24
M  V30 37 1 1 33
M  V30 38 1 1 34
M  V30 39 1 1 35
M  V30 40 1 2 36
M  V30 41 1 2 37
M  V30 42 1 4 38
M  V30 43 1 7 39
M  V30 44 1 8 40
M  V30 45 1 11 41
M  V30 46 1 12 42
M  V30 47 1 13 43
M  V30 48 1 17 44
M  V30 49 1 18 45
M  V30 50 1 20 46
M  V30 51 1 23 47
M  V30 52 1 25 48
M  V30 53 1 26 49
M  V30 54 1 27 50
M  V30 55 1 28 51
M  V30 56 1 29 52
M  V30 57 1 30 53
M  V30 58 1 31 54
M  V30 END BOND
M  V30 END CTAB
M  END
>  <Dataset>  (378) 
ChEMBL_Kinases

>  <Ligand_Instance>  (378) 
nan

>  <PDB_ID>  (378) 
nan

>  <Standardized_SMILES>  (378) 
CCn1cc(-c2ccnc3[nH]ccc23)c(-c2ccc(NC(=O)Nc3ccccc3)cc2)n1

>  <Name>  (378) 
nan

>  <Pocket>  (378) 
nan

>  <ATP_Site>  (378) 
nan

>  <Peripheral>  (378) 
nan

>  <Num_H_Atoms_ProtBoundConf>  (378) 
nan

>  <Num_Resolved_Atoms>  (378) 
nan

>  <Num_Not_Resolved_Atoms>  (378) 
nan

$$$$
CHEMBL4639555
     RDKit          3D

  0  0  0  0  0  0  0  0  0  0999 V3000
M  V30 BEGIN CTAB
M  V30 COUNTS 46 49 0 0 0
M  V30 BEGIN ATOM
M  V30 1 C -1.796400 -4.331225 5.601338 0
M  V30 2 N -1.668760 -3.960076 4.204692 0
M  V30 3 C -0.285009 -3.754635 3.919857 0
M  V30 4 C 0.024983 -2.862747 2.773042 0
M  V30 5 N -0.681043 -1.598035 2.807359 0
M  V30 6 C -0.444055 -0.618463 1.827227 0
M  V30 7 C 0.482181 -0.957651 0.863101 0
M  V30 8 C 0.748135 -0.013387 -0.130325 0
M  V30 9 C 1.688481 -0.223070 -1.201236 0
M  V30 10 C 3.039351 -0.449077 -0.980374 0
M  V30 11 C 4.003509 -0.658040 -1.944156 0
M  V30 12 N 3.567561 -0.636254 -3.219369 0
M  V30 13 C 2.281397 -0.423935 -3.497114 0
M  V30 14 C 1.298777 -0.212252 -2.544656 0
M  V30 15 C 0.075816 1.208682 -0.101789 0
M  V30 16 C 0.260847 2.280484 -1.078278 0
M  V30 17 C 1.476099 2.925905 -1.245023 0
M  V30 18 C 1.561009 3.941100 -2.204717 0
M  V30 19 C 0.446950 4.283445 -2.964692 0
M  V30 20 C -0.762962 3.650108 -2.807678 0
M  V30 21 C -0.829233 2.640288 -1.846103 0
M  V30 22 N -0.832317 1.486416 0.881220 0
M  V30 23 N -1.075924 0.568910 1.827305 0
M  V30 24 C -1.576676 -1.583942 3.947060 0
M  V30 25 C -2.448054 -2.820927 3.837460 0
M  V30 26 H -0.924257 -3.948006 6.180556 0
M  V30 27 H -2.757997 -4.026090 6.048058 0
M  V30 28 H -1.677684 -5.444784 5.640729 0
M  V30 29 H 0.312454 -3.446806 4.806352 0
M  V30 30 H 0.129331 -4.772079 3.653628 0
M  V30 31 H 1.116950 -2.592372 2.864348 0
M  V30 32 H -0.079567 -3.359705 1.779719 0
M  V30 33 H 1.017007 -1.915016 0.830363 0
M  V30 34 H 3.340252 -0.457202 0.066477 0
M  V30 35 H 5.029910 -0.824217 -1.645735 0
M  V30 36 H 1.918406 -0.404213 -4.521302 0
M  V30 37 H 0.251943 -0.041345 -2.813336 0
M  V30 38 H 2.324233 2.634991 -0.636903 0
M  V30 39 H 2.517558 4.464924 -2.351253 0
M  V30 40 H 0.606365 5.089871 -3.691847 0
M  V30 41 H -1.617345 3.936464 -3.413906 0
M  V30 42 H -1.783103 2.133639 -1.715075 0
M  V30 43 H -2.250742 -0.711353 3.970429 0
M  V30 44 H -1.045811 -1.593460 4.909328 0
M  V30 45 H -3.370007 -2.732390 4.437062 0
M  V30 46 H -2.724263 -2.918941 2.766061 0
M  V30 END ATOM
M  V30 BEGIN BOND
M  V30 1 1 1 2
M  V30 2 1 2 3
M  V30 3 1 3 4
M  V30 4 1 4 5
M  V30 5 1 5 6
M  V30 6 2 6 7
M  V30 7 1 7 8
M  V30 8 1 8 9
M  V30 9 2 9 10
M  V30 10 1 10 11
M  V30 11 2 11 12
M  V30 12 1 12 13
M  V30 13 2 13 14
M  V30 14 2 8 15
M  V30 15 1 15 16
M  V30 16 2 16 17
M  V30 17 1 17 18
M  V30 18 2 18 19
M  V30 19 1 19 20
M  V30 20 2 20 21
M  V30 21 1 15 22
M  V30 22 2 22 23
M  V30 23 1 5 24
M  V30 24 1 24 25
M  V30 25 1 25 2
M  V30 26 1 23 6
M  V30 27 1 14 9
M  V30 28 1 21 16
M  V30 29 1 1 26
M  V30 30 1 1 27
M  V30 31 1 1 28
M  V30 32 1 3 29
M  V30 33 1 3 30
M  V30 34 1 4 31
M  V30 35 1 4 32
M  V30 36 1 7 33
M  V30 37 1 10 34
M  V30 38 1 11 35
M  V30 39 1 13 36
M  V30 40 1 14 37
M  V30 41 1 17 38
M  V30 42 1 18 39
M  V30 43 1 19 40
M  V30 44 1 20 41
M  V30 45 1 21 42
M  V30 46 1 24 43
M  V30 47 1 24 44
M  V30 48 1 25 45
M  V30 49 1 25 46
M  V30 END BOND
M  V30 END CTAB
M  END
>  <Dataset>  (379) 
ChEMBL_Kinases

>  <Ligand_Instance>  (379) 
nan

>  <PDB_ID>  (379) 
nan

>  <Standardized_SMILES>  (379) 
CN1CCN(c2cc(-c3ccncc3)c(-c3ccccc3)nn2)CC1

>  <Name>  (379) 
nan

>  <Pocket>  (379) 
nan

>  <ATP_Site>  (379) 
nan

>  <Peripheral>  (379) 
nan

>  <Num_H_Atoms_ProtBoundConf>  (379) 
nan

>  <Num_Resolved_Atoms>  (379) 
nan

>  <Num_Not_Resolved_Atoms>  (379) 
nan

$$$$
CHEMBL590313
     RDKit          3D

  0  0  0  0  0  0  0  0  0  0999 V3000
M  V30 BEGIN CTAB
M  V30 COUNTS 45 48 0 0 0
M  V30 BEGIN ATOM
M  V30 1 C -0.932792 -5.287563 -0.608090 0
M  V30 2 N -0.982917 -4.636401 0.660309 0
M  V30 3 C -2.282617 -4.125795 0.993340 0
M  V30 4 C -2.837549 -3.142595 0.023429 0
M  V30 5 C -2.070878 -1.877905 -0.141529 0
M  V30 6 N -1.061083 -1.645142 0.870844 0
M  V30 7 C -0.848260 -0.261910 1.129663 0
M  V30 8 N 0.364413 0.332278 0.943313 0
M  V30 9 C 0.541812 1.643365 1.194796 0
M  V30 10 C 1.870819 2.198827 0.968085 0
M  V30 11 C 2.853784 1.345574 0.512329 0
M  V30 12 C 4.160778 1.762218 0.259296 0
M  V30 13 C 4.420634 3.111255 0.497199 0
M  V30 14 N 5.573693 3.784146 0.343262 0
M  V30 15 N 5.385134 5.068802 0.685744 0
M  V30 16 C 4.099812 5.232185 1.065096 0
M  V30 17 C 3.460211 4.015272 0.958514 0
M  V30 18 C 2.195443 3.521742 1.182790 0
M  V30 19 C -0.531014 2.382662 1.647594 0
M  V30 20 N -1.751868 1.797285 1.838033 0
M  V30 21 C -1.915469 0.485864 1.582917 0
M  V30 22 N -3.223044 -0.026203 1.813173 0
M  V30 23 C -0.247303 -2.520694 1.651033 0
M  V30 24 C 0.104055 -3.730467 0.818449 0
M  V30 25 H -0.375541 -6.244926 -0.485229 0
M  V30 26 H -0.399979 -4.680619 -1.372509 0
M  V30 27 H -1.920324 -5.555211 -1.040011 0
M  V30 28 H -2.349389 -3.783695 2.025031 0
M  V30 29 H -2.968691 -5.022563 0.941824 0
M  V30 30 H -3.036656 -3.660058 -0.955447 0
M  V30 31 H -3.863766 -2.879120 0.392571 0
M  V30 32 H -1.487066 -1.993657 -1.100970 0
M  V30 33 H -2.692003 -0.980759 -0.310048 0
M  V30 34 H 2.682893 0.293398 0.318493 0
M  V30 35 H 4.946064 1.122936 -0.095367 0
M  V30 36 H 6.507513 3.408642 0.009333 0
M  V30 37 H 3.516007 6.077370 1.412817 0
M  V30 38 H 1.448885 4.203252 1.536843 0
M  V30 39 H -0.405154 3.433518 1.853071 0
M  V30 40 H -3.432898 -1.024591 2.039493 0
M  V30 41 H -3.233212 -1.059570 2.027676 0
M  V30 42 H 0.730593 -1.994399 1.834084 0
M  V30 43 H -0.646213 -2.825831 2.619179 0
M  V30 44 H 0.933765 -4.252594 1.338564 0
M  V30 45 H 0.528210 -3.381325 -0.158845 0
M  V30 END ATOM
M  V30 BEGIN BOND
M  V30 1 1 1 2
M  V30 2 1 2 3
M  V30 3 1 3 4
M  V30 4 1 4 5
M  V30 5 1 5 6
M  V30 6 1 6 7
M  V30 7 2 7 8
M  V30 8 1 8 9
M  V30 9 1 9 10
M  V30 10 2 10 11
M  V30 11 1 11 12
M  V30 12 2 12 13
M  V30 13 1 13 14
M  V30 14 1 14 15
M  V30 15 2 15 16
M  V30 16 1 16 17
M  V30 17 2 17 18
M  V30 18 2 9 19
M  V30 19 1 19 20
M  V30 20 2 20 21
M  V30 21 1 21 22
M  V30 22 1 6 23
M  V30 23 1 23 24
M  V30 24 1 24 2
M  V30 25 1 21 7
M  V30 26 1 18 10
M  V30 27 1 17 13
M  V30 28 1 1 25
M  V30 29 1 1 26
M  V30 30 1 1 27
M  V30 31 1 3 28
M  V30 32 1 3 29
M  V30 33 1 4 30
M  V30 34 1 4 31
M  V30 35 1 5 32
M  V30 36 1 5 33
M  V30 37 1 11 34
M  V30 38 1 12 35
M  V30 39 1 14 36
M  V30 40 1 16 37
M  V30 41 1 18 38
M  V30 42 1 19 39
M  V30 43 1 22 40
M  V30 44 1 22 41
M  V30 45 1 23 42
M  V30 46 1 23 43
M  V30 47 1 24 44
M  V30 48 1 24 45
M  V30 END BOND
M  V30 END CTAB
M  END
>  <Dataset>  (380) 
ChEMBL_Kinases

>  <Ligand_Instance>  (380) 
nan

>  <PDB_ID>  (380) 
nan

>  <Standardized_SMILES>  (380) 
CN1CCCN(c2nc(-c3ccc4[nH]ncc4c3)cnc2N)CC1

>  <Name>  (380) 
nan

>  <Pocket>  (380) 
nan

>  <ATP_Site>  (380) 
nan

>  <Peripheral>  (380) 
nan

>  <Num_H_Atoms_ProtBoundConf>  (380) 
nan

>  <Num_Resolved_Atoms>  (380) 
nan

>  <Num_Not_Resolved_Atoms>  (380) 
nan

$$$$
CHEMBL464381
     RDKit          3D

  0  0  0  0  0  0  0  0  0  0999 V3000
M  V30 BEGIN CTAB
M  V30 COUNTS 63 64 0 0 0
M  V30 BEGIN ATOM
M  V30 1 C 6.590107 -0.830197 6.288436 0
M  V30 2 C 6.137056 -0.336744 4.963454 0
M  V30 3 C 5.075084 -0.672859 4.218475 0
M  V30 4 O 4.432138 -1.658351 4.997675 0
M  V30 5 C 5.064101 0.113071 2.971234 0 CFG=1
M  V30 6 C 3.925283 1.106297 2.866401 0
M  V30 7 C 2.611367 0.448765 2.911211 0
M  V30 8 C 1.869679 -0.370592 3.895632 0
M  V30 9 C 1.841750 0.623644 1.810945 0
M  V30 10 C 0.474202 0.136578 1.457117 0
M  V30 11 C -0.495646 1.248450 1.252519 0
M  V30 12 C -1.889083 0.834228 0.898443 0
M  V30 13 C -2.805526 2.052016 0.723925 0
M  V30 14 C -2.005524 -0.087839 -0.231782 0
M  V30 15 C -2.856585 0.247507 -1.187753 0
M  V30 16 C -2.990751 -0.649353 -2.319035 0
M  V30 17 C -3.774036 -0.500935 -3.359108 0
M  V30 18 C -4.513319 0.808041 -3.141425 0
M  V30 19 C -4.207634 -1.116477 -4.593564 0
M  V30 20 C -3.757738 -2.441872 -5.025447 0
M  V30 21 C -4.163413 -3.655262 -4.279713 0
M  V30 22 C -3.785997 -3.835777 -2.903125 0
M  V30 23 C -2.549053 -4.415430 -2.650737 0
M  V30 24 C -2.258090 -4.580407 -1.288138 0
M  V30 25 O -3.351862 -4.084938 -0.695489 0
M  V30 26 C -4.195846 -3.673539 -1.599715 0
M  V30 27 O 6.235735 0.897377 3.015557 0
M  V30 28 C 6.874381 0.661842 4.200757 0
M  V30 29 O 7.934699 1.319357 4.406095 0
M  V30 30 H 7.655012 -0.586440 6.446978 0
M  V30 31 H 5.958948 -0.395300 7.112998 0
M  V30 32 H 6.478995 -1.944936 6.387546 0
M  V30 33 H 4.433399 -2.636110 4.752319 0
M  V30 34 H 5.079685 -0.561620 2.072853 0
M  V30 35 H 4.041756 1.814095 3.720490 0
M  V30 36 H 4.101733 1.655596 1.919913 0
M  V30 37 H 2.259687 -0.067414 4.915019 0
M  V30 38 H 2.013455 -1.454884 3.787903 0
M  V30 39 H 0.791503 -0.090209 3.952597 0
M  V30 40 H 2.218264 1.231187 0.964093 0
M  V30 41 H 0.592122 -0.417585 0.480334 0
M  V30 42 H 0.058887 -0.596645 2.143324 0
M  V30 43 H -0.490957 1.942614 2.140060 0
M  V30 44 H -0.133576 1.916359 0.417510 0
M  V30 45 H -2.312878 0.288338 1.791470 0
M  V30 46 H -3.855403 1.759967 0.771384 0
M  V30 47 H -2.548997 2.711789 1.607818 0
M  V30 48 H -2.514772 2.671103 -0.148644 0
M  V30 49 H -1.419603 -0.990384 -0.266611 0
M  V30 50 H -3.424648 1.159773 -1.115055 0
M  V30 51 H -2.411307 -1.544197 -2.416580 0
M  V30 52 H -5.086834 0.785605 -2.187096 0
M  V30 53 H -5.243117 1.029553 -3.940925 0
M  V30 54 H -3.757100 1.606676 -3.078833 0
M  V30 55 H -3.929687 -0.372615 -5.433095 0
M  V30 56 H -5.352988 -1.081703 -4.677718 0
M  V30 57 H -2.624438 -2.505512 -5.109035 0
M  V30 58 H -4.069394 -2.618510 -6.103684 0
M  V30 59 H -3.813939 -4.544298 -4.907709 0
M  V30 60 H -5.302416 -3.779196 -4.349289 0
M  V30 61 H -1.697550 -4.798036 -3.231910 0
M  V30 62 H -1.623801 -4.891626 -0.503492 0
M  V30 63 H -5.190984 -3.214600 -1.497484 0
M  V30 END ATOM
M  V30 BEGIN BOND
M  V30 1 1 1 2
M  V30 2 2 2 3
M  V30 3 1 3 4
M  V30 4 1 3 5
M  V30 5 1 5 6
M  V30 6 1 6 7
M  V30 7 1 7 8
M  V30 8 2 7 9
M  V30 9 1 9 10
M  V30 10 1 10 11
M  V30 11 1 11 12
M  V30 12 1 12 13
M  V30 13 1 12 14
M  V30 14 2 14 15
M  V30 15 1 15 16
M  V30 16 2 16 17
M  V30 17 1 17 18
M  V30 18 1 17 19
M  V30 19 1 19 20
M  V30 20 1 20 21
M  V30 21 1 21 22
M  V30 22 1 22 23
M  V30 23 2 23 24
M  V30 24 1 24 25
M  V30 25 1 25 26
M  V30 26 1 5 27
M  V30 27 1 27 28
M  V30 28 2 28 29
M  V30 29 1 28 2
M  V30 30 2 26 22
M  V30 31 1 1 30
M  V30 32 1 1 31
M  V30 33 1 1 32
M  V30 34 1 4 33
M  V30 35 1 5 34 CFG=3
M  V30 36 1 6 35
M  V30 37 1 6 36
M  V30 38 1 8 37
M  V30 39 1 8 38
M  V30 40 1 8 39
M  V30 41 1 9 40
M  V30 42 1 10 41
M  V30 43 1 10 42
M  V30 44 1 11 43
M  V30 45 1 11 44
M  V30 46 1 12 45
M  V30 47 1 13 46
M  V30 48 1 13 47
M  V30 49 1 13 48
M  V30 50 1 14 49
M  V30 51 1 15 50
M  V30 52 1 16 51
M  V30 53 1 18 52
M  V30 54 1 18 53
M  V30 55 1 18 54
M  V30 56 1 19 55
M  V30 57 1 19 56
M  V30 58 1 20 57
M  V30 59 1 20 58
M  V30 60 1 21 59
M  V30 61 1 21 60
M  V30 62 1 23 61
M  V30 63 1 24 62
M  V30 64 1 26 63
M  V30 END BOND
M  V30 END CTAB
M  END
>  <Dataset>  (381) 
ChEMBL_Kinases

>  <Ligand_Instance>  (381) 
nan

>  <PDB_ID>  (381) 
nan

>  <Standardized_SMILES>  (381) 
CC1=C(O)[C@@H](C/C(C)=C/CCC(C)/C=C/C=C(\C)CCCc2ccoc2)OC1=O

>  <Name>  (381) 
PALINURIN

>  <Pocket>  (381) 
nan

>  <ATP_Site>  (381) 
nan

>  <Peripheral>  (381) 
nan

>  <Num_H_Atoms_ProtBoundConf>  (381) 
nan

>  <Num_Resolved_Atoms>  (381) 
nan

>  <Num_Not_Resolved_Atoms>  (381) 
nan

$$$$
CHEMBL4639553
     RDKit          3D

  0  0  0  0  0  0  0  0  0  0999 V3000
M  V30 BEGIN CTAB
M  V30 COUNTS 41 44 0 0 0
M  V30 BEGIN ATOM
M  V30 1 N 0.406532 -8.111055 2.097547 0
M  V30 2 C 1.170642 -6.957752 1.749074 0
M  V30 3 C 0.526631 -5.791436 1.354748 0
M  V30 4 C 1.364997 -4.742739 1.042129 0
M  V30 5 C 0.785544 -3.493130 0.622895 0
M  V30 6 C 1.322859 -2.309401 0.257938 0
M  V30 7 C 0.521987 -1.259276 -0.103678 0
M  V30 8 C 0.857783 0.015864 -0.504166 0
M  V30 9 O 2.062243 0.371686 -0.583362 0
M  V30 10 N -0.122372 0.859656 -0.804741 0
M  V30 11 C 0.230226 2.222211 -1.230239 0
M  V30 12 C 0.280500 3.055028 -0.002088 0
M  V30 13 C 1.356545 3.331250 0.813638 0
M  V30 14 C 1.214304 4.131309 1.923104 0
M  V30 15 C 0.010037 4.693862 2.278443 0
M  V30 16 C -1.076017 4.425867 1.470690 0
M  V30 17 C -2.356454 5.054556 1.892891 0
M  V30 18 F -3.402463 4.254047 1.456991 0
M  V30 19 F -2.424458 5.145272 3.266549 0
M  V30 20 F -2.529014 6.297274 1.297924 0
M  V30 21 C -0.939496 3.623202 0.355284 0
M  V30 22 C -1.435664 0.642704 -0.773888 0
M  V30 23 N -1.808205 -0.594034 -0.386887 0
M  V30 24 C -0.869043 -1.527477 -0.058590 0
M  V30 25 S -0.959837 -3.266535 0.498284 0
M  V30 26 C 2.710184 -4.890961 1.129624 0
M  V30 27 C 3.345192 -6.051354 1.521779 0
M  V30 28 N 2.508736 -7.072440 1.825570 0
M  V30 29 H 0.050225 -7.976274 3.069282 0
M  V30 30 H 0.108958 -9.031669 1.665980 0
M  V30 31 H -0.543509 -5.738735 1.306128 0
M  V30 32 H 2.404063 -2.263029 0.275051 0
M  V30 33 H 1.260891 2.225854 -1.663377 0
M  V30 34 H -0.492786 2.629665 -1.949277 0
M  V30 35 H 2.276566 2.874703 0.500503 0
M  V30 36 H 2.141781 4.262681 2.471036 0
M  V30 37 H -0.030732 5.317973 3.170929 0
M  V30 38 H -1.873258 3.508575 -0.171332 0
M  V30 39 H -2.244439 1.292784 -1.007427 0
M  V30 40 H 3.336774 -4.046920 0.876588 0
M  V30 41 H 4.406381 -6.207857 1.603535 0
M  V30 END ATOM
M  V30 BEGIN BOND
M  V30 1 1 1 2
M  V30 2 2 2 3
M  V30 3 1 3 4
M  V30 4 1 4 5
M  V30 5 2 5 6
M  V30 6 1 6 7
M  V30 7 1 7 8
M  V30 8 2 8 9
M  V30 9 1 8 10
M  V30 10 1 10 11
M  V30 11 1 11 12
M  V30 12 2 12 13
M  V30 13 1 13 14
M  V30 14 2 14 15
M  V30 15 1 15 16
M  V30 16 1 16 17
M  V30 17 1 17 18
M  V30 18 1 17 19
M  V30 19 1 17 20
M  V30 20 2 16 21
M  V30 21 1 10 22
M  V30 22 2 22 23
M  V30 23 1 23 24
M  V30 24 1 24 25
M  V30 25 2 4 26
M  V30 26 1 26 27
M  V30 27 2 27 28
M  V30 28 1 28 2
M  V30 29 1 25 5
M  V30 30 2 24 7
M  V30 31 1 21 12
M  V30 32 1 1 29
M  V30 33 1 1 30
M  V30 34 1 3 31
M  V30 35 1 6 32
M  V30 36 1 11 33
M  V30 37 1 11 34
M  V30 38 1 13 35
M  V30 39 1 14 36
M  V30 40 1 15 37
M  V30 41 1 21 38
M  V30 42 1 22 39
M  V30 43 1 26 40
M  V30 44 1 27 41
M  V30 END BOND
M  V30 END CTAB
M  END
>  <Dataset>  (382) 
ChEMBL_Kinases

>  <Ligand_Instance>  (382) 
nan

>  <PDB_ID>  (382) 
nan

>  <Standardized_SMILES>  (382) 
Nc1cc(-c2cc3c(=O)n(Cc4cccc(C(F)(F)F)c4)cnc3s2)ccn1

>  <Name>  (382) 
nan

>  <Pocket>  (382) 
nan

>  <ATP_Site>  (382) 
nan

>  <Peripheral>  (382) 
nan

>  <Num_H_Atoms_ProtBoundConf>  (382) 
nan

>  <Num_Resolved_Atoms>  (382) 
nan

>  <Num_Not_Resolved_Atoms>  (382) 
nan

$$$$
CHEMBL571581
     RDKit          3D

  0  0  0  0  0  0  0  0  0  0999 V3000
M  V30 BEGIN CTAB
M  V30 COUNTS 64 69 0 0 0
M  V30 BEGIN ATOM
M  V30 1 C 1.834806 3.606709 1.990471 0
M  V30 2 C 1.048732 2.784466 2.960748 0
M  V30 3 C 1.493788 1.554174 3.392801 0
M  V30 4 N 2.738495 1.133444 2.851598 0
M  V30 5 C 3.537547 -0.008983 3.007069 0
M  V30 6 C 4.534428 -0.155988 3.963703 0
M  V30 7 C 4.768265 0.936992 4.866166 0
M  V30 8 N 4.957750 1.804138 5.607695 0
M  V30 9 C 5.298885 -1.300007 4.076877 0
M  V30 10 N 5.056613 -2.304851 3.218419 0
M  V30 11 C 4.112562 -2.251243 2.261168 0
M  V30 12 C 3.345697 -1.091588 2.154930 0
M  V30 13 C 2.318779 -1.026698 1.123881 0
M  V30 14 C 2.002390 -1.984419 0.204177 0
M  V30 15 C 0.974888 -1.459771 -0.544497 0
M  V30 16 C 0.220994 -1.903463 -1.603969 0
M  V30 17 C -0.779436 -1.156657 -2.187243 0
M  V30 18 C -1.638825 -1.523362 -3.310813 0
M  V30 19 N -2.882367 -2.188998 -2.918671 0
M  V30 20 C -3.593654 -2.460815 -4.126141 0
M  V30 21 C -3.294978 -3.793801 -4.741961 0
M  V30 22 N -3.312612 -4.886358 -3.823301 0
M  V30 23 C -4.627869 -5.248907 -3.362575 0
M  V30 24 C -2.396811 -4.596611 -2.761137 0
M  V30 25 C -2.686069 -3.305424 -2.055448 0
M  V30 26 C -1.036662 0.116673 -1.671269 0
M  V30 27 C -0.275894 0.569666 -0.599017 0
M  V30 28 C 0.710133 -0.208528 -0.050144 0
M  V30 29 O 1.525999 0.029705 0.947378 0
M  V30 30 C 0.841275 0.726862 4.282361 0
M  V30 31 C -0.356105 1.235705 4.741509 0
M  V30 32 C -0.893116 2.452141 4.375221 0
M  V30 33 N -2.002717 3.143222 4.673200 0
M  V30 34 C -1.997838 4.320358 3.988489 0
M  V30 35 C -0.853614 4.397140 3.224075 0
M  V30 36 C -0.170147 3.210176 3.481385 0
M  V30 37 H 2.860574 3.660266 2.419132 0
M  V30 38 H 1.793027 3.216815 0.961414 0
M  V30 39 H 1.391594 4.622892 1.951401 0
M  V30 40 H 3.317438 1.674832 2.175118 0
M  V30 41 H 6.076150 -1.420747 4.819086 0
M  V30 42 H 3.905578 -3.048619 1.564200 0
M  V30 43 H 2.442393 -2.962032 0.061194 0
M  V30 44 H 0.385239 -2.879853 -2.035305 0
M  V30 45 H -1.897289 -0.665847 -3.961528 0
M  V30 46 H -1.021130 -2.197554 -3.968752 0
M  V30 47 H -3.390868 -1.675865 -4.883174 0
M  V30 48 H -4.681007 -2.421769 -3.907848 0
M  V30 49 H -4.033701 -3.970461 -5.561344 0
M  V30 50 H -2.298637 -3.770743 -5.244721 0
M  V30 51 H -4.528718 -5.516952 -2.294755 0
M  V30 52 H -4.902184 -6.181707 -3.926858 0
M  V30 53 H -5.361724 -4.437183 -3.500712 0
M  V30 54 H -2.397397 -5.428724 -2.029264 0
M  V30 55 H -1.370420 -4.557328 -3.196845 0
M  V30 56 H -3.627097 -3.452637 -1.475703 0
M  V30 57 H -1.885595 -3.125928 -1.315264 0
M  V30 58 H -1.788277 0.795357 -2.036911 0
M  V30 59 H -0.457435 1.559903 -0.178088 0
M  V30 60 H 1.238190 -0.231420 4.586929 0
M  V30 61 H -0.940069 0.644936 5.451043 0
M  V30 62 H -2.712360 2.757963 5.342847 0
M  V30 63 H -2.822771 5.021439 4.101505 0
M  V30 64 H -0.606347 5.240487 2.579785 0
M  V30 END ATOM
M  V30 BEGIN BOND
M  V30 1 1 1 2
M  V30 2 2 2 3
M  V30 3 1 3 4
M  V30 4 1 4 5
M  V30 5 2 5 6
M  V30 6 1 6 7
M  V30 7 3 7 8
M  V30 8 1 6 9
M  V30 9 2 9 10
M  V30 10 1 10 11
M  V30 11 2 11 12
M  V30 12 1 12 13
M  V30 13 2 13 14
M  V30 14 1 14 15
M  V30 15 2 15 16
M  V30 16 1 16 17
M  V30 17 1 17 18
M  V30 18 1 18 19
M  V30 19 1 19 20
M  V30 20 1 20 21
M  V30 21 1 21 22
M  V30 22 1 22 23
M  V30 23 1 22 24
M  V30 24 1 24 25
M  V30 25 2 17 26
M  V30 26 1 26 27
M  V30 27 2 27 28
M  V30 28 1 28 29
M  V30 29 1 3 30
M  V30 30 2 30 31
M  V30 31 1 31 32
M  V30 32 1 32 33
M  V30 33 1 33 34
M  V30 34 2 34 35
M  V30 35 1 35 36
M  V30 36 1 36 2
M  V30 37 1 12 5
M  V30 38 1 29 13
M  V30 39 2 36 32
M  V30 40 1 28 15
M  V30 41 1 25 19
M  V30 42 1 1 37
M  V30 43 1 1 38
M  V30 44 1 1 39
M  V30 45 1 4 40
M  V30 46 1 9 41
M  V30 47 1 11 42
M  V30 48 1 14 43
M  V30 49 1 16 44
M  V30 50 1 18 45
M  V30 51 1 18 46
M  V30 52 1 20 47
M  V30 53 1 20 48
M  V30 54 1 21 49
M  V30 55 1 21 50
M  V30 56 1 23 51
M  V30 57 1 23 52
M  V30 58 1 23 53
M  V30 59 1 24 54
M  V30 60 1 24 55
M  V30 61 1 25 56
M  V30 62 1 25 57
M  V30 63 1 26 58
M  V30 64 1 27 59
M  V30 65 1 30 60
M  V30 66 1 31 61
M  V30 67 1 33 62
M  V30 68 1 34 63
M  V30 69 1 35 64
M  V30 END BOND
M  V30 END CTAB
M  END
>  <Dataset>  (383) 
ChEMBL_Kinases

>  <Ligand_Instance>  (383) 
nan

>  <PDB_ID>  (383) 
nan

>  <Standardized_SMILES>  (383) 
Cc1c(Nc2c(C#N)cncc2-c2cc3cc(CN4CCN(C)CC4)ccc3o2)ccc2[nH]ccc12

>  <Name>  (383) 
nan

>  <Pocket>  (383) 
nan

>  <ATP_Site>  (383) 
nan

>  <Peripheral>  (383) 
nan

>  <Num_H_Atoms_ProtBoundConf>  (383) 
nan

>  <Num_Resolved_Atoms>  (383) 
nan

>  <Num_Not_Resolved_Atoms>  (383) 
nan

$$$$
CHEMBL2088219
     RDKit          3D

  0  0  0  0  0  0  0  0  0  0999 V3000
M  V30 BEGIN CTAB
M  V30 COUNTS 51 55 0 0 0
M  V30 BEGIN ATOM
M  V30 1 C 3.617015 -3.873899 -0.634695 0
M  V30 2 C 3.292095 -3.150148 0.606058 0
M  V30 3 C 4.107710 -3.391099 1.700827 0
M  V30 4 C 3.859059 -2.745559 2.896981 0
M  V30 5 C 2.780546 -1.875016 2.925214 0
M  V30 6 C 1.959103 -1.632110 1.823147 0
M  V30 7 C 0.830307 -0.686175 1.948005 0
M  V30 8 N 1.045173 0.597559 2.261710 0
M  V30 9 C 0.286946 1.428986 2.391704 0
M  V30 10 N 0.436534 2.851334 2.731903 0
M  V30 11 C 0.594662 3.722831 1.590780 0
M  V30 12 C -0.559251 3.682440 0.655699 0
M  V30 13 C -1.542680 4.613992 0.952031 0
M  V30 14 C -2.678372 4.696641 0.169480 0
M  V30 15 C -2.863427 3.854041 -0.927442 0
M  V30 16 C -1.850344 2.950107 -1.169501 0
M  V30 17 C -2.031706 2.063675 -2.312915 0
M  V30 18 N -1.096503 1.069903 -2.714486 0
M  V30 19 O -3.073560 2.154202 -3.015940 0
M  V30 20 C -0.703402 2.835251 -0.414885 0
M  V30 21 S -1.373903 0.565990 2.057214 0
M  V30 22 C -0.541328 -1.016225 1.759981 0
M  V30 23 C -0.932946 -2.407860 1.406531 0
M  V30 24 C -0.623109 -3.358556 2.347294 0
M  V30 25 C -0.963763 -4.670987 2.072593 0
M  V30 26 C -1.593498 -4.986235 0.884753 0
M  V30 27 N -2.029144 -6.168312 0.374089 0
M  V30 28 C -2.581418 -5.936751 -0.831224 0
M  V30 29 N -2.475809 -4.609659 -1.042951 0
M  V30 30 N -1.881446 -4.026480 -0.014164 0
M  V30 31 C -1.560960 -2.739675 0.227412 0
M  V30 32 N 2.269487 -2.300741 0.696942 0
M  V30 33 H 2.729312 -4.185484 -1.208280 0
M  V30 34 H 4.202314 -4.799250 -0.424771 0
M  V30 35 H 4.259510 -3.237023 -1.295038 0
M  V30 36 H 4.970560 -4.065164 1.738178 0
M  V30 37 H 4.436964 -2.869514 3.797729 0
M  V30 38 H 2.534921 -1.334495 3.847237 0
M  V30 39 H 0.420974 3.137116 3.728979 0
M  V30 40 H 0.869784 4.751068 1.889416 0
M  V30 41 H 1.481395 3.363468 0.991317 0
M  V30 42 H -1.503554 5.308694 1.768901 0
M  V30 43 H -3.466148 5.421467 0.382662 0
M  V30 44 H -3.752374 3.920807 -1.537518 0
M  V30 45 H -1.276427 0.038888 -2.570382 0
M  V30 46 H -0.140506 1.026263 -3.177902 0
M  V30 47 H 0.090387 2.134868 -0.595512 0
M  V30 48 H -0.137394 -3.232040 3.301308 0
M  V30 49 H -0.767830 -5.483815 2.735679 0
M  V30 50 H -3.044904 -6.588874 -1.569688 0
M  V30 51 H -1.781348 -1.945154 -0.479799 0
M  V30 END ATOM
M  V30 BEGIN BOND
M  V30 1 1 1 2
M  V30 2 2 2 3
M  V30 3 1 3 4
M  V30 4 2 4 5
M  V30 5 1 5 6
M  V30 6 1 6 7
M  V30 7 1 7 8
M  V30 8 2 8 9
M  V30 9 1 9 10
M  V30 10 1 10 11
M  V30 11 1 11 12
M  V30 12 2 12 13
M  V30 13 1 13 14
M  V30 14 2 14 15
M  V30 15 1 15 16
M  V30 16 1 16 17
M  V30 17 1 17 18
M  V30 18 2 17 19
M  V30 19 2 16 20
M  V30 20 1 9 21
M  V30 21 1 21 22
M  V30 22 1 22 23
M  V30 23 1 23 24
M  V30 24 2 24 25
M  V30 25 1 25 26
M  V30 26 2 26 27
M  V30 27 1 27 28
M  V30 28 2 28 29
M  V30 29 1 29 30
M  V30 30 1 30 31
M  V30 31 2 6 32
M  V30 32 1 32 2
M  V30 33 2 22 7
M  V30 34 2 31 23
M  V30 35 1 20 12
M  V30 36 1 30 26
M  V30 37 1 1 33
M  V30 38 1 1 34
M  V30 39 1 1 35
M  V30 40 1 3 36
M  V30 41 1 4 37
M  V30 42 1 5 38
M  V30 43 1 10 39
M  V30 44 1 11 40
M  V30 45 1 11 41
M  V30 46 1 13 42
M  V30 47 1 14 43
M  V30 48 1 15 44
M  V30 49 1 18 45
M  V30 50 1 18 46
M  V30 51 1 20 47
M  V30 52 1 24 48
M  V30 53 1 25 49
M  V30 54 1 28 50
M  V30 55 1 31 51
M  V30 END BOND
M  V30 END CTAB
M  END
>  <Dataset>  (384) 
ChEMBL_Kinases

>  <Ligand_Instance>  (384) 
nan

>  <PDB_ID>  (384) 
nan

>  <Standardized_SMILES>  (384) 
Cc1cccc(-c2nc(NCc3cccc(C(N)=O)c3)sc2-c2ccc3ncnn3c2)n1

>  <Name>  (384) 
nan

>  <Pocket>  (384) 
nan

>  <ATP_Site>  (384) 
nan

>  <Peripheral>  (384) 
nan

>  <Num_H_Atoms_ProtBoundConf>  (384) 
nan

>  <Num_Resolved_Atoms>  (384) 
nan

>  <Num_Not_Resolved_Atoms>  (384) 
nan

$$$$
CHEMBL2071615
     RDKit          3D

  0  0  0  0  0  0  0  0  0  0999 V3000
M  V30 BEGIN CTAB
M  V30 COUNTS 40 42 0 0 0
M  V30 BEGIN ATOM
M  V30 1 C -4.404386 -2.003777 1.441205 0
M  V30 2 C -3.170815 -2.579956 0.823334 0
M  V30 3 C -2.537753 -3.464648 1.911020 0
M  V30 4 C -3.578233 -3.550292 -0.262873 0
M  V30 5 C -2.184701 -1.565938 0.373308 0
M  V30 6 C -1.076885 -1.194628 1.119950 0
M  V30 7 C -0.151176 -0.251238 0.724063 0
M  V30 8 C -0.352747 0.364642 -0.515019 0
M  V30 9 N 0.599166 1.324540 -0.951723 0
M  V30 10 C 1.752284 1.746040 -0.235447 0
M  V30 11 N 2.301485 2.826538 0.341311 0
M  V30 12 C 3.487609 2.516962 0.889122 0
M  V30 13 C 4.416592 3.255636 1.583204 0
M  V30 14 C 5.586832 2.723918 2.070867 0
M  V30 15 C 5.796639 1.385336 1.831734 0
M  V30 16 C 6.968554 0.693205 2.281827 0
M  V30 17 N 7.931812 0.109387 2.636437 0
M  V30 18 C 4.876925 0.598297 1.128821 0
M  V30 19 C 3.692829 1.169775 0.643187 0
M  V30 20 N 2.614236 0.701449 -0.053354 0
M  V30 21 C -1.445704 0.011251 -1.272524 0
M  V30 22 F -1.550717 0.656889 -2.445472 0
M  V30 23 C -2.357759 -0.933926 -0.853456 0
M  V30 24 H -5.002211 -1.524733 0.613197 0
M  V30 25 H -4.185361 -1.269950 2.247110 0
M  V30 26 H -5.024682 -2.840210 1.797296 0
M  V30 27 H -3.225492 -4.332571 2.016219 0
M  V30 28 H -1.556638 -3.871425 1.568580 0
M  V30 29 H -2.521963 -2.968499 2.883688 0
M  V30 30 H -4.483753 -4.124079 0.009240 0
M  V30 31 H -3.698929 -2.986404 -1.202724 0
M  V30 32 H -2.727439 -4.269286 -0.485655 0
M  V30 33 H -0.954270 -1.698204 2.081521 0
M  V30 34 H 0.677761 -0.020296 1.350713 0
M  V30 35 H 0.588856 1.847621 -1.842486 0
M  V30 36 H 4.209100 4.293727 1.746131 0
M  V30 37 H 6.350780 3.256302 2.619759 0
M  V30 38 H 5.060695 -0.460408 0.950340 0
M  V30 39 H 2.643191 -0.318231 -0.306297 0
M  V30 40 H -3.160254 -1.101258 -1.550329 0
M  V30 END ATOM
M  V30 BEGIN BOND
M  V30 1 1 1 2
M  V30 2 1 2 3
M  V30 3 1 2 4
M  V30 4 1 2 5
M  V30 5 2 5 6
M  V30 6 1 6 7
M  V30 7 2 7 8
M  V30 8 1 8 9
M  V30 9 1 9 10
M  V30 10 2 10 11
M  V30 11 1 11 12
M  V30 12 2 12 13
M  V30 13 1 13 14
M  V30 14 2 14 15
M  V30 15 1 15 16
M  V30 16 3 16 17
M  V30 17 1 15 18
M  V30 18 2 18 19
M  V30 19 1 19 20
M  V30 20 1 8 21
M  V30 21 1 21 22
M  V30 22 2 21 23
M  V30 23 1 23 5
M  V30 24 1 20 10
M  V30 25 1 19 12
M  V30 26 1 1 24
M  V30 27 1 1 25
M  V30 28 1 1 26
M  V30 29 1 3 27
M  V30 30 1 3 28
M  V30 31 1 3 29
M  V30 32 1 4 30
M  V30 33 1 4 31
M  V30 34 1 4 32
M  V30 35 1 6 33
M  V30 36 1 7 34
M  V30 37 1 9 35
M  V30 38 1 13 36
M  V30 39 1 14 37
M  V30 40 1 18 38
M  V30 41 1 20 39
M  V30 42 1 23 40
M  V30 END BOND
M  V30 END CTAB
M  END
>  <Dataset>  (385) 
ChEMBL_Kinases

>  <Ligand_Instance>  (385) 
nan

>  <PDB_ID>  (385) 
nan

>  <Standardized_SMILES>  (385) 
CC(C)(C)c1ccc(Nc2nc3ccc(C#N)cc3[nH]2)c(F)c1

>  <Name>  (385) 
nan

>  <Pocket>  (385) 
nan

>  <ATP_Site>  (385) 
nan

>  <Peripheral>  (385) 
nan

>  <Num_H_Atoms_ProtBoundConf>  (385) 
nan

>  <Num_Resolved_Atoms>  (385) 
nan

>  <Num_Not_Resolved_Atoms>  (385) 
nan

$$$$
CHEMBL2071608
     RDKit          3D

  0  0  0  0  0  0  0  0  0  0999 V3000
M  V30 BEGIN CTAB
M  V30 COUNTS 39 42 0 0 0
M  V30 BEGIN ATOM
M  V30 1 N 0.933142 -8.200871 3.162270 0
M  V30 2 C 1.448735 -7.203903 2.810455 0
M  V30 3 C 2.070562 -5.979030 2.360605 0
M  V30 4 C 3.180794 -6.001179 1.516177 0
M  V30 5 C 3.710632 -4.777404 1.136534 0
M  V30 6 C 3.206171 -3.564832 1.542893 0
M  V30 7 N 3.540370 -2.297147 1.312751 0
M  V30 8 C 2.696159 -1.471907 1.970030 0
M  V30 9 N 2.508736 -0.072524 2.139720 0
M  V30 10 C 1.681508 0.618994 1.235255 0
M  V30 11 C 1.046159 -0.010607 0.189400 0
M  V30 12 C 0.222445 0.592100 -0.737853 0
M  V30 13 C 0.064100 1.946483 -0.541957 0
M  V30 14 O -0.748511 2.704732 -1.407659 0
M  V30 15 C -2.102412 2.878631 -1.150271 0
M  V30 16 C -2.920373 3.623145 -1.992266 0
M  V30 17 C -4.276956 3.778925 -1.705521 0
M  V30 18 C -4.859361 3.207081 -0.585961 0
M  V30 19 C -4.056947 2.478697 0.237079 0
M  V30 20 C -2.728492 2.319089 -0.032799 0
M  V30 21 C 0.662175 2.674523 0.483497 0
M  V30 22 C 1.474297 1.994075 1.371632 0
M  V30 23 N 1.807347 -2.247324 2.631011 0
M  V30 24 C 2.094890 -3.560545 2.387692 0
M  V30 25 C 1.554517 -4.784380 2.775404 0
M  V30 26 H 3.593187 -6.952918 1.184645 0
M  V30 27 H 4.563759 -4.768787 0.487913 0
M  V30 28 H 2.968988 0.445487 2.915414 0
M  V30 29 H 1.212289 -1.093602 0.086271 0
M  V30 30 H -0.256197 0.066779 -1.540925 0
M  V30 31 H -2.508622 4.086956 -2.876599 0
M  V30 32 H -4.879120 4.364985 -2.384848 0
M  V30 33 H -5.907752 3.358721 -0.413317 0
M  V30 34 H -4.485431 2.012888 1.131030 0
M  V30 35 H -2.043167 1.744079 0.596446 0
M  V30 36 H 0.499037 3.743607 0.586616 0
M  V30 37 H 1.945020 2.550877 2.173787 0
M  V30 38 H 0.976336 -2.061123 3.266035 0
M  V30 39 H 0.698952 -4.783578 3.425529 0
M  V30 END ATOM
M  V30 BEGIN BOND
M  V30 1 3 1 2
M  V30 2 1 2 3
M  V30 3 2 3 4
M  V30 4 1 4 5
M  V30 5 2 5 6
M  V30 6 1 6 7
M  V30 7 2 7 8
M  V30 8 1 8 9
M  V30 9 1 9 10
M  V30 10 2 10 11
M  V30 11 1 11 12
M  V30 12 2 12 13
M  V30 13 1 13 14
M  V30 14 1 14 15
M  V30 15 2 15 16
M  V30 16 1 16 17
M  V30 17 2 17 18
M  V30 18 1 18 19
M  V30 19 2 19 20
M  V30 20 1 13 21
M  V30 21 2 21 22
M  V30 22 1 8 23
M  V30 23 1 23 24
M  V30 24 2 24 25
M  V30 25 1 25 3
M  V30 26 1 24 6
M  V30 27 1 22 10
M  V30 28 1 20 15
M  V30 29 1 4 26
M  V30 30 1 5 27
M  V30 31 1 9 28
M  V30 32 1 11 29
M  V30 33 1 12 30
M  V30 34 1 16 31
M  V30 35 1 17 32
M  V30 36 1 18 33
M  V30 37 1 19 34
M  V30 38 1 20 35
M  V30 39 1 21 36
M  V30 40 1 22 37
M  V30 41 1 23 38
M  V30 42 1 25 39
M  V30 END BOND
M  V30 END CTAB
M  END
>  <Dataset>  (386) 
ChEMBL_Kinases

>  <Ligand_Instance>  (386) 
nan

>  <PDB_ID>  (386) 
nan

>  <Standardized_SMILES>  (386) 
N#Cc1ccc2nc(Nc3ccc(Oc4ccccc4)cc3)[nH]c2c1

>  <Name>  (386) 
nan

>  <Pocket>  (386) 
nan

>  <ATP_Site>  (386) 
nan

>  <Peripheral>  (386) 
nan

>  <Num_H_Atoms_ProtBoundConf>  (386) 
nan

>  <Num_Resolved_Atoms>  (386) 
nan

>  <Num_Not_Resolved_Atoms>  (386) 
nan

$$$$
CHEMBL602041
     RDKit          3D

  0  0  0  0  0  0  0  0  0  0999 V3000
M  V30 BEGIN CTAB
M  V30 COUNTS 54 57 0 0 0
M  V30 BEGIN ATOM
M  V30 1 C -1.084286 -2.018290 4.393898 0
M  V30 2 N -0.486349 -3.278054 4.079042 0
M  V30 3 C -0.884174 -3.817996 2.815264 0
M  V30 4 C -0.371494 -3.022091 1.639938 0
M  V30 5 C 1.118892 -2.944508 1.592757 0
M  V30 6 C 1.537798 -2.321400 0.282639 0
M  V30 7 N 0.371101 -1.701983 -0.328790 0
M  V30 8 C 0.371610 -0.289705 -0.322247 0
M  V30 9 N 1.482447 0.402125 -0.032171 0
M  V30 10 C 1.549189 1.740635 -0.054773 0
M  V30 11 C 2.830347 2.347862 0.284624 0
M  V30 12 C 3.045563 3.708361 0.302278 0
M  V30 13 C 4.274713 4.245540 0.629561 0
M  V30 14 N 5.322715 3.463704 0.947419 0
M  V30 15 C 5.175385 2.106147 0.948702 0
M  V30 16 C 3.935582 1.593384 0.617657 0
M  V30 17 C 0.447935 2.495574 -0.386749 0
M  V30 18 N -0.703915 1.835242 -0.688360 0
M  V30 19 C -0.719583 0.467995 -0.649907 0
M  V30 20 N -2.012220 -0.027182 -0.944432 0
M  V30 21 C -3.097237 -0.666007 -0.181027 0
M  V30 22 C -3.966580 -1.307586 -1.207456 0
M  V30 23 C -3.829937 -0.392188 -2.404488 0
M  V30 24 C -2.410234 0.118721 -2.355541 0
M  V30 25 C -0.493452 -2.711699 -0.820306 0
M  V30 26 C -0.959861 -3.558771 0.345157 0
M  V30 27 H -0.357634 -1.182418 4.446518 0
M  V30 28 H -1.571079 -2.089168 5.387559 0
M  V30 29 H -1.892912 -1.826478 3.662311 0
M  V30 30 H -0.396911 -3.942650 4.846798 0
M  V30 31 H -1.992988 -3.852063 2.813197 0
M  V30 32 H -0.537194 -4.861349 2.725904 0
M  V30 33 H -0.744666 -1.983381 1.747607 0
M  V30 34 H 1.614855 -3.933538 1.661768 0
M  V30 35 H 1.484918 -2.246628 2.382496 0
M  V30 36 H 2.382891 -1.610276 0.413045 0
M  V30 37 H 1.948138 -3.108617 -0.409700 0
M  V30 38 H 2.253602 4.377218 0.059493 0
M  V30 39 H 4.468719 5.312848 0.650524 0
M  V30 40 H 6.007914 1.450348 1.202349 0
M  V30 41 H 3.853158 0.505456 0.628925 0
M  V30 42 H 0.472191 3.569355 -0.413718 0
M  V30 43 H -2.743118 -1.298698 0.628625 0
M  V30 44 H -3.662423 0.199740 0.282157 0
M  V30 45 H -5.018425 -1.266626 -0.828750 0
M  V30 46 H -3.678306 -2.352604 -1.413613 0
M  V30 47 H -4.045434 -0.909755 -3.372020 0
M  V30 48 H -4.505325 0.478794 -2.240582 0
M  V30 49 H -2.278170 1.135515 -2.729290 0
M  V30 50 H -1.785402 -0.558036 -2.978816 0
M  V30 51 H 0.131573 -3.409379 -1.475925 0
M  V30 52 H -1.297857 -2.399847 -1.503709 0
M  V30 53 H -0.602411 -4.618449 0.258628 0
M  V30 54 H -2.060698 -3.570596 0.474229 0
M  V30 END ATOM
M  V30 BEGIN BOND
M  V30 1 1 1 2
M  V30 2 1 2 3
M  V30 3 1 3 4
M  V30 4 1 4 5
M  V30 5 1 5 6
M  V30 6 1 6 7
M  V30 7 1 7 8
M  V30 8 2 8 9
M  V30 9 1 9 10
M  V30 10 1 10 11
M  V30 11 2 11 12
M  V30 12 1 12 13
M  V30 13 2 13 14
M  V30 14 1 14 15
M  V30 15 2 15 16
M  V30 16 2 10 17
M  V30 17 1 17 18
M  V30 18 2 18 19
M  V30 19 1 19 20
M  V30 20 1 20 21
M  V30 21 1 21 22
M  V30 22 1 22 23
M  V30 23 1 23 24
M  V30 24 1 7 25
M  V30 25 1 25 26
M  V30 26 1 26 4
M  V30 27 1 19 8
M  V30 28 1 24 20
M  V30 29 1 16 11
M  V30 30 1 1 27
M  V30 31 1 1 28
M  V30 32 1 1 29
M  V30 33 1 2 30
M  V30 34 1 3 31
M  V30 35 1 3 32
M  V30 36 1 4 33
M  V30 37 1 5 34
M  V30 38 1 5 35
M  V30 39 1 6 36
M  V30 40 1 6 37
M  V30 41 1 12 38
M  V30 42 1 13 39
M  V30 43 1 15 40
M  V30 44 1 16 41
M  V30 45 1 17 42
M  V30 46 1 21 43
M  V30 47 1 21 44
M  V30 48 1 22 45
M  V30 49 1 22 46
M  V30 50 1 23 47
M  V30 51 1 23 48
M  V30 52 1 24 49
M  V30 53 1 24 50
M  V30 54 1 25 51
M  V30 55 1 25 52
M  V30 56 1 26 53
M  V30 57 1 26 54
M  V30 END BOND
M  V30 END CTAB
M  END
>  <Dataset>  (387) 
ChEMBL_Kinases

>  <Ligand_Instance>  (387) 
nan

>  <PDB_ID>  (387) 
nan

>  <Standardized_SMILES>  (387) 
CNCC1CCN(c2nc(-c3ccncc3)cnc2N2CCCC2)CC1

>  <Name>  (387) 
nan

>  <Pocket>  (387) 
nan

>  <ATP_Site>  (387) 
nan

>  <Peripheral>  (387) 
nan

>  <Num_H_Atoms_ProtBoundConf>  (387) 
nan

>  <Num_Resolved_Atoms>  (387) 
nan

>  <Num_Not_Resolved_Atoms>  (387) 
nan

$$$$
CHEMBL2071607
     RDKit          3D

  0  0  0  0  0  0  0  0  0  0999 V3000
M  V30 BEGIN CTAB
M  V30 COUNTS 41 44 0 0 0
M  V30 BEGIN ATOM
M  V30 1 N 5.602316 -7.167124 0.683011 0
M  V30 2 C 4.957801 -6.411132 0.061693 0
M  V30 3 C 4.146819 -5.484371 -0.687832 0
M  V30 4 C 3.472305 -5.861186 -1.827105 0
M  V30 5 C 2.713515 -4.895128 -2.482969 0
M  V30 6 C 2.663835 -3.610423 -1.976173 0
M  V30 7 N 1.993364 -2.547950 -2.462259 0
M  V30 8 C 2.221916 -1.486833 -1.656459 0
M  V30 9 N 1.862287 -0.108462 -1.551314 0
M  V30 10 C 0.749061 0.328101 -0.822061 0
M  V30 11 C 0.402130 1.681024 -0.727109 0
M  V30 12 C -0.697362 2.132639 -0.006030 0
M  V30 13 C -1.474795 1.167754 0.644652 0
M  V30 14 O -2.576653 1.682771 1.360836 0
M  V30 15 C -2.277652 2.006293 2.702316 0
M  V30 16 N -1.012441 1.806638 3.175342 0
M  V30 17 C -0.688728 2.109054 4.469248 0
M  V30 18 C -1.649500 2.624247 5.315904 0
M  V30 19 C -2.929500 2.826808 4.839155 0
M  V30 20 C -3.265574 2.523803 3.532528 0
M  V30 21 C -4.644673 2.743743 3.022344 0
M  V30 22 F -5.413455 3.264488 4.061738 0
M  V30 23 F -5.242583 1.625361 2.526956 0
M  V30 24 F -4.668598 3.699756 1.998268 0
M  V30 25 C -1.189114 -0.185344 0.592559 0
M  V30 26 C -0.081509 -0.543157 -0.144635 0
M  V30 27 N 3.050017 -1.894048 -0.649086 0
M  V30 28 C 3.330867 -3.199538 -0.832510 0
M  V30 29 C 4.065316 -4.194966 -0.224742 0
M  V30 30 H 3.543230 -6.865428 -2.177518 0
M  V30 31 H 2.171659 -5.162270 -3.381603 0
M  V30 32 H 2.461408 0.576340 -2.040906 0
M  V30 33 H 1.034018 2.389190 -1.247740 0
M  V30 34 H -0.930749 3.180946 0.042002 0
M  V30 35 H 0.349755 1.923980 4.786563 0
M  V30 36 H -1.313300 2.838733 6.328066 0
M  V30 37 H -3.662561 3.235757 5.538333 0
M  V30 38 H -1.819961 -0.869234 1.109581 0
M  V30 39 H 0.189534 -1.604446 -0.218816 0
M  V30 40 H 3.501866 -1.457035 0.197282 0
M  V30 41 H 4.608524 -3.915405 0.683568 0
M  V30 END ATOM
M  V30 BEGIN BOND
M  V30 1 3 1 2
M  V30 2 1 2 3
M  V30 3 2 3 4
M  V30 4 1 4 5
M  V30 5 2 5 6
M  V30 6 1 6 7
M  V30 7 2 7 8
M  V30 8 1 8 9
M  V30 9 1 9 10
M  V30 10 2 10 11
M  V30 11 1 11 12
M  V30 12 2 12 13
M  V30 13 1 13 14
M  V30 14 1 14 15
M  V30 15 2 15 16
M  V30 16 1 16 17
M  V30 17 2 17 18
M  V30 18 1 18 19
M  V30 19 2 19 20
M  V30 20 1 20 21
M  V30 21 1 21 22
M  V30 22 1 21 23
M  V30 23 1 21 24
M  V30 24 1 13 25
M  V30 25 2 25 26
M  V30 26 1 8 27
M  V30 27 1 27 28
M  V30 28 2 28 29
M  V30 29 1 29 3
M  V30 30 1 28 6
M  V30 31 1 26 10
M  V30 32 1 20 15
M  V30 33 1 4 30
M  V30 34 1 5 31
M  V30 35 1 9 32
M  V30 36 1 11 33
M  V30 37 1 12 34
M  V30 38 1 17 35
M  V30 39 1 18 36
M  V30 40 1 19 37
M  V30 41 1 25 38
M  V30 42 1 26 39
M  V30 43 1 27 40
M  V30 44 1 29 41
M  V30 END BOND
M  V30 END CTAB
M  END
>  <Dataset>  (388) 
ChEMBL_Kinases

>  <Ligand_Instance>  (388) 
nan

>  <PDB_ID>  (388) 
nan

>  <Standardized_SMILES>  (388) 
N#Cc1ccc2nc(Nc3ccc(Oc4ncccc4C(F)(F)F)cc3)[nH]c2c1

>  <Name>  (388) 
nan

>  <Pocket>  (388) 
nan

>  <ATP_Site>  (388) 
nan

>  <Peripheral>  (388) 
nan

>  <Num_H_Atoms_ProtBoundConf>  (388) 
nan

>  <Num_Resolved_Atoms>  (388) 
nan

>  <Num_Not_Resolved_Atoms>  (388) 
nan

$$$$
CHEMBL210861
     RDKit          3D

  0  0  0  0  0  0  0  0  0  0999 V3000
M  V30 BEGIN CTAB
M  V30 COUNTS 38 39 0 0 0
M  V30 BEGIN ATOM
M  V30 1 C -0.636955 -6.541462 2.787192 0
M  V30 2 C -0.250177 -5.161126 2.251604 0
M  V30 3 O -1.379254 -4.348418 2.337089 0
M  V30 4 C -1.460425 -3.017371 1.954519 0
M  V30 5 N -0.337730 -2.471947 1.455618 0
M  V30 6 C -0.258992 -1.203046 1.044642 0
M  V30 7 N 0.969475 -0.722975 0.534317 0
M  V30 8 C 1.280266 0.552836 0.052818 0
M  V30 9 O 0.410484 1.456370 0.034665 0
M  V30 10 C 2.596614 0.973347 -0.465455 0
M  V30 11 C 2.600232 2.388782 -0.898693 0
M  V30 12 C 2.279831 2.745268 -2.202442 0
M  V30 13 C 2.281502 4.076741 -2.615458 0
M  V30 14 C 2.612678 5.074558 -1.698038 0
M  V30 15 C 2.936424 4.751142 -0.392272 0
M  V30 16 C 2.927956 3.411357 -0.001909 0
M  V30 17 C -1.431319 -0.499583 1.176706 0
M  V30 18 C -2.605524 -1.013287 1.681169 0
M  V30 19 N -3.779336 -0.217933 1.785716 0
M  V30 20 C -2.645467 -2.326566 2.094162 0
M  V30 21 C -3.828121 -2.935967 2.630695 0
M  V30 22 N -4.772715 -3.434378 3.076391 0
M  V30 23 H -1.713434 -6.687703 2.568097 0
M  V30 24 H -0.483945 -6.529736 3.884309 0
M  V30 25 H -0.102280 -7.360325 2.265772 0
M  V30 26 H 0.628374 -4.782998 2.846236 0
M  V30 27 H 0.093707 -5.357285 1.200794 0
M  V30 28 H 1.784859 -1.356904 0.486520 0
M  V30 29 H 2.857305 0.354894 -1.365933 0
M  V30 30 H 3.432927 0.834883 0.253517 0
M  V30 31 H 2.024580 1.972292 -2.908825 0
M  V30 32 H 2.036388 4.389732 -3.626194 0
M  V30 33 H 2.624427 6.125067 -1.985139 0
M  V30 34 H 3.201358 5.447533 0.373979 0
M  V30 35 H 3.177040 3.128520 1.013911 0
M  V30 36 H -1.474066 0.518729 0.878273 0
M  V30 37 H -4.040469 -0.039005 2.765893 0
M  V30 38 H -4.081497 -0.015171 0.807933 0
M  V30 END ATOM
M  V30 BEGIN BOND
M  V30 1 1 1 2
M  V30 2 1 2 3
M  V30 3 1 3 4
M  V30 4 2 4 5
M  V30 5 1 5 6
M  V30 6 1 6 7
M  V30 7 1 7 8
M  V30 8 2 8 9
M  V30 9 1 8 10
M  V30 10 1 10 11
M  V30 11 2 11 12
M  V30 12 1 12 13
M  V30 13 2 13 14
M  V30 14 1 14 15
M  V30 15 2 15 16
M  V30 16 2 6 17
M  V30 17 1 17 18
M  V30 18 1 18 19
M  V30 19 2 18 20
M  V30 20 1 20 21
M  V30 21 3 21 22
M  V30 22 1 20 4
M  V30 23 1 16 11
M  V30 24 1 1 23
M  V30 25 1 1 24
M  V30 26 1 1 25
M  V30 27 1 2 26
M  V30 28 1 2 27
M  V30 29 1 7 28
M  V30 30 1 10 29
M  V30 31 1 10 30
M  V30 32 1 12 31
M  V30 33 1 13 32
M  V30 34 1 14 33
M  V30 35 1 15 34
M  V30 36 1 16 35
M  V30 37 1 17 36
M  V30 38 1 19 37
M  V30 39 1 19 38
M  V30 END BOND
M  V30 END CTAB
M  END
>  <Dataset>  (389) 
ChEMBL_Kinases

>  <Ligand_Instance>  (389) 
nan

>  <PDB_ID>  (389) 
nan

>  <Standardized_SMILES>  (389) 
CCOc1nc(NC(=O)Cc2ccccc2)cc(N)c1C#N

>  <Name>  (389) 
nan

>  <Pocket>  (389) 
nan

>  <ATP_Site>  (389) 
nan

>  <Peripheral>  (389) 
nan

>  <Num_H_Atoms_ProtBoundConf>  (389) 
nan

>  <Num_Resolved_Atoms>  (389) 
nan

>  <Num_Not_Resolved_Atoms>  (389) 
nan

$$$$
CHEMBL1084630
     RDKit          3D

  0  0  0  0  0  0  0  0  0  0999 V3000
M  V30 BEGIN CTAB
M  V30 COUNTS 52 55 0 0 0
M  V30 BEGIN ATOM
M  V30 1 C 1.276543 -0.389333 7.109491 0
M  V30 2 C 2.567012 -1.093480 7.449844 0
M  V30 3 N 3.662954 -0.463712 6.743597 0
M  V30 4 C 3.438669 -0.516242 5.311026 0
M  V30 5 N 3.477247 -1.328679 4.463797 0
M  V30 6 C 3.250244 -1.159771 3.184345 0
M  V30 7 C 3.263991 -2.157804 2.052925 0
M  V30 8 C 2.924856 0.113815 2.766651 0
M  V30 9 C 2.582308 0.855884 1.519933 0
M  V30 10 C 2.327683 2.193745 1.540447 0
M  V30 11 C 1.999734 2.736409 0.281096 0
M  V30 12 N 1.934254 2.010835 -0.843295 0
M  V30 13 C 2.199981 0.680872 -0.783000 0
M  V30 14 N 2.032395 0.200000 -2.112168 0
M  V30 15 C 0.718676 -0.313824 -2.199756 0
M  V30 16 C -0.031382 -0.818605 -1.179860 0
M  V30 17 C -1.356746 -1.261261 -1.297038 0
M  V30 18 C -1.934209 -1.165602 -2.568401 0
M  V30 19 N -3.291527 -1.595323 -2.697382 0
M  V30 20 C -4.001228 -2.047099 -1.517043 0
M  V30 21 C -5.501656 -2.015152 -1.682393 0
M  V30 22 O -5.801610 -2.618237 -2.908427 0
M  V30 23 C -5.453893 -1.625419 -3.858615 0
M  V30 24 C -3.947102 -1.568407 -4.010083 0
M  V30 25 C -1.195311 -0.661422 -3.617207 0
M  V30 26 C 0.131727 -0.227294 -3.469222 0
M  V30 27 N 2.523224 0.119009 0.404421 0
M  V30 28 S 2.963708 1.068736 4.326160 0
M  V30 29 H 0.442085 -0.730146 7.781230 0
M  V30 30 H 1.369076 0.694928 7.331438 0
M  V30 31 H 0.941832 -0.575596 6.083576 0
M  V30 32 H 2.453590 -2.128031 6.998635 0
M  V30 33 H 2.738426 -1.149747 8.543298 0
M  V30 34 H 4.560125 0.011063 7.071091 0
M  V30 35 H 4.098797 -1.948117 1.364693 0
M  V30 36 H 2.329731 -2.101462 1.463878 0
M  V30 37 H 3.395343 -3.183072 2.440579 0
M  V30 38 H 2.372577 2.786757 2.450005 0
M  V30 39 H 1.801678 3.825774 0.355909 0
M  V30 40 H 2.723962 0.211226 -2.875634 0
M  V30 41 H 0.454053 -0.880652 -0.213638 0
M  V30 42 H -1.803679 -1.641914 -0.393936 0
M  V30 43 H -3.701919 -3.079867 -1.353414 0
M  V30 44 H -3.728675 -1.385013 -0.648651 0
M  V30 45 H -5.884949 -0.995149 -1.742691 0
M  V30 46 H -5.937564 -2.552554 -0.813019 0
M  V30 47 H -5.799770 -0.668844 -3.445262 0
M  V30 48 H -5.994640 -1.894027 -4.772636 0
M  V30 49 H -3.635198 -2.424485 -4.632044 0
M  V30 50 H -3.642457 -0.625258 -4.492526 0
M  V30 51 H -1.618898 -0.581772 -4.602607 0
M  V30 52 H 0.670274 0.166777 -4.324428 0
M  V30 END ATOM
M  V30 BEGIN BOND
M  V30 1 1 1 2
M  V30 2 1 2 3
M  V30 3 1 3 4
M  V30 4 2 4 5
M  V30 5 1 5 6
M  V30 6 1 6 7
M  V30 7 2 6 8
M  V30 8 1 8 9
M  V30 9 2 9 10
M  V30 10 1 10 11
M  V30 11 2 11 12
M  V30 12 1 12 13
M  V30 13 1 13 14
M  V30 14 1 14 15
M  V30 15 2 15 16
M  V30 16 1 16 17
M  V30 17 2 17 18
M  V30 18 1 18 19
M  V30 19 1 19 20
M  V30 20 1 20 21
M  V30 21 1 21 22
M  V30 22 1 22 23
M  V30 23 1 23 24
M  V30 24 1 18 25
M  V30 25 2 25 26
M  V30 26 2 13 27
M  V30 27 1 8 28
M  V30 28 1 28 4
M  V30 29 1 27 9
M  V30 30 1 26 15
M  V30 31 1 24 19
M  V30 32 1 1 29
M  V30 33 1 1 30
M  V30 34 1 1 31
M  V30 35 1 2 32
M  V30 36 1 2 33
M  V30 37 1 3 34
M  V30 38 1 7 35
M  V30 39 1 7 36
M  V30 40 1 7 37
M  V30 41 1 10 38
M  V30 42 1 11 39
M  V30 43 1 14 40
M  V30 44 1 16 41
M  V30 45 1 17 42
M  V30 46 1 20 43
M  V30 47 1 20 44
M  V30 48 1 21 45
M  V30 49 1 21 46
M  V30 50 1 23 47
M  V30 51 1 23 48
M  V30 52 1 24 49
M  V30 53 1 24 50
M  V30 54 1 25 51
M  V30 55 1 26 52
M  V30 END BOND
M  V30 END CTAB
M  END
>  <Dataset>  (390) 
ChEMBL_Kinases

>  <Ligand_Instance>  (390) 
nan

>  <PDB_ID>  (390) 
nan

>  <Standardized_SMILES>  (390) 
CCNc1nc(C)c(-c2ccnc(Nc3ccc(N4CCOCC4)cc3)n2)s1

>  <Name>  (390) 
nan

>  <Pocket>  (390) 
nan

>  <ATP_Site>  (390) 
nan

>  <Peripheral>  (390) 
nan

>  <Num_H_Atoms_ProtBoundConf>  (390) 
nan

>  <Num_Resolved_Atoms>  (390) 
nan

>  <Num_Not_Resolved_Atoms>  (390) 
nan

$$$$
CHEMBL463931
     RDKit          3D

  0  0  0  0  0  0  0  0  0  0999 V3000
M  V30 BEGIN CTAB
M  V30 COUNTS 71 75 0 0 0
M  V30 BEGIN ATOM
M  V30 1 C 2.093854 -2.054057 5.342492 0
M  V30 2 O 1.248922 -2.411921 4.262902 0
M  V30 3 C 1.250142 -1.584626 3.150951 0
M  V30 4 C 2.033279 -0.453332 3.073942 0
M  V30 5 C 2.087996 0.425498 1.991174 0
M  V30 6 C 1.275080 0.107392 0.917899 0
M  V30 7 C 0.448601 -1.026438 0.917777 0
M  V30 8 C 0.468527 -1.836738 2.046115 0
M  V30 9 N -0.374546 -2.974379 2.080868 0
M  V30 10 C -1.283437 -3.644973 1.220670 0
M  V30 11 N -2.429850 -2.999248 0.956159 0
M  V30 12 C -3.379167 -3.534640 0.168403 0
M  V30 13 N -4.610747 -2.916680 -0.185410 0
M  V30 14 C -4.909753 -1.581934 0.205815 0
M  V30 15 C -5.956090 -1.264728 1.023338 0
M  V30 16 C -6.111592 0.132859 1.310887 0
M  V30 17 S -4.702994 0.879786 0.354658 0
M  V30 18 C -4.117093 -0.631205 -0.268451 0
M  V30 19 C -2.958820 -0.597880 -1.161377 0
M  V30 20 N -2.209125 0.540230 -1.509841 0
M  V30 21 O -2.427897 -1.589134 -1.775621 0
M  V30 22 C -3.106052 -4.796221 -0.355848 0
M  V30 23 C -3.871452 -5.616366 -1.193202 0
M  V30 24 C -3.125382 -6.757295 -1.401256 0
M  V30 25 N -1.966156 -6.676972 -0.746616 0
M  V30 26 C -1.931142 -5.489711 -0.101372 0
M  V30 27 N -1.014930 -4.880323 0.706896 0
M  V30 28 N 1.308463 1.010400 -0.205077 0
M  V30 29 C 1.143313 0.465829 -1.505479 0
M  V30 30 O 1.014041 -0.729380 -1.833261 0
M  V30 31 C 1.138489 1.540899 -2.519109 0
M  V30 32 N 0.976659 1.096975 -3.865521 0
M  V30 33 C 1.029409 2.282969 -4.733219 0
M  V30 34 C -0.248967 0.425136 -4.162173 0
M  V30 35 C 1.527715 2.393961 0.187433 0
M  V30 36 C 2.783741 2.553059 0.988546 0
M  V30 37 C 2.990071 1.577111 2.088884 0
M  V30 38 C 4.450519 1.121827 2.035965 0
M  V30 39 C 2.828348 2.314495 3.407515 0
M  V30 40 H 1.736454 -1.092131 5.730563 0
M  V30 41 H 3.147142 -1.982255 4.976420 0
M  V30 42 H 2.092510 -2.824100 6.136726 0
M  V30 43 H 2.652467 -0.249244 3.940138 0
M  V30 44 H -0.154847 -1.198129 0.040042 0
M  V30 45 H -0.437601 -3.590527 2.933128 0
M  V30 46 H -5.317168 -3.429601 -0.737651 0
M  V30 47 H -6.637796 -2.002843 1.438624 0
M  V30 48 H -7.000303 0.454195 2.011850 0
M  V30 49 H -1.785249 1.400107 -1.064077 0
M  V30 50 H -1.802581 1.388084 -1.013954 0
M  V30 51 H -4.865888 -5.371914 -1.589254 0
M  V30 52 H -3.461770 -7.583463 -2.014651 0
M  V30 53 H -1.182055 -7.377773 -0.702160 0
M  V30 54 H 0.346315 2.300790 -2.326970 0
M  V30 55 H 2.096747 2.118679 -2.476895 0
M  V30 56 H 0.048881 2.463411 -5.224370 0
M  V30 57 H 1.251829 3.201437 -4.135377 0
M  V30 58 H 1.779058 2.191563 -5.532970 0
M  V30 59 H -0.519181 -0.415114 -3.516166 0
M  V30 60 H -1.129427 1.103220 -4.262831 0
M  V30 61 H -0.132361 -0.021612 -5.194095 0
M  V30 62 H 0.642748 2.775516 0.723404 0
M  V30 63 H 1.628852 3.015436 -0.719077 0
M  V30 64 H 2.766274 3.609269 1.377545 0
M  V30 65 H 3.656651 2.508762 0.282283 0
M  V30 66 H 4.637939 0.542015 1.103668 0
M  V30 67 H 5.062290 2.045418 2.057318 0
M  V30 68 H 4.699714 0.535878 2.939585 0
M  V30 69 H 3.475167 3.214455 3.355089 0
M  V30 70 H 1.779818 2.635988 3.567119 0
M  V30 71 H 3.200668 1.684809 4.250138 0
M  V30 END ATOM
M  V30 BEGIN BOND
M  V30 1 1 1 2
M  V30 2 1 2 3
M  V30 3 2 3 4
M  V30 4 1 4 5
M  V30 5 2 5 6
M  V30 6 1 6 7
M  V30 7 2 7 8
M  V30 8 1 8 9
M  V30 9 1 9 10
M  V30 10 2 10 11
M  V30 11 1 11 12
M  V30 12 1 12 13
M  V30 13 1 13 14
M  V30 14 1 14 15
M  V30 15 2 15 16
M  V30 16 1 16 17
M  V30 17 1 17 18
M  V30 18 1 18 19
M  V30 19 1 19 20
M  V30 20 2 19 21
M  V30 21 2 12 22
M  V30 22 1 22 23
M  V30 23 2 23 24
M  V30 24 1 24 25
M  V30 25 1 25 26
M  V30 26 2 26 27
M  V30 27 1 6 28
M  V30 28 1 28 29
M  V30 29 2 29 30
M  V30 30 1 29 31
M  V30 31 1 31 32
M  V30 32 1 32 33
M  V30 33 1 32 34
M  V30 34 1 28 35
M  V30 35 1 35 36
M  V30 36 1 36 37
M  V30 37 1 37 38
M  V30 38 1 37 39
M  V30 39 1 8 3
M  V30 40 1 27 10
M  V30 41 1 37 5
M  V30 42 2 18 14
M  V30 43 1 26 22
M  V30 44 1 1 40
M  V30 45 1 1 41
M  V30 46 1 1 42
M  V30 47 1 4 43
M  V30 48 1 7 44
M  V30 49 1 9 45
M  V30 50 1 13 46
M  V30 51 1 15 47
M  V30 52 1 16 48
M  V30 53 1 20 49
M  V30 54 1 20 50
M  V30 55 1 23 51
M  V30 56 1 24 52
M  V30 57 1 25 53
M  V30 58 1 31 54
M  V30 59 1 31 55
M  V30 60 1 33 56
M  V30 61 1 33 57
M  V30 62 1 33 58
M  V30 63 1 34 59
M  V30 64 1 34 60
M  V30 65 1 34 61
M  V30 66 1 35 62
M  V30 67 1 35 63
M  V30 68 1 36 64
M  V30 69 1 36 65
M  V30 70 1 38 66
M  V30 71 1 38 67
M  V30 72 1 38 68
M  V30 73 1 39 69
M  V30 74 1 39 70
M  V30 75 1 39 71
M  V30 END BOND
M  V30 END CTAB
M  END
>  <Dataset>  (391) 
ChEMBL_Kinases

>  <Ligand_Instance>  (391) 
nan

>  <PDB_ID>  (391) 
nan

>  <Standardized_SMILES>  (391) 
COc1cc2c(cc1Nc1nc(Nc3ccsc3C(N)=O)c3cc[nH]c3n1)N(C(=O)CN(C)C)CCC2(C)C

>  <Name>  (391) 
GSK-2163632A

>  <Pocket>  (391) 
nan

>  <ATP_Site>  (391) 
nan

>  <Peripheral>  (391) 
nan

>  <Num_H_Atoms_ProtBoundConf>  (391) 
nan

>  <Num_Resolved_Atoms>  (391) 
nan

>  <Num_Not_Resolved_Atoms>  (391) 
nan

$$$$
CHEMBL4634025
     RDKit          3D

  0  0  0  0  0  0  0  0  0  0999 V3000
M  V30 BEGIN CTAB
M  V30 COUNTS 61 65 0 0 0
M  V30 BEGIN ATOM
M  V30 1 C 2.634228 2.074527 -1.547075 0
M  V30 2 C 2.240328 1.451782 -0.271343 0
M  V30 3 C 2.982983 1.595962 0.879740 0
M  V30 4 C 2.631601 1.022231 2.078496 0
M  V30 5 N 3.400917 1.179717 3.258716 0
M  V30 6 C 4.587310 2.000760 3.347390 0
M  V30 7 C 4.611985 2.731030 4.674503 0
M  V30 8 C 3.214475 2.937667 5.226269 0
M  V30 9 O 3.351708 3.516462 6.491648 0
M  V30 10 C 2.487999 1.623449 5.402264 0
M  V30 11 C 3.104599 0.542992 4.522520 0
M  V30 12 C 1.472474 0.286619 2.042732 0
M  V30 13 C 0.692902 0.110840 0.919133 0
M  V30 14 C 1.087978 0.712189 -0.277710 0
M  V30 15 N 0.280021 0.532036 -1.433198 0
M  V30 16 C -0.923363 -0.228442 -1.509775 0
M  V30 17 N -2.067418 0.419046 -1.217158 0
M  V30 18 C -3.276084 -0.211634 -1.260132 0
M  V30 19 C -3.260223 -1.549308 -1.620152 0
M  V30 20 C -2.092019 -2.227382 -1.923575 0
M  V30 21 N -0.907737 -1.547499 -1.864741 0
M  V30 22 N -1.856662 -3.578345 -2.311924 0
M  V30 23 C -0.637696 -3.863710 -3.004589 0
M  V30 24 C -2.737522 -4.691545 -2.070896 0
M  V30 25 C -2.036746 -5.881043 -2.212571 0
M  V30 26 C -2.779564 -7.040480 -2.003648 0
M  V30 27 C -4.121200 -7.033554 -1.677302 0
M  V30 28 C -4.764062 -5.809595 -1.550571 0
M  V30 29 C -4.080339 -4.626145 -1.745701 0
M  V30 30 C -4.932687 -3.455288 -1.567239 0
M  V30 31 O -6.144644 -3.663388 -1.333053 0
M  V30 32 N -4.588055 -2.068396 -1.619919 0
M  V30 33 C -5.652395 -1.077453 -1.678473 0
M  V30 34 H 1.905142 2.789801 -1.946722 0
M  V30 35 H 2.797996 1.313659 -2.357046 0
M  V30 36 H 3.628990 2.557408 -1.392486 0
M  V30 37 H 3.857870 2.190474 0.767272 0
M  V30 38 H 5.454571 1.280492 3.383326 0
M  V30 39 H 4.775688 2.650752 2.498510 0
M  V30 40 H 5.032984 3.740505 4.482433 0
M  V30 41 H 5.283119 2.249194 5.413387 0
M  V30 42 H 2.686611 3.653376 4.564336 0
M  V30 43 H 2.522613 3.955070 6.794473 0
M  V30 44 H 2.476151 1.298963 6.456633 0
M  V30 45 H 1.445612 1.763590 5.053418 0
M  V30 46 H 4.040196 0.216576 5.047903 0
M  V30 47 H 2.403377 -0.296133 4.424357 0
M  V30 48 H 1.080255 -0.216199 2.911470 0
M  V30 49 H -0.211934 -0.467405 0.905916 0
M  V30 50 H 0.593374 1.001319 -2.318691 0
M  V30 51 H -4.174077 0.316236 -1.024680 0
M  V30 52 H -0.779523 -4.488943 -3.935115 0
M  V30 53 H -0.234341 -2.904150 -3.447980 0
M  V30 54 H 0.188957 -4.234394 -2.362644 0
M  V30 55 H -0.987664 -5.898981 -2.467448 0
M  V30 56 H -2.255942 -8.001622 -2.108214 0
M  V30 57 H -4.691308 -7.938097 -1.516717 0
M  V30 58 H -5.822894 -5.762966 -1.293851 0
M  V30 59 H -5.462273 -0.319722 -2.472139 0
M  V30 60 H -5.942302 -0.669690 -0.706170 0
M  V30 61 H -6.562152 -1.623830 -2.060765 0
M  V30 END ATOM
M  V30 BEGIN BOND
M  V30 1 1 1 2
M  V30 2 2 2 3
M  V30 3 1 3 4
M  V30 4 1 4 5
M  V30 5 1 5 6
M  V30 6 1 6 7
M  V30 7 1 7 8
M  V30 8 1 8 9
M  V30 9 1 8 10
M  V30 10 1 10 11
M  V30 11 2 4 12
M  V30 12 1 12 13
M  V30 13 2 13 14
M  V30 14 1 14 15
M  V30 15 1 15 16
M  V30 16 2 16 17
M  V30 17 1 17 18
M  V30 18 2 18 19
M  V30 19 1 19 20
M  V30 20 2 20 21
M  V30 21 1 20 22
M  V30 22 1 22 23
M  V30 23 1 22 24
M  V30 24 2 24 25
M  V30 25 1 25 26
M  V30 26 2 26 27
M  V30 27 1 27 28
M  V30 28 2 28 29
M  V30 29 1 29 30
M  V30 30 2 30 31
M  V30 31 1 30 32
M  V30 32 1 32 33
M  V30 33 1 14 2
M  V30 34 1 21 16
M  V30 35 1 29 24
M  V30 36 1 11 5
M  V30 37 1 32 19
M  V30 38 1 1 34
M  V30 39 1 1 35
M  V30 40 1 1 36
M  V30 41 1 3 37
M  V30 42 1 6 38
M  V30 43 1 6 39
M  V30 44 1 7 40
M  V30 45 1 7 41
M  V30 46 1 8 42
M  V30 47 1 9 43
M  V30 48 1 10 44
M  V30 49 1 10 45
M  V30 50 1 11 46
M  V30 51 1 11 47
M  V30 52 1 12 48
M  V30 53 1 13 49
M  V30 54 1 15 50
M  V30 55 1 18 51
M  V30 56 1 23 52
M  V30 57 1 23 53
M  V30 58 1 23 54
M  V30 59 1 25 55
M  V30 60 1 26 56
M  V30 61 1 27 57
M  V30 62 1 28 58
M  V30 63 1 33 59
M  V30 64 1 33 60
M  V30 65 1 33 61
M  V30 END BOND
M  V30 END CTAB
M  END
>  <Dataset>  (392) 
ChEMBL_Kinases

>  <Ligand_Instance>  (392) 
nan

>  <PDB_ID>  (392) 
nan

>  <Standardized_SMILES>  (392) 
Cc1cc(N2CCC(O)CC2)ccc1Nc1ncc2c(n1)N(C)c1ccccc1C(=O)N2C

>  <Name>  (392) 
nan

>  <Pocket>  (392) 
nan

>  <ATP_Site>  (392) 
nan

>  <Peripheral>  (392) 
nan

>  <Num_H_Atoms_ProtBoundConf>  (392) 
nan

>  <Num_Resolved_Atoms>  (392) 
nan

>  <Num_Not_Resolved_Atoms>  (392) 
nan

$$$$
CHEMBL1084629
     RDKit          3D

  0  0  0  0  0  0  0  0  0  0999 V3000
M  V30 BEGIN CTAB
M  V30 COUNTS 49 52 0 0 0
M  V30 BEGIN ATOM
M  V30 1 C 3.328102 -5.256741 2.558621 0
M  V30 2 N 3.378201 -4.887227 1.145157 0
M  V30 3 C 3.654852 -3.448329 0.970392 0
M  V30 4 N 4.623572 -2.882564 0.869376 0
M  V30 5 C 4.901578 -1.608371 0.713310 0
M  V30 6 C 6.262153 -1.024807 0.594636 0
M  V30 7 C 3.807949 -0.759491 0.657364 0
M  V30 8 C 3.492431 0.655713 0.506957 0
M  V30 9 C 4.367734 1.691495 0.361724 0
M  V30 10 C 4.015403 3.008646 0.222240 0
M  V30 11 N 2.700731 3.261197 0.234023 0
M  V30 12 C 1.813164 2.263110 0.375335 0
M  V30 13 N 0.441473 2.633908 0.376222 0
M  V30 14 C -0.736256 1.850451 0.500100 0
M  V30 15 C -2.017030 2.416339 0.488128 0
M  V30 16 C -3.160134 1.667803 0.606860 0
M  V30 17 C -3.107091 0.299147 0.746262 0
M  V30 18 N -4.287082 -0.487700 0.868716 0
M  V30 19 C -4.368130 -1.928431 1.050342 0
M  V30 20 C -4.922320 -2.473911 -0.268880 0
M  V30 21 O -5.436805 -1.470404 -1.065008 0
M  V30 22 C -6.286005 -0.615448 -0.397545 0
M  V30 23 C -5.641057 0.036009 0.826887 0
M  V30 24 C -1.873675 -0.314203 0.764813 0
M  V30 25 C -0.750645 0.478260 0.642280 0
M  V30 26 N 2.202590 0.998295 0.507680 0
M  V30 27 S 2.426416 -2.012064 0.852340 0
M  V30 28 H 4.354919 -5.238804 3.009395 0
M  V30 29 H 2.904910 -6.266912 2.613370 0
M  V30 30 H 2.695145 -4.525654 3.096042 0
M  V30 31 H 3.226503 -5.609107 0.382328 0
M  V30 32 H 6.399637 -0.507231 -0.373508 0
M  V30 33 H 6.468792 -0.313018 1.429304 0
M  V30 34 H 7.050263 -1.818013 0.597316 0
M  V30 35 H 5.406720 1.441341 0.359151 0
M  V30 36 H 4.792624 3.746343 0.114048 0
M  V30 37 H 0.210072 3.671227 0.267249 0
M  V30 38 H -2.104890 3.509322 0.378461 0
M  V30 39 H -4.076610 2.206111 0.584259 0
M  V30 40 H -5.149670 -2.218086 1.811292 0
M  V30 41 H -3.427111 -2.408628 1.324594 0
M  V30 42 H -5.606980 -3.324601 -0.121990 0
M  V30 43 H -4.036896 -2.905952 -0.822149 0
M  V30 44 H -7.213060 -1.170426 -0.121036 0
M  V30 45 H -6.596512 0.181576 -1.096464 0
M  V30 46 H -6.197585 -0.309321 1.746800 0
M  V30 47 H -5.731961 1.113049 0.823392 0
M  V30 48 H -1.772551 -1.387201 0.870740 0
M  V30 49 H 0.167020 -0.064147 0.664671 0
M  V30 END ATOM
M  V30 BEGIN BOND
M  V30 1 1 1 2
M  V30 2 1 2 3
M  V30 3 2 3 4
M  V30 4 1 4 5
M  V30 5 1 5 6
M  V30 6 2 5 7
M  V30 7 1 7 8
M  V30 8 2 8 9
M  V30 9 1 9 10
M  V30 10 2 10 11
M  V30 11 1 11 12
M  V30 12 1 12 13
M  V30 13 1 13 14
M  V30 14 2 14 15
M  V30 15 1 15 16
M  V30 16 2 16 17
M  V30 17 1 17 18
M  V30 18 1 18 19
M  V30 19 1 19 20
M  V30 20 1 20 21
M  V30 21 1 21 22
M  V30 22 1 22 23
M  V30 23 1 17 24
M  V30 24 2 24 25
M  V30 25 2 12 26
M  V30 26 1 7 27
M  V30 27 1 27 3
M  V30 28 1 26 8
M  V30 29 1 25 14
M  V30 30 1 23 18
M  V30 31 1 1 28
M  V30 32 1 1 29
M  V30 33 1 1 30
M  V30 34 1 2 31
M  V30 35 1 6 32
M  V30 36 1 6 33
M  V30 37 1 6 34
M  V30 38 1 9 35
M  V30 39 1 10 36
M  V30 40 1 13 37
M  V30 41 1 15 38
M  V30 42 1 16 39
M  V30 43 1 19 40
M  V30 44 1 19 41
M  V30 45 1 20 42
M  V30 46 1 20 43
M  V30 47 1 22 44
M  V30 48 1 22 45
M  V30 49 1 23 46
M  V30 50 1 23 47
M  V30 51 1 24 48
M  V30 52 1 25 49
M  V30 END BOND
M  V30 END CTAB
M  END
>  <Dataset>  (393) 
ChEMBL_Kinases

>  <Ligand_Instance>  (393) 
nan

>  <PDB_ID>  (393) 
nan

>  <Standardized_SMILES>  (393) 
CNc1nc(C)c(-c2ccnc(Nc3ccc(N4CCOCC4)cc3)n2)s1

>  <Name>  (393) 
nan

>  <Pocket>  (393) 
nan

>  <ATP_Site>  (393) 
nan

>  <Peripheral>  (393) 
nan

>  <Num_H_Atoms_ProtBoundConf>  (393) 
nan

>  <Num_Resolved_Atoms>  (393) 
nan

>  <Num_Not_Resolved_Atoms>  (393) 
nan

$$$$
CHEMBL4640881
     RDKit          3D

  0  0  0  0  0  0  0  0  0  0999 V3000
M  V30 BEGIN CTAB
M  V30 COUNTS 52 56 0 0 0
M  V30 BEGIN ATOM
M  V30 1 C 2.037522 -4.396855 -2.487607 0
M  V30 2 N 3.052193 -4.821995 -1.541148 0
M  V30 3 C 4.053484 -3.820638 -1.475752 0
M  V30 4 C 3.928818 -2.843611 -0.354843 0
M  V30 5 N 2.748456 -3.062782 0.457347 0
M  V30 6 C 1.725537 -2.139115 0.794404 0
M  V30 7 C 1.793485 -0.853001 0.308668 0
M  V30 8 C 0.716111 -0.070478 0.728543 0
M  V30 9 C 0.592699 1.315997 0.331034 0
M  V30 10 C -0.475065 1.750904 -0.424836 0
M  V30 11 C -0.618259 3.080809 -0.820701 0
M  V30 12 N 0.304211 3.985548 -0.464307 0
M  V30 13 C 1.355250 3.604364 0.268809 0
M  V30 14 C 1.518111 2.290147 0.673081 0
M  V30 15 C -0.309352 -0.550460 1.549338 0
M  V30 16 C -1.412820 0.302788 1.959268 0
M  V30 17 C -1.210937 1.428403 2.719499 0
M  V30 18 C -2.328296 2.165659 3.052496 0
M  V30 19 C -3.621093 1.822331 2.658180 0
M  V30 20 C -4.714887 2.587268 3.012472 0
M  V30 21 C -5.984495 2.185824 2.583533 0
M  V30 22 C -6.112214 1.028681 1.812700 0
M  V30 23 F -7.357309 0.678517 1.420393 0
M  V30 24 C -5.017294 0.285513 1.472666 0
M  V30 25 C -3.769048 0.673814 1.890150 0
M  V30 26 C -2.682839 -0.074006 1.546093 0
M  V30 27 N -0.275770 -1.847890 1.974125 0
M  V30 28 N 0.753460 -2.620009 1.581546 0
M  V30 29 C 2.780296 -4.448662 0.891166 0
M  V30 30 C 2.425490 -5.242607 -0.348638 0
M  V30 31 H 1.726435 -5.232727 -3.157137 0
M  V30 32 H 2.408489 -3.549002 -3.098884 0
M  V30 33 H 1.131154 -4.113697 -1.914957 0
M  V30 34 H 5.043088 -4.314027 -1.402095 0
M  V30 35 H 4.098220 -3.274519 -2.463626 0
M  V30 36 H 4.017036 -1.812790 -0.748882 0
M  V30 37 H 4.785761 -2.957997 0.341145 0
M  V30 38 H 2.558281 -0.465081 -0.313566 0
M  V30 39 H -1.231609 1.036298 -0.723419 0
M  V30 40 H -1.471972 3.416047 -1.421613 0
M  V30 41 H 2.115062 4.331169 0.566513 0
M  V30 42 H 2.393157 2.006683 1.275394 0
M  V30 43 H -0.213351 1.721417 3.041752 0
M  V30 44 H -2.250230 3.062984 3.647493 0
M  V30 45 H -4.537442 3.472352 3.611848 0
M  V30 46 H -6.836346 2.796205 2.869051 0
M  V30 47 H -5.134636 -0.615255 0.869765 0
M  V30 48 H -2.819078 -0.980804 0.936768 0
M  V30 49 H 3.758555 -4.761102 1.307127 0
M  V30 50 H 1.956745 -4.558867 1.625980 0
M  V30 51 H 1.301013 -5.178673 -0.437172 0
M  V30 52 H 2.670567 -6.319613 -0.195475 0
M  V30 END ATOM
M  V30 BEGIN BOND
M  V30 1 1 1 2
M  V30 2 1 2 3
M  V30 3 1 3 4
M  V30 4 1 4 5
M  V30 5 1 5 6
M  V30 6 2 6 7
M  V30 7 1 7 8
M  V30 8 1 8 9
M  V30 9 2 9 10
M  V30 10 1 10 11
M  V30 11 2 11 12
M  V30 12 1 12 13
M  V30 13 2 13 14
M  V30 14 2 8 15
M  V30 15 1 15 16
M  V30 16 2 16 17
M  V30 17 1 17 18
M  V30 18 2 18 19
M  V30 19 1 19 20
M  V30 20 2 20 21
M  V30 21 1 21 22
M  V30 22 1 22 23
M  V30 23 2 22 24
M  V30 24 1 24 25
M  V30 25 2 25 26
M  V30 26 1 15 27
M  V30 27 2 27 28
M  V30 28 1 5 29
M  V30 29 1 29 30
M  V30 30 1 30 2
M  V30 31 1 28 6
M  V30 32 1 14 9
M  V30 33 1 26 16
M  V30 34 1 25 19
M  V30 35 1 1 31
M  V30 36 1 1 32
M  V30 37 1 1 33
M  V30 38 1 3 34
M  V30 39 1 3 35
M  V30 40 1 4 36
M  V30 41 1 4 37
M  V30 42 1 7 38
M  V30 43 1 10 39
M  V30 44 1 11 40
M  V30 45 1 13 41
M  V30 46 1 14 42
M  V30 47 1 17 43
M  V30 48 1 18 44
M  V30 49 1 20 45
M  V30 50 1 21 46
M  V30 51 1 24 47
M  V30 52 1 26 48
M  V30 53 1 29 49
M  V30 54 1 29 50
M  V30 55 1 30 51
M  V30 56 1 30 52
M  V30 END BOND
M  V30 END CTAB
M  END
>  <Dataset>  (394) 
ChEMBL_Kinases

>  <Ligand_Instance>  (394) 
nan

>  <PDB_ID>  (394) 
nan

>  <Standardized_SMILES>  (394) 
CN1CCN(c2cc(-c3ccncc3)c(-c3ccc4ccc(F)cc4c3)nn2)CC1

>  <Name>  (394) 
nan

>  <Pocket>  (394) 
nan

>  <ATP_Site>  (394) 
nan

>  <Peripheral>  (394) 
nan

>  <Num_H_Atoms_ProtBoundConf>  (394) 
nan

>  <Num_Resolved_Atoms>  (394) 
nan

>  <Num_Not_Resolved_Atoms>  (394) 
nan

$$$$
CHEMBL1080901
     RDKit          3D

  0  0  0  0  0  0  0  0  0  0999 V3000
M  V30 BEGIN CTAB
M  V30 COUNTS 50 53 0 0 0
M  V30 BEGIN ATOM
M  V30 1 N -0.207622 -0.593995 4.676449 0
M  V30 2 C 0.084647 -1.402904 3.505694 0
M  V30 3 N 1.397137 -1.935431 3.753644 0
M  V30 4 C 1.964872 -2.775422 2.862288 0
M  V30 5 N 3.196035 -3.412596 2.698738 0
M  V30 6 C 3.887193 -2.190910 2.308233 0
M  V30 7 C 3.253573 -1.377364 1.269947 0
M  V30 8 N 3.090616 -1.810636 -0.075350 0
M  V30 9 C 2.232184 -0.784132 -0.675897 0
M  V30 10 N 2.922542 0.397361 -0.875106 0
M  V30 11 C 2.104067 1.466052 -1.267749 0
M  V30 12 C 0.727965 1.270412 -1.426781 0
M  V30 13 C -0.437452 2.163523 -1.452256 0
M  V30 14 N -0.068722 2.917075 -0.357406 0
M  V30 15 C -0.975153 3.784217 0.021947 0
M  V30 16 C -2.023896 3.615863 -0.878986 0
M  V30 17 N -1.637791 2.648163 -1.711566 0
M  V30 18 C 0.087903 0.041440 -1.234177 0
M  V30 19 C -1.249128 -0.625749 -1.256204 0
M  V30 20 C -2.269405 -0.150079 -0.457272 0
M  V30 21 C -3.527284 -0.791810 -0.366681 0
M  V30 22 C -3.633145 -1.909478 -1.146470 0
M  V30 23 Cl -5.178758 -2.771770 -1.158250 0
M  V30 24 C -2.681011 -2.471237 -1.988645 0
M  V30 25 C -1.476760 -1.744047 -1.982124 0
M  V30 26 Cl -0.193105 -2.357285 -2.982139 0
M  V30 27 N 0.961071 -0.950862 -0.844291 0
M  V30 28 C 1.204660 -3.056028 1.773411 0
M  V30 29 C -0.029650 -2.466943 1.668429 0
M  V30 30 C -0.789025 -1.632179 2.359000 0
M  V30 31 N -1.921245 -0.975188 2.834002 0 CHG=1 VAL=4
M  V30 32 O -2.005457 0.283185 2.964283 0
M  V30 33 O -1.164151 0.245808 2.535245 0 CHG=-1 VAL=1
M  V30 34 H 0.479099 0.144071 4.974456 0
M  V30 35 H -1.176994 -0.794739 5.144999 0
M  V30 36 H 3.512706 -4.373333 2.792317 0
M  V30 37 H 4.066991 -1.528301 3.203664 0
M  V30 38 H 4.907107 -2.452520 1.934304 0
M  V30 39 H 2.299844 -0.857765 1.657458 0
M  V30 40 H 3.940722 -0.432881 1.185440 0
M  V30 41 H 3.540385 -2.696957 -0.333082 0
M  V30 42 H 2.254738 2.488226 -1.471933 0
M  V30 43 H -0.995668 4.481719 0.862953 0
M  V30 44 H -2.984122 4.091021 -0.943107 0
M  V30 45 H -1.861273 2.061953 -2.540185 0
M  V30 46 H -2.243416 0.711521 0.150328 0
M  V30 47 H -4.327224 -0.449141 0.299681 0
M  V30 48 H -2.795763 -3.349654 -2.572632 0
M  V30 49 H 1.396253 -3.673051 0.897311 0
M  V30 50 H -0.757569 -2.658660 0.833335 0
M  V30 END ATOM
M  V30 BEGIN BOND
M  V30 1 1 1 2
M  V30 2 2 2 3
M  V30 3 1 3 4
M  V30 4 1 4 5
M  V30 5 1 5 6
M  V30 6 1 6 7
M  V30 7 1 7 8
M  V30 8 1 8 9
M  V30 9 2 9 10
M  V30 10 1 10 11
M  V30 11 2 11 12
M  V30 12 1 12 13
M  V30 13 2 13 14
M  V30 14 1 14 15
M  V30 15 2 15 16
M  V30 16 1 16 17
M  V30 17 1 12 18
M  V30 18 1 18 19
M  V30 19 2 19 20
M  V30 20 1 20 21
M  V30 21 2 21 22
M  V30 22 1 22 23
M  V30 23 1 22 24
M  V30 24 2 24 25
M  V30 25 1 25 26
M  V30 26 2 18 27
M  V30 27 2 4 28
M  V30 28 1 28 29
M  V30 29 2 29 30
M  V30 30 1 30 31
M  V30 31 2 31 32
M  V30 32 1 31 33
M  V30 33 1 30 2
M  V30 34 1 27 9
M  V30 35 1 17 13
M  V30 36 1 25 19
M  V30 37 1 1 34
M  V30 38 1 1 35
M  V30 39 1 5 36
M  V30 40 1 6 37
M  V30 41 1 6 38
M  V30 42 1 7 39
M  V30 43 1 7 40
M  V30 44 1 8 41
M  V30 45 1 11 42
M  V30 46 1 15 43
M  V30 47 1 16 44
M  V30 48 1 17 45
M  V30 49 1 20 46
M  V30 50 1 21 47
M  V30 51 1 24 48
M  V30 52 1 28 49
M  V30 53 1 29 50
M  V30 END BOND
M  V30 END CTAB
M  END
>  <Dataset>  (395) 
ChEMBL_Kinases

>  <Ligand_Instance>  (395) 
nan

>  <PDB_ID>  (395) 
nan

>  <Standardized_SMILES>  (395) 
Nc1nc(NCCNc2ncc(-c3ncc[nH]3)c(-c3ccc(Cl)cc3Cl)n2)ccc1[N+](=O)[O-]

>  <Name>  (395) 
nan

>  <Pocket>  (395) 
nan

>  <ATP_Site>  (395) 
nan

>  <Peripheral>  (395) 
nan

>  <Num_H_Atoms_ProtBoundConf>  (395) 
nan

>  <Num_Resolved_Atoms>  (395) 
nan

>  <Num_Not_Resolved_Atoms>  (395) 
nan

$$$$
CHEMBL572513
     RDKit          3D

  0  0  0  0  0  0  0  0  0  0999 V3000
M  V30 BEGIN CTAB
M  V30 COUNTS 36 39 0 0 0
M  V30 BEGIN ATOM
M  V30 1 O 0.311652 -0.087767 4.950588 0
M  V30 2 C 0.527452 -0.192732 3.717859 0
M  V30 3 N 0.972845 -1.258904 3.041556 0
M  V30 4 C 1.130377 -1.140936 1.713752 0
M  V30 5 C 1.626428 -2.317335 0.954774 0
M  V30 6 N 0.631093 -3.197565 0.466079 0
M  V30 7 C 1.081632 -4.335473 -0.266725 0
M  V30 8 C 0.008759 -4.682902 -1.271235 0
M  V30 9 C -0.757004 -3.402005 -1.464686 0 CFG=2
M  V30 10 O -0.359791 -2.728696 -2.612027 0
M  V30 11 C -0.465213 -2.606570 -0.204796 0
M  V30 12 N 0.880286 -0.042518 0.994181 0
M  V30 13 C 0.430836 1.099400 1.531668 0
M  V30 14 C 0.270326 0.941447 2.967849 0
M  V30 15 S -0.353754 2.624980 3.504668 0
M  V30 16 C -0.339777 3.321810 1.879249 0
M  V30 17 C -0.688842 4.570293 1.505605 0
M  V30 18 C -0.615939 4.948028 0.181148 0
M  V30 19 C -0.169524 3.951028 -0.658255 0
M  V30 20 Cl -0.068879 4.417596 -2.366189 0
M  V30 21 C 0.186214 2.682775 -0.286481 0
M  V30 22 C 0.104544 2.330080 1.042494 0
M  V30 23 H 1.163319 -2.103691 3.607350 0
M  V30 24 H 2.224467 -1.970492 0.072957 0
M  V30 25 H 2.343949 -2.896730 1.581031 0
M  V30 26 H 2.000501 -4.010957 -0.835272 0
M  V30 27 H 1.407420 -5.192098 0.343517 0
M  V30 28 H 0.406523 -4.979616 -2.262596 0
M  V30 29 H -0.664589 -5.498639 -0.890171 0
M  V30 30 H -1.836695 -3.682241 -1.541485 0
M  V30 31 H -0.221954 -1.754200 -2.426035 0
M  V30 32 H -0.158105 -1.579396 -0.553157 0
M  V30 33 H -1.405674 -2.572099 0.377350 0
M  V30 34 H -1.020649 5.258697 2.245145 0
M  V30 35 H -0.886647 5.937277 -0.154804 0
M  V30 36 H 0.518080 2.023278 -1.089923 0
M  V30 END ATOM
M  V30 BEGIN BOND
M  V30 1 2 1 2
M  V30 2 1 2 3
M  V30 3 1 3 4
M  V30 4 1 4 5
M  V30 5 1 5 6
M  V30 6 1 6 7
M  V30 7 1 7 8
M  V30 8 1 8 9
M  V30 9 1 9 10
M  V30 10 1 9 11
M  V30 11 2 4 12
M  V30 12 1 12 13
M  V30 13 2 13 14
M  V30 14 1 14 15
M  V30 15 1 15 16
M  V30 16 2 16 17
M  V30 17 1 17 18
M  V30 18 2 18 19
M  V30 19 1 19 20
M  V30 20 1 19 21
M  V30 21 2 21 22
M  V30 22 1 14 2
M  V30 23 1 22 16
M  V30 24 1 11 6
M  V30 25 1 22 13
M  V30 26 1 3 23
M  V30 27 1 5 24
M  V30 28 1 5 25
M  V30 29 1 7 26
M  V30 30 1 7 27
M  V30 31 1 8 28
M  V30 32 1 8 29
M  V30 33 1 9 30 CFG=3
M  V30 34 1 10 31
M  V30 35 1 11 32
M  V30 36 1 11 33
M  V30 37 1 17 34
M  V30 38 1 18 35
M  V30 39 1 21 36
M  V30 END BOND
M  V30 END CTAB
M  END
>  <Dataset>  (396) 
ChEMBL_Kinases

>  <Ligand_Instance>  (396) 
nan

>  <PDB_ID>  (396) 
nan

>  <Standardized_SMILES>  (396) 
O=c1[nH]c(CN2CC[C@H](O)C2)nc2c1sc1ccc(Cl)cc12

>  <Name>  (396) 
nan

>  <Pocket>  (396) 
nan

>  <ATP_Site>  (396) 
nan

>  <Peripheral>  (396) 
nan

>  <Num_H_Atoms_ProtBoundConf>  (396) 
nan

>  <Num_Resolved_Atoms>  (396) 
nan

>  <Num_Not_Resolved_Atoms>  (396) 
nan

$$$$
CHEMBL2088218
     RDKit          3D

  0  0  0  0  0  0  0  0  0  0999 V3000
M  V30 BEGIN CTAB
M  V30 COUNTS 55 59 0 0 0
M  V30 BEGIN ATOM
M  V30 1 C 2.034001 -5.336193 3.503094 0
M  V30 2 O 0.912937 -4.505202 3.415165 0
M  V30 3 C 0.973762 -3.132268 3.333206 0
M  V30 4 C 2.149759 -2.404761 3.325973 0
M  V30 5 C 2.125242 -1.035140 3.241034 0
M  V30 6 C 3.319746 -0.160510 3.231554 0
M  V30 7 N 3.785073 0.040686 1.867760 0
M  V30 8 C 2.668897 0.529967 1.036590 0
M  V30 9 N 1.901288 1.244059 0.585638 0
M  V30 10 C 0.981074 1.031015 -0.333499 0
M  V30 11 C 0.034888 2.009099 -0.853788 0
M  V30 12 C 0.259508 2.773537 -1.992520 0
M  V30 13 C -0.692706 3.676765 -2.431883 0
M  V30 14 C -1.871738 3.823019 -1.740633 0
M  V30 15 C -2.086578 3.049798 -0.598254 0
M  V30 16 C -3.385707 3.281854 0.077075 0
M  V30 17 N -1.147483 2.198826 -0.214800 0
M  V30 18 C 0.859670 -0.200352 -0.881292 0
M  V30 19 C 0.084642 -0.986571 -1.851342 0
M  V30 20 C -0.127229 -0.732183 -3.188432 0
M  V30 21 C -0.877000 -1.605284 -3.963210 0
M  V30 22 C -1.394118 -2.732991 -3.328053 0
M  V30 23 N -2.153925 -3.747248 -3.845510 0
M  V30 24 C -2.388952 -4.601431 -2.803974 0
M  V30 25 N -1.785878 -4.104945 -1.708788 0
M  V30 26 N -1.173432 -2.955018 -2.032756 0
M  V30 27 C -0.444690 -2.128665 -1.224392 0
M  V30 28 S 2.248641 -1.049312 0.091622 0
M  V30 29 C 0.868104 -0.449129 3.165161 0
M  V30 30 C -0.354507 -1.134402 3.168013 0
M  V30 31 O -1.465743 -0.316402 3.081530 0
M  V30 32 C -2.796478 -0.727564 3.067554 0
M  V30 33 C -0.238559 -2.509046 3.255896 0
M  V30 34 H 2.212026 -5.505774 4.587172 0
M  V30 35 H 2.934643 -4.895573 3.069929 0
M  V30 36 H 1.807146 -6.322864 3.001206 0
M  V30 37 H 3.097574 -2.900501 3.387702 0
M  V30 38 H 3.012722 0.843544 3.615413 0
M  V30 39 H 4.162024 -0.590748 3.810638 0
M  V30 40 H 4.753256 -0.123848 1.483283 0
M  V30 41 H 1.197760 2.619011 -2.499677 0
M  V30 42 H -0.436314 4.221635 -3.314659 0
M  V30 43 H -2.553365 4.552346 -2.157354 0
M  V30 44 H -3.368973 2.996052 1.158371 0
M  V30 45 H -3.753998 4.312534 -0.070611 0
M  V30 46 H -4.144232 2.604544 -0.388485 0
M  V30 47 H 0.343159 0.188783 -3.532772 0
M  V30 48 H -1.009867 -1.355983 -5.005339 0
M  V30 49 H -2.973580 -5.532450 -2.865118 0
M  V30 50 H -0.333018 -2.410457 -0.185581 0
M  V30 51 H 0.869123 0.640285 3.098855 0
M  V30 52 H -2.921777 -1.769500 3.407995 0
M  V30 53 H -3.342209 -0.023986 3.754824 0
M  V30 54 H -3.202678 -0.601830 2.045870 0
M  V30 55 H -1.226845 -2.990165 3.251846 0
M  V30 END ATOM
M  V30 BEGIN BOND
M  V30 1 1 1 2
M  V30 2 1 2 3
M  V30 3 2 3 4
M  V30 4 1 4 5
M  V30 5 1 5 6
M  V30 6 1 6 7
M  V30 7 1 7 8
M  V30 8 2 8 9
M  V30 9 1 9 10
M  V30 10 1 10 11
M  V30 11 2 11 12
M  V30 12 1 12 13
M  V30 13 2 13 14
M  V30 14 1 14 15
M  V30 15 1 15 16
M  V30 16 2 15 17
M  V30 17 2 10 18
M  V30 18 1 18 19
M  V30 19 1 19 20
M  V30 20 2 20 21
M  V30 21 1 21 22
M  V30 22 2 22 23
M  V30 23 1 23 24
M  V30 24 2 24 25
M  V30 25 1 25 26
M  V30 26 1 26 27
M  V30 27 1 18 28
M  V30 28 2 5 29
M  V30 29 1 29 30
M  V30 30 1 30 31
M  V30 31 1 31 32
M  V30 32 2 30 33
M  V30 33 1 33 3
M  V30 34 1 28 8
M  V30 35 1 17 11
M  V30 36 2 27 19
M  V30 37 1 26 22
M  V30 38 1 1 34
M  V30 39 1 1 35
M  V30 40 1 1 36
M  V30 41 1 4 37
M  V30 42 1 6 38
M  V30 43 1 6 39
M  V30 44 1 7 40
M  V30 45 1 12 41
M  V30 46 1 13 42
M  V30 47 1 14 43
M  V30 48 1 16 44
M  V30 49 1 16 45
M  V30 50 1 16 46
M  V30 51 1 20 47
M  V30 52 1 21 48
M  V30 53 1 24 49
M  V30 54 1 27 50
M  V30 55 1 29 51
M  V30 56 1 32 52
M  V30 57 1 32 53
M  V30 58 1 32 54
M  V30 59 1 33 55
M  V30 END BOND
M  V30 END CTAB
M  END
>  <Dataset>  (397) 
ChEMBL_Kinases

>  <Ligand_Instance>  (397) 
nan

>  <PDB_ID>  (397) 
nan

>  <Standardized_SMILES>  (397) 
COc1cc(CNc2nc(-c3cccc(C)n3)c(-c3ccc4ncnn4c3)s2)cc(OC)c1

>  <Name>  (397) 
nan

>  <Pocket>  (397) 
nan

>  <ATP_Site>  (397) 
nan

>  <Peripheral>  (397) 
nan

>  <Num_H_Atoms_ProtBoundConf>  (397) 
nan

>  <Num_Resolved_Atoms>  (397) 
nan

>  <Num_Not_Resolved_Atoms>  (397) 
nan

$$$$
CHEMBL1083785
     RDKit          3D

  0  0  0  0  0  0  0  0  0  0999 V3000
M  V30 BEGIN CTAB
M  V30 COUNTS 55 58 0 0 0
M  V30 BEGIN ATOM
M  V30 1 C -1.665102 2.993376 8.170750 0
M  V30 2 N -0.810469 1.893466 7.804863 0
M  V30 3 C -0.336181 1.713962 6.469555 0
M  V30 4 N -0.669271 1.173515 5.524438 0
M  V30 5 C -0.128455 1.088804 4.336399 0
M  V30 6 C -0.655332 0.341738 3.166665 0
M  V30 7 C 1.027499 1.747864 4.172988 0
M  V30 8 C 2.071215 2.017425 3.112542 0
M  V30 9 C 3.147124 2.772206 3.440718 0
M  V30 10 C 4.101702 3.020303 2.476408 0
M  V30 11 N 3.884185 2.485034 1.270628 0
M  V30 12 C 2.848383 1.741346 0.903560 0
M  V30 13 N 2.793910 1.253743 -0.423240 0
M  V30 14 C 1.769569 0.490043 -1.038936 0
M  V30 15 C 0.550922 0.163695 -0.499259 0
M  V30 16 C -0.417106 -0.589567 -1.124189 0
M  V30 17 C -0.181303 -1.071435 -2.391320 0
M  V30 18 N -1.163763 -1.855246 -3.054566 0
M  V30 19 C -2.407255 -2.296714 -2.466525 0
M  V30 20 C -2.772419 -3.700929 -2.901587 0
M  V30 21 N -1.584518 -4.437422 -3.325271 0
M  V30 22 C -1.048386 -5.696546 -2.891521 0
M  V30 23 C -1.906496 -6.280946 -1.830713 0
M  V30 24 O 0.001362 -6.285878 -3.308517 0
M  V30 25 C -0.783307 -3.823440 -4.358867 0
M  V30 26 C -1.074120 -2.327388 -4.418619 0
M  V30 27 C 1.016119 -0.770806 -2.964897 0
M  V30 28 C 1.966529 -0.015435 -2.317517 0
M  V30 29 N 1.945357 1.527143 1.876446 0
M  V30 30 S 1.269314 2.471663 5.797544 0
M  V30 31 H -2.641907 2.992970 7.659497 0
M  V30 32 H -1.151068 3.951166 7.873027 0
M  V30 33 H -1.752218 3.022442 9.276996 0
M  V30 34 H -0.489058 1.171160 8.477863 0
M  V30 35 H 0.147631 -0.293909 2.708494 0
M  V30 36 H -0.941376 1.087825 2.419299 0
M  V30 37 H -1.465101 -0.366576 3.423486 0
M  V30 38 H 3.344471 3.214505 4.406042 0
M  V30 39 H 4.979268 3.620188 2.697522 0
M  V30 40 H 3.610711 1.482498 -1.036038 0
M  V30 41 H 0.346568 0.532459 0.481545 0
M  V30 42 H -1.332951 -0.767187 -0.577785 0
M  V30 43 H -2.422493 -2.261324 -1.365504 0
M  V30 44 H -3.231655 -1.611768 -2.793497 0
M  V30 45 H -3.211232 -4.235825 -2.048009 0
M  V30 46 H -3.518547 -3.648044 -3.720654 0
M  V30 47 H -1.354873 -7.164101 -1.411978 0
M  V30 48 H -2.009698 -5.528596 -0.995216 0
M  V30 49 H -2.874393 -6.621261 -2.211814 0
M  V30 50 H -1.037920 -4.229576 -5.367725 0
M  V30 51 H 0.295088 -3.989052 -4.220512 0
M  V30 52 H -0.270333 -1.875195 -5.000250 0
M  V30 53 H -2.050096 -2.239988 -4.973691 0
M  V30 54 H 1.279647 -1.117025 -3.967742 0
M  V30 55 H 2.906911 0.189704 -2.834069 0
M  V30 END ATOM
M  V30 BEGIN BOND
M  V30 1 1 1 2
M  V30 2 1 2 3
M  V30 3 2 3 4
M  V30 4 1 4 5
M  V30 5 1 5 6
M  V30 6 2 5 7
M  V30 7 1 7 8
M  V30 8 2 8 9
M  V30 9 1 9 10
M  V30 10 2 10 11
M  V30 11 1 11 12
M  V30 12 1 12 13
M  V30 13 1 13 14
M  V30 14 2 14 15
M  V30 15 1 15 16
M  V30 16 2 16 17
M  V30 17 1 17 18
M  V30 18 1 18 19
M  V30 19 1 19 20
M  V30 20 1 20 21
M  V30 21 1 21 22
M  V30 22 1 22 23
M  V30 23 2 22 24
M  V30 24 1 21 25
M  V30 25 1 25 26
M  V30 26 1 17 27
M  V30 27 2 27 28
M  V30 28 2 12 29
M  V30 29 1 7 30
M  V30 30 1 30 3
M  V30 31 1 29 8
M  V30 32 1 28 14
M  V30 33 1 26 18
M  V30 34 1 1 31
M  V30 35 1 1 32
M  V30 36 1 1 33
M  V30 37 1 2 34
M  V30 38 1 6 35
M  V30 39 1 6 36
M  V30 40 1 6 37
M  V30 41 1 9 38
M  V30 42 1 10 39
M  V30 43 1 13 40
M  V30 44 1 15 41
M  V30 45 1 16 42
M  V30 46 1 19 43
M  V30 47 1 19 44
M  V30 48 1 20 45
M  V30 49 1 20 46
M  V30 50 1 23 47
M  V30 51 1 23 48
M  V30 52 1 23 49
M  V30 53 1 25 50
M  V30 54 1 25 51
M  V30 55 1 26 52
M  V30 56 1 26 53
M  V30 57 1 27 54
M  V30 58 1 28 55
M  V30 END BOND
M  V30 END CTAB
M  END
>  <Dataset>  (398) 
ChEMBL_Kinases

>  <Ligand_Instance>  (398) 
nan

>  <PDB_ID>  (398) 
nan

>  <Standardized_SMILES>  (398) 
CNc1nc(C)c(-c2ccnc(Nc3ccc(N4CCN(C(C)=O)CC4)cc3)n2)s1

>  <Name>  (398) 
nan

>  <Pocket>  (398) 
nan

>  <ATP_Site>  (398) 
nan

>  <Peripheral>  (398) 
nan

>  <Num_H_Atoms_ProtBoundConf>  (398) 
nan

>  <Num_Resolved_Atoms>  (398) 
nan

>  <Num_Not_Resolved_Atoms>  (398) 
nan

$$$$
CHEMBL1241855
     RDKit          3D

  0  0  0  0  0  0  0  0  0  0999 V3000
M  V30 BEGIN CTAB
M  V30 COUNTS 56 57 0 0 0
M  V30 BEGIN ATOM
M  V30 1 C 0.451069 -1.044015 7.401681 0
M  V30 2 O 1.711180 -0.749358 6.826473 0
M  V30 3 C 1.890109 -0.637797 5.456043 0
M  V30 4 C 3.104616 -0.352523 4.877620 0
M  V30 5 C 3.273182 -0.243674 3.517403 0
M  V30 6 O 4.529006 0.046173 3.013324 0
M  V30 7 C 5.610120 0.225608 3.876333 0
M  V30 8 C 2.164557 -0.430206 2.680144 0
M  V30 9 C 2.446675 -0.294478 1.264464 0
M  V30 10 C 1.683707 -0.396188 0.194629 0
M  V30 11 S 2.141412 -0.209881 -1.475761 0
M  V30 12 O 2.333193 -1.515249 -2.157915 0
M  V30 13 O 3.497432 0.482313 -1.468515 0
M  V30 14 C 1.050487 0.866898 -2.355482 0
M  V30 15 C -0.346935 0.381007 -2.359308 0
M  V30 16 C -1.192146 0.784886 -1.328390 0
M  V30 17 C -2.516284 0.426120 -1.181507 0
M  V30 18 C -3.026584 -0.409057 -2.156879 0
M  V30 19 O -4.357123 -0.782383 -2.028289 0
M  V30 20 C -5.188953 -0.352604 -0.965878 0
M  V30 21 C -2.231228 -0.836335 -3.196916 0
M  V30 22 N -2.780604 -1.698834 -4.192752 0
M  V30 23 C -2.020016 -2.198772 -5.322563 0
M  V30 24 C -2.803450 -3.068461 -6.208809 0
M  V30 25 O -2.315633 -3.595940 -7.239825 0
M  V30 26 O -4.059960 -3.617537 -6.377912 0
M  V30 27 C -0.906832 -0.454474 -3.309729 0
M  V30 28 C 0.962792 -0.714218 3.284363 0
M  V30 29 O -0.121901 -0.896047 2.452406 0
M  V30 30 C -1.376151 -1.189251 3.023157 0
M  V30 31 C 0.793719 -0.823354 4.647931 0
M  V30 32 H 0.060292 -1.942333 6.857130 0
M  V30 33 H 0.550527 -1.328778 8.448642 0
M  V30 34 H -0.287514 -0.238870 7.219684 0
M  V30 35 H 3.969450 -0.205668 5.505599 0
M  V30 36 H 5.518091 1.183719 4.452895 0
M  V30 37 H 6.543734 0.328163 3.286336 0
M  V30 38 H 5.772838 -0.618127 4.569637 0
M  V30 39 H 3.451344 -0.064755 0.905070 0
M  V30 40 H 0.648533 -0.623494 0.391186 0
M  V30 41 H 1.063233 1.852224 -1.856353 0
M  V30 42 H 1.468331 1.010969 -3.364561 0
M  V30 43 H -0.780744 1.444841 -0.561865 0
M  V30 44 H -3.085334 0.797746 -0.339780 0
M  V30 45 H -6.075088 -1.029201 -0.970683 0
M  V30 46 H -4.709671 -0.460841 0.011586 0
M  V30 47 H -5.560885 0.676076 -1.102840 0
M  V30 48 H -3.768667 -2.005536 -4.140898 0
M  V30 49 H -1.162115 -2.810757 -4.918190 0
M  V30 50 H -1.553543 -1.381249 -5.875684 0
M  V30 51 H -4.318723 -4.537133 -6.071322 0
M  V30 52 H -0.263469 -0.772482 -4.110112 0
M  V30 53 H -2.108794 -1.342739 2.203797 0
M  V30 54 H -1.634228 -0.318851 3.659918 0
M  V30 55 H -1.328007 -2.071843 3.694332 0
M  V30 56 H -0.185541 -1.049318 5.039777 0
M  V30 END ATOM
M  V30 BEGIN BOND
M  V30 1 1 1 2
M  V30 2 1 2 3
M  V30 3 2 3 4
M  V30 4 1 4 5
M  V30 5 1 5 6
M  V30 6 1 6 7
M  V30 7 2 5 8
M  V30 8 1 8 9
M  V30 9 2 9 10
M  V30 10 1 10 11
M  V30 11 2 11 12
M  V30 12 2 11 13
M  V30 13 1 11 14
M  V30 14 1 14 15
M  V30 15 2 15 16
M  V30 16 1 16 17
M  V30 17 2 17 18
M  V30 18 1 18 19
M  V30 19 1 19 20
M  V30 20 1 18 21
M  V30 21 1 21 22
M  V30 22 1 22 23
M  V30 23 1 23 24
M  V30 24 2 24 25
M  V30 25 1 24 26
M  V30 26 2 21 27
M  V30 27 1 8 28
M  V30 28 1 28 29
M  V30 29 1 29 30
M  V30 30 2 28 31
M  V30 31 1 31 3
M  V30 32 1 27 15
M  V30 33 1 1 32
M  V30 34 1 1 33
M  V30 35 1 1 34
M  V30 36 1 4 35
M  V30 37 1 7 36
M  V30 38 1 7 37
M  V30 39 1 7 38
M  V30 40 1 9 39
M  V30 41 1 10 40
M  V30 42 1 14 41
M  V30 43 1 14 42
M  V30 44 1 16 43
M  V30 45 1 17 44
M  V30 46 1 20 45
M  V30 47 1 20 46
M  V30 48 1 20 47
M  V30 49 1 22 48
M  V30 50 1 23 49
M  V30 51 1 23 50
M  V30 52 1 26 51
M  V30 53 1 27 52
M  V30 54 1 30 53
M  V30 55 1 30 54
M  V30 56 1 30 55
M  V30 57 1 31 56
M  V30 END BOND
M  V30 END CTAB
M  END
>  <Dataset>  (399) 
ChEMBL_Kinases

>  <Ligand_Instance>  (399) 
nan

>  <PDB_ID>  (399) 
nan

>  <Standardized_SMILES>  (399) 
COc1cc(OC)c(/C=C/S(=O)(=O)Cc2ccc(OC)c(NCC(=O)O)c2)c(OC)c1

>  <Name>  (399) 
RIGOSERTIB

>  <Pocket>  (399) 
nan

>  <ATP_Site>  (399) 
nan

>  <Peripheral>  (399) 
nan

>  <Num_H_Atoms_ProtBoundConf>  (399) 
nan

>  <Num_Resolved_Atoms>  (399) 
nan

>  <Num_Not_Resolved_Atoms>  (399) 
nan

$$$$
CHEMBL583691
     RDKit          3D

  0  0  0  0  0  0  0  0  0  0999 V3000
M  V30 BEGIN CTAB
M  V30 COUNTS 40 42 0 0 0
M  V30 BEGIN ATOM
M  V30 1 C -1.436263 -4.760097 -0.567342 0
M  V30 2 C -0.873052 -3.618789 -1.421842 0
M  V30 3 C -0.457275 -4.127632 -2.767432 0
M  V30 4 C 0.305080 -3.015528 -0.692927 0
M  V30 5 C 1.379238 -3.853346 -0.499693 0
M  V30 6 C 2.433823 -3.280995 0.163257 0
M  V30 7 C 2.359489 -1.965974 0.576341 0
M  V30 8 S 3.579010 -1.008396 1.443003 0
M  V30 9 C 2.549913 0.496470 1.495943 0
M  V30 10 C 2.859683 1.742899 2.055833 0
M  V30 11 O 3.983341 1.885007 2.603380 0
M  V30 12 N 1.928169 2.706278 1.968115 0
M  V30 13 C 0.792840 2.365915 1.348151 0
M  V30 14 C -0.242703 3.448849 1.255938 0
M  V30 15 N -1.147594 3.449777 2.377159 0
M  V30 16 C -0.484584 3.648700 3.650952 0
M  V30 17 C -1.895162 2.209977 2.470659 0
M  V30 18 N 0.540303 1.161666 0.828007 0
M  V30 19 C 1.419531 0.138339 0.872172 0
M  V30 20 C 1.318080 -1.139578 0.393776 0
M  V30 21 C 0.227459 -1.706333 -0.283285 0
M  V30 22 H -0.723600 -5.624604 -0.587032 0
M  V30 23 H -1.518422 -4.428420 0.489806 0
M  V30 24 H -2.433013 -5.054666 -0.954296 0
M  V30 25 H -1.696127 -2.889399 -1.533995 0
M  V30 26 H -1.314359 -4.199220 -3.456733 0
M  V30 27 H 0.322544 -3.456682 -3.203920 0
M  V30 28 H 0.048077 -5.121034 -2.606186 0
M  V30 29 H 1.429648 -4.878440 -0.825166 0
M  V30 30 H 3.335702 -3.832692 0.377177 0
M  V30 31 H 2.199579 3.614184 2.395079 0
M  V30 32 H -0.856399 3.203842 0.364113 0
M  V30 33 H 0.207197 4.421980 1.053830 0
M  V30 34 H 0.269264 4.451799 3.542947 0
M  V30 35 H -1.195004 4.018406 4.419803 0
M  V30 36 H -0.110710 2.689569 4.007800 0
M  V30 37 H -1.955699 1.742861 1.445061 0
M  V30 38 H -2.903400 2.352278 2.858709 0
M  V30 39 H -1.337071 1.534369 3.163942 0
M  V30 40 H -0.704053 -1.169783 -0.515275 0
M  V30 END ATOM
M  V30 BEGIN BOND
M  V30 1 1 1 2
M  V30 2 1 2 3
M  V30 3 1 2 4
M  V30 4 2 4 5
M  V30 5 1 5 6
M  V30 6 2 6 7
M  V30 7 1 7 8
M  V30 8 1 8 9
M  V30 9 1 9 10
M  V30 10 2 10 11
M  V30 11 1 10 12
M  V30 12 1 12 13
M  V30 13 1 13 14
M  V30 14 1 14 15
M  V30 15 1 15 16
M  V30 16 1 15 17
M  V30 17 2 13 18
M  V30 18 1 18 19
M  V30 19 1 19 20
M  V30 20 2 20 21
M  V30 21 1 21 4
M  V30 22 1 20 7
M  V30 23 2 19 9
M  V30 24 1 1 22
M  V30 25 1 1 23
M  V30 26 1 1 24
M  V30 27 1 2 25
M  V30 28 1 3 26
M  V30 29 1 3 27
M  V30 30 1 3 28
M  V30 31 1 5 29
M  V30 32 1 6 30
M  V30 33 1 12 31
M  V30 34 1 14 32
M  V30 35 1 14 33
M  V30 36 1 16 34
M  V30 37 1 16 35
M  V30 38 1 16 36
M  V30 39 1 17 37
M  V30 40 1 17 38
M  V30 41 1 17 39
M  V30 42 1 21 40
M  V30 END BOND
M  V30 END CTAB
M  END
>  <Dataset>  (400) 
ChEMBL_Kinases

>  <Ligand_Instance>  (400) 
nan

>  <PDB_ID>  (400) 
nan

>  <Standardized_SMILES>  (400) 
CC(C)c1ccc2sc3c(=O)[nH]c(CN(C)C)nc3c2c1

>  <Name>  (400) 
nan

>  <Pocket>  (400) 
nan

>  <ATP_Site>  (400) 
nan

>  <Peripheral>  (400) 
nan

>  <Num_H_Atoms_ProtBoundConf>  (400) 
nan

>  <Num_Resolved_Atoms>  (400) 
nan

>  <Num_Not_Resolved_Atoms>  (400) 
nan

$$$$
CHEMBL1094702
     RDKit          3D

  0  0  0  0  0  0  0  0  0  0999 V3000
M  V30 BEGIN CTAB
M  V30 COUNTS 76 81 0 0 0
M  V30 BEGIN ATOM
M  V30 1 C 2.595850 -2.395110 9.165055 0
M  V30 2 C 3.877070 -1.606640 9.382598 0
M  V30 3 N 4.674451 -1.554676 8.175462 0
M  V30 4 C 4.045097 -0.948570 7.056261 0
M  V30 5 O 2.896782 -0.467111 7.012749 0
M  V30 6 N 4.781540 -0.866131 5.832107 0
M  V30 7 C 4.201742 -0.267522 4.670611 0
M  V30 8 C 3.490137 -1.091403 3.791534 0
M  V30 9 C 2.903601 -0.582791 2.651421 0
M  V30 10 C 3.022395 0.759181 2.376695 0
M  V30 11 C 2.505247 1.535927 1.254796 0
M  V30 12 N 3.107744 2.238756 0.291997 0
M  V30 13 N 2.207160 2.782326 -0.517987 0
M  V30 14 C 2.599629 3.601805 -1.654927 0
M  V30 15 C 2.698323 5.040293 -1.238679 0
M  V30 16 C 0.974969 2.423715 -0.070964 0
M  V30 17 C 1.134958 1.624199 1.064705 0
M  V30 18 C -0.035680 1.091817 1.759340 0
M  V30 19 C -0.289065 1.456637 3.060979 0
M  V30 20 C -1.427450 0.907430 3.660202 0
M  V30 21 N -2.263915 0.053231 3.019393 0
M  V30 22 C -2.038869 -0.321284 1.742034 0
M  V30 23 N -2.640477 -1.125205 0.825933 0
M  V30 24 C -1.964725 -1.126579 -0.315278 0
M  V30 25 C -2.279471 -1.856605 -1.537909 0
M  V30 26 C -3.392095 -2.668577 -1.614521 0
M  V30 27 C -3.702893 -3.368187 -2.772095 0
M  V30 28 C -2.913743 -3.284263 -3.900585 0
M  V30 29 C -3.085031 -3.935019 -5.196961 0
M  V30 30 N -3.820172 -3.122367 -6.105658 0
M  V30 31 C -5.143408 -2.759478 -5.712465 0
M  V30 32 C -5.544625 -1.518779 -6.511625 0
M  V30 33 O -4.760907 -1.468724 -7.662462 0
M  V30 34 C -4.684204 -2.710484 -8.290475 0
M  V30 35 C -3.890660 -3.681703 -7.442536 0
M  V30 36 C -1.792008 -2.454672 -3.796476 0
M  V30 37 C -1.472489 -1.754421 -2.651774 0
M  V30 38 C -0.877471 -0.293949 -0.148147 0
M  V30 39 C -0.919689 0.210957 1.134560 0
M  V30 40 C 3.730593 1.586103 3.249055 0
M  V30 41 C 4.324196 1.077037 4.400947 0
M  V30 42 H 2.810555 -3.275783 8.532992 0
M  V30 43 H 1.830826 -1.724484 8.716850 0
M  V30 44 H 2.201258 -2.796549 10.119925 0
M  V30 45 H 4.471674 -2.201833 10.124637 0
M  V30 46 H 3.690786 -0.639717 9.850771 0
M  V30 47 H 5.657458 -1.935508 8.112648 0
M  V30 48 H 5.768810 -1.241460 5.746383 0
M  V30 49 H 3.367206 -2.153219 3.960979 0
M  V30 50 H 2.342351 -1.104672 1.913086 0
M  V30 51 H 3.569145 3.268782 -2.051441 0
M  V30 52 H 1.842600 3.473840 -2.476180 0
M  V30 53 H 2.628805 5.167524 -0.139684 0
M  V30 54 H 1.937701 5.624513 -1.786137 0
M  V30 55 H 3.691001 5.466276 -1.544302 0
M  V30 56 H 0.080108 2.758296 -0.585911 0
M  V30 57 H 0.360490 2.131249 3.585735 0
M  V30 58 H -1.605145 1.205380 4.674047 0
M  V30 59 H -3.529560 -1.661306 1.036579 0
M  V30 60 H -4.064270 -2.791866 -0.777980 0
M  V30 61 H -4.562249 -4.016591 -2.869453 0
M  V30 62 H -3.575563 -4.920365 -5.053433 0
M  V30 63 H -2.104989 -4.160557 -5.660119 0
M  V30 64 H -5.834896 -3.569185 -6.081976 0
M  V30 65 H -5.325077 -2.634571 -4.647418 0
M  V30 66 H -6.593308 -1.537506 -6.823612 0
M  V30 67 H -5.302452 -0.636602 -5.876330 0
M  V30 68 H -5.734852 -3.047085 -8.450958 0
M  V30 69 H -4.172880 -2.511016 -9.266125 0
M  V30 70 H -2.902119 -3.921923 -7.878122 0
M  V30 71 H -4.518039 -4.612066 -7.360790 0
M  V30 72 H -1.079505 -2.295550 -4.615310 0
M  V30 73 H -0.616203 -1.115553 -2.558920 0
M  V30 74 H -0.113127 -0.062551 -0.881099 0
M  V30 75 H 3.900137 2.657845 3.152211 0
M  V30 76 H 4.883490 1.674817 5.109002 0
M  V30 END ATOM
M  V30 BEGIN BOND
M  V30 1 1 1 2
M  V30 2 1 2 3
M  V30 3 1 3 4
M  V30 4 2 4 5
M  V30 5 1 4 6
M  V30 6 1 6 7
M  V30 7 2 7 8
M  V30 8 1 8 9
M  V30 9 2 9 10
M  V30 10 1 10 11
M  V30 11 2 11 12
M  V30 12 1 12 13
M  V30 13 1 13 14
M  V30 14 1 14 15
M  V30 15 1 13 16
M  V30 16 2 16 17
M  V30 17 1 17 18
M  V30 18 2 18 19
M  V30 19 1 19 20
M  V30 20 2 20 21
M  V30 21 1 21 22
M  V30 22 1 22 23
M  V30 23 1 23 24
M  V30 24 1 24 25
M  V30 25 2 25 26
M  V30 26 1 26 27
M  V30 27 2 27 28
M  V30 28 1 28 29
M  V30 29 1 29 30
M  V30 30 1 30 31
M  V30 31 1 31 32
M  V30 32 1 32 33
M  V30 33 1 33 34
M  V30 34 1 34 35
M  V30 35 1 28 36
M  V30 36 2 36 37
M  V30 37 2 24 38
M  V30 38 1 38 39
M  V30 39 1 10 40
M  V30 40 2 40 41
M  V30 41 1 41 7
M  V30 42 1 17 11
M  V30 43 1 39 18
M  V30 44 2 39 22
M  V30 45 1 37 25
M  V30 46 1 35 30
M  V30 47 1 1 42
M  V30 48 1 1 43
M  V30 49 1 1 44
M  V30 50 1 2 45
M  V30 51 1 2 46
M  V30 52 1 3 47
M  V30 53 1 6 48
M  V30 54 1 8 49
M  V30 55 1 9 50
M  V30 56 1 14 51
M  V30 57 1 14 52
M  V30 58 1 15 53
M  V30 59 1 15 54
M  V30 60 1 15 55
M  V30 61 1 16 56
M  V30 62 1 19 57
M  V30 63 1 20 58
M  V30 64 1 23 59
M  V30 65 1 26 60
M  V30 66 1 27 61
M  V30 67 1 29 62
M  V30 68 1 29 63
M  V30 69 1 31 64
M  V30 70 1 31 65
M  V30 71 1 32 66
M  V30 72 1 32 67
M  V30 73 1 34 68
M  V30 74 1 34 69
M  V30 75 1 35 70
M  V30 76 1 35 71
M  V30 77 1 36 72
M  V30 78 1 37 73
M  V30 79 1 38 74
M  V30 80 1 40 75
M  V30 81 1 41 76
M  V30 END BOND
M  V30 END CTAB
M  END
>  <Dataset>  (401) 
ChEMBL_Kinases

>  <Ligand_Instance>  (401) 
nan

>  <PDB_ID>  (401) 
nan

>  <Standardized_SMILES>  (401) 
CCNC(=O)Nc1ccc(-c2nn(CC)cc2-c2ccnc3[nH]c(-c4ccc(CN5CCOCC5)cc4)cc23)cc1

>  <Name>  (401) 
nan

>  <Pocket>  (401) 
nan

>  <ATP_Site>  (401) 
nan

>  <Peripheral>  (401) 
nan

>  <Num_H_Atoms_ProtBoundConf>  (401) 
nan

>  <Num_Resolved_Atoms>  (401) 
nan

>  <Num_Not_Resolved_Atoms>  (401) 
nan

$$$$
CHEMBL210586
     RDKit          3D

  0  0  0  0  0  0  0  0  0  0999 V3000
M  V30 BEGIN CTAB
M  V30 COUNTS 38 39 0 0 0
M  V30 BEGIN ATOM
M  V30 1 C 1.577849 -4.180653 2.755126 0
M  V30 2 C 0.789976 -3.319899 3.718476 0
M  V30 3 O -0.577692 -3.267970 3.356904 0
M  V30 4 C -1.002220 -2.775447 2.131604 0
M  V30 5 N -0.075661 -2.330673 1.255184 0
M  V30 6 C -0.464852 -1.847736 0.058498 0
M  V30 7 N 0.542992 -1.376915 -0.864547 0
M  V30 8 C 0.784664 -0.013637 -0.651970 0
M  V30 9 O 0.445382 0.970143 0.055173 0
M  V30 10 C 1.755069 0.811607 -1.411692 0
M  V30 11 C 1.716129 2.201568 -0.887396 0
M  V30 12 C 0.896069 3.229839 -1.337603 0
M  V30 13 C 0.966867 4.479495 -0.754149 0
M  V30 14 C 1.860307 4.702906 0.283068 0
M  V30 15 C 2.687656 3.709491 0.755178 0
M  V30 16 Cl 3.795436 4.051031 2.067509 0
M  V30 17 C 2.602250 2.470443 0.160570 0
M  V30 18 C -1.790670 -1.762973 -0.372412 0
M  V30 19 C -2.709601 -2.223426 0.541975 0
M  V30 20 N -4.084426 -2.161865 0.156646 0
M  V30 21 C -2.351237 -2.725815 1.778693 0
M  V30 22 C -3.344476 -3.192149 2.693780 0
M  V30 23 N -4.159575 -3.563586 3.450735 0
M  V30 24 H 1.027225 -5.069159 2.405002 0
M  V30 25 H 2.465845 -4.553448 3.290075 0
M  V30 26 H 1.950046 -3.611981 1.875689 0
M  V30 27 H 0.892500 -3.735980 4.719238 0
M  V30 28 H 1.206688 -2.289403 3.636843 0
M  V30 29 H 1.138679 -1.776648 -1.645399 0
M  V30 30 H 1.532765 0.866868 -2.495916 0
M  V30 31 H 2.791368 0.422133 -1.347272 0
M  V30 32 H 0.245844 2.913167 -2.155149 0
M  V30 33 H 0.295672 5.224256 -1.162038 0
M  V30 34 H 1.890796 5.708790 0.724640 0
M  V30 35 H 3.271678 1.723119 0.565565 0
M  V30 36 H -2.018156 -1.361757 -1.349766 0
M  V30 37 H -4.425309 -1.169765 0.246223 0
M  V30 38 H -4.651156 -2.995103 -0.164904 0
M  V30 END ATOM
M  V30 BEGIN BOND
M  V30 1 1 1 2
M  V30 2 1 2 3
M  V30 3 1 3 4
M  V30 4 2 4 5
M  V30 5 1 5 6
M  V30 6 1 6 7
M  V30 7 1 7 8
M  V30 8 2 8 9
M  V30 9 1 8 10
M  V30 10 1 10 11
M  V30 11 2 11 12
M  V30 12 1 12 13
M  V30 13 2 13 14
M  V30 14 1 14 15
M  V30 15 1 15 16
M  V30 16 2 15 17
M  V30 17 2 6 18
M  V30 18 1 18 19
M  V30 19 1 19 20
M  V30 20 2 19 21
M  V30 21 1 21 22
M  V30 22 3 22 23
M  V30 23 1 21 4
M  V30 24 1 17 11
M  V30 25 1 1 24
M  V30 26 1 1 25
M  V30 27 1 1 26
M  V30 28 1 2 27
M  V30 29 1 2 28
M  V30 30 1 7 29
M  V30 31 1 10 30
M  V30 32 1 10 31
M  V30 33 1 12 32
M  V30 34 1 13 33
M  V30 35 1 14 34
M  V30 36 1 17 35
M  V30 37 1 18 36
M  V30 38 1 20 37
M  V30 39 1 20 38
M  V30 END BOND
M  V30 END CTAB
M  END
>  <Dataset>  (402) 
ChEMBL_Kinases

>  <Ligand_Instance>  (402) 
nan

>  <PDB_ID>  (402) 
nan

>  <Standardized_SMILES>  (402) 
CCOc1nc(NC(=O)Cc2cccc(Cl)c2)cc(N)c1C#N

>  <Name>  (402) 
nan

>  <Pocket>  (402) 
nan

>  <ATP_Site>  (402) 
nan

>  <Peripheral>  (402) 
nan

>  <Num_H_Atoms_ProtBoundConf>  (402) 
nan

>  <Num_Resolved_Atoms>  (402) 
nan

>  <Num_Not_Resolved_Atoms>  (402) 
nan

$$$$
CHEMBL572745
     RDKit          3D

  0  0  0  0  0  0  0  0  0  0999 V3000
M  V30 BEGIN CTAB
M  V30 COUNTS 31 33 0 0 0
M  V30 BEGIN ATOM
M  V30 1 C -1.803371 -2.041063 2.266744 0
M  V30 2 N -1.632819 -3.212994 1.455411 0
M  V30 3 C -1.730978 -4.353850 2.347989 0
M  V30 4 C -0.348786 -3.287755 0.820602 0
M  V30 5 C -0.114111 -2.105319 -0.086558 0
M  V30 6 N 0.464431 -1.061622 0.494860 0
M  V30 7 C 0.755260 0.077886 -0.139353 0
M  V30 8 C 0.332368 -0.047770 -1.524498 0
M  V30 9 S 0.820551 1.633834 -2.241870 0
M  V30 10 C 1.524680 2.290892 -0.610713 0
M  V30 11 C 2.093656 3.540060 -0.375406 0
M  V30 12 C 2.519235 3.742345 0.904190 0
M  V30 13 C 2.346623 2.731178 1.785874 0
M  V30 14 Cl 2.922855 3.061072 3.434039 0
M  V30 15 C 1.786418 1.516204 1.531677 0
M  V30 16 C 1.331710 1.229111 0.271471 0
M  V30 17 C -0.269489 -1.120183 -2.149365 0
M  V30 18 O -0.523643 -0.954944 -3.344535 0
M  V30 19 N -0.487781 -2.177871 -1.368421 0
M  V30 20 H -1.013433 -2.029022 3.065247 0
M  V30 21 H -1.804256 -1.095132 1.689513 0
M  V30 22 H -2.793995 -2.112221 2.763110 0
M  V30 23 H -1.345191 -5.288289 1.873138 0
M  V30 24 H -1.106681 -4.106614 3.255670 0
M  V30 25 H -2.792298 -4.533358 2.680610 0
M  V30 26 H -0.314183 -4.171607 0.174051 0
M  V30 27 H 0.474693 -3.359667 1.568711 0
M  V30 28 H 2.116558 4.175245 -1.247703 0
M  V30 29 H 2.959426 4.713334 1.079355 0
M  V30 30 H 1.724361 0.817818 2.353452 0
M  V30 31 H -0.937173 -2.994008 -1.811828 0
M  V30 END ATOM
M  V30 BEGIN BOND
M  V30 1 1 1 2
M  V30 2 1 2 3
M  V30 3 1 2 4
M  V30 4 1 4 5
M  V30 5 2 5 6
M  V30 6 1 6 7
M  V30 7 2 7 8
M  V30 8 1 8 9
M  V30 9 1 9 10
M  V30 10 2 10 11
M  V30 11 1 11 12
M  V30 12 2 12 13
M  V30 13 1 13 14
M  V30 14 1 13 15
M  V30 15 2 15 16
M  V30 16 1 8 17
M  V30 17 2 17 18
M  V30 18 1 17 19
M  V30 19 1 19 5
M  V30 20 1 16 7
M  V30 21 1 16 10
M  V30 22 1 1 20
M  V30 23 1 1 21
M  V30 24 1 1 22
M  V30 25 1 3 23
M  V30 26 1 3 24
M  V30 27 1 3 25
M  V30 28 1 4 26
M  V30 29 1 4 27
M  V30 30 1 11 28
M  V30 31 1 12 29
M  V30 32 1 15 30
M  V30 33 1 19 31
M  V30 END BOND
M  V30 END CTAB
M  END
>  <Dataset>  (403) 
ChEMBL_Kinases

>  <Ligand_Instance>  (403) 
nan

>  <PDB_ID>  (403) 
nan

>  <Standardized_SMILES>  (403) 
CN(C)Cc1nc2c(sc3ccc(Cl)cc32)c(=O)[nH]1

>  <Name>  (403) 
nan

>  <Pocket>  (403) 
nan

>  <ATP_Site>  (403) 
nan

>  <Peripheral>  (403) 
nan

>  <Num_H_Atoms_ProtBoundConf>  (403) 
nan

>  <Num_Resolved_Atoms>  (403) 
nan

>  <Num_Not_Resolved_Atoms>  (403) 
nan

$$$$
CHEMBL208558
     RDKit          3D

  0  0  0  0  0  0  0  0  0  0999 V3000
M  V30 BEGIN CTAB
M  V30 COUNTS 41 42 0 0 0
M  V30 BEGIN ATOM
M  V30 1 C -0.414634 -6.367270 3.863841 0
M  V30 2 C -0.379464 -4.826321 4.011320 0
M  V30 3 O -0.256163 -4.277877 2.839974 0
M  V30 4 C -0.135836 -3.734801 1.692094 0
M  V30 5 N -0.327811 -2.299033 1.635651 0
M  V30 6 C -0.200529 -1.698539 0.441163 0
M  V30 7 N -0.463121 -0.284800 0.787153 0
M  V30 8 C 0.164893 0.854363 0.180952 0
M  V30 9 O 1.023659 0.777227 -0.766604 0
M  V30 10 C -0.329904 2.104919 0.833031 0
M  V30 11 C 0.195357 3.360916 0.306269 0
M  V30 12 C -0.520717 4.347163 -0.267182 0
M  V30 13 C -0.363617 5.603469 -0.788515 0
M  V30 14 C 1.007896 5.938827 -0.671109 0
M  V30 15 C 1.884653 5.058066 -0.115468 0
M  V30 16 C 1.582205 3.798419 0.378751 0
M  V30 17 C 2.553210 2.883861 0.989220 0
M  V30 18 C 0.078587 -2.293189 -0.709233 0
M  V30 19 C 0.268113 -3.654706 -0.748153 0
M  V30 20 N 0.541523 -4.311229 -1.918312 0
M  V30 21 C 0.135010 -4.206522 0.471786 0
M  V30 22 C 0.331204 -5.606283 0.512364 0
M  V30 23 N 0.501904 -6.837453 0.571314 0
M  V30 24 H -0.975317 -6.667153 2.930558 0
M  V30 25 H -1.020367 -6.765973 4.746122 0
M  V30 26 H 0.560093 -6.809476 3.846126 0
M  V30 27 H -1.341781 -4.591076 4.544418 0
M  V30 28 H 0.409123 -4.570385 4.767634 0
M  V30 29 H -1.178817 -0.044978 1.504757 0
M  V30 30 H -0.276047 2.058821 1.959942 0
M  V30 31 H -1.464679 2.047692 0.664937 0
M  V30 32 H -1.593081 4.004273 -0.333431 0
M  V30 33 H -1.183047 6.160887 -1.196729 0
M  V30 34 H 1.164904 6.951291 -1.064266 0
M  V30 35 H 2.934304 5.400300 -0.063826 0
M  V30 36 H 3.317559 2.488480 0.264503 0
M  V30 37 H 3.098489 3.417818 1.835190 0
M  V30 38 H 2.019455 2.032706 1.445576 0
M  V30 39 H 0.114819 -1.601908 -1.518387 0
M  V30 40 H 0.697629 -4.827189 -2.776690 0
M  V30 41 H 1.393178 -4.109388 -2.531658 0
M  V30 END ATOM
M  V30 BEGIN BOND
M  V30 1 1 1 2
M  V30 2 1 2 3
M  V30 3 1 3 4
M  V30 4 2 4 5
M  V30 5 1 5 6
M  V30 6 1 6 7
M  V30 7 1 7 8
M  V30 8 2 8 9
M  V30 9 1 8 10
M  V30 10 1 10 11
M  V30 11 2 11 12
M  V30 12 1 12 13
M  V30 13 2 13 14
M  V30 14 1 14 15
M  V30 15 2 15 16
M  V30 16 1 16 17
M  V30 17 2 6 18
M  V30 18 1 18 19
M  V30 19 1 19 20
M  V30 20 2 19 21
M  V30 21 1 21 22
M  V30 22 3 22 23
M  V30 23 1 21 4
M  V30 24 1 16 11
M  V30 25 1 1 24
M  V30 26 1 1 25
M  V30 27 1 1 26
M  V30 28 1 2 27
M  V30 29 1 2 28
M  V30 30 1 7 29
M  V30 31 1 10 30
M  V30 32 1 10 31
M  V30 33 1 12 32
M  V30 34 1 13 33
M  V30 35 1 14 34
M  V30 36 1 15 35
M  V30 37 1 17 36
M  V30 38 1 17 37
M  V30 39 1 17 38
M  V30 40 1 18 39
M  V30 41 1 20 40
M  V30 42 1 20 41
M  V30 END BOND
M  V30 END CTAB
M  END
>  <Dataset>  (404) 
ChEMBL_Kinases

>  <Ligand_Instance>  (404) 
nan

>  <PDB_ID>  (404) 
nan

>  <Standardized_SMILES>  (404) 
CCOc1nc(NC(=O)Cc2ccccc2C)cc(N)c1C#N

>  <Name>  (404) 
nan

>  <Pocket>  (404) 
nan

>  <ATP_Site>  (404) 
nan

>  <Peripheral>  (404) 
nan

>  <Num_H_Atoms_ProtBoundConf>  (404) 
nan

>  <Num_Resolved_Atoms>  (404) 
nan

>  <Num_Not_Resolved_Atoms>  (404) 
nan

$$$$
CHEMBL210581
     RDKit          3D

  0  0  0  0  0  0  0  0  0  0999 V3000
M  V30 BEGIN CTAB
M  V30 COUNTS 55 57 0 0 0
M  V30 BEGIN ATOM
M  V30 1 C 3.071746 -2.200305 6.492041 0
M  V30 2 O 4.124682 -1.859271 5.646476 0
M  V30 3 C 3.610746 -1.206418 4.501318 0
M  V30 4 C 4.755169 -0.846100 3.601979 0
M  V30 5 O 4.404724 -0.200844 2.439462 0
M  V30 6 C 3.757064 0.985088 2.645387 0
M  V30 7 C 3.391983 1.663187 1.349671 0
M  V30 8 O 3.723830 1.062141 0.274498 0
M  V30 9 N 2.718866 2.896989 1.376513 0
M  V30 10 S 2.381123 3.526975 -0.214172 0
M  V30 11 O 3.450648 3.166929 -1.184600 0
M  V30 12 O 2.299852 5.021498 -0.116440 0
M  V30 13 C 0.808230 2.945067 -0.759273 0
M  V30 14 C -0.346240 3.680414 -0.480664 0
M  V30 15 C -1.561217 3.194751 -0.922833 0
M  V30 16 C -1.700393 2.017132 -1.628548 0
M  V30 17 N -2.950186 1.512179 -2.086488 0
M  V30 18 C -2.956324 0.270313 -2.812476 0
M  V30 19 N -2.875263 -0.293869 -4.026412 0
M  V30 20 C -2.970161 -1.630093 -3.875949 0
M  V30 21 N -2.898031 -2.367725 -5.106055 0
M  V30 22 N -3.111726 -1.926356 -2.571516 0
M  V30 23 C -3.229413 -3.289370 -2.197718 0
M  V30 24 O -3.193034 -4.142849 -3.124909 0
M  V30 25 C -3.389311 -3.856271 -0.871766 0
M  V30 26 C -3.481282 -5.228233 -0.775532 0
M  V30 27 F -3.434964 -6.092276 -1.814971 0
M  V30 28 C -3.636634 -5.853572 0.465431 0
M  V30 29 C -3.705416 -5.146444 1.642040 0
M  V30 30 C -3.615284 -3.774817 1.565033 0
M  V30 31 C -3.462923 -3.191183 0.328999 0
M  V30 32 F -3.380556 -1.847885 0.315903 0
M  V30 33 N -3.097656 -0.770514 -1.984296 0
M  V30 34 C -0.512818 1.336169 -1.871084 0
M  V30 35 C 0.737395 1.755636 -1.462964 0
M  V30 36 H 2.330314 -2.882936 6.018251 0
M  V30 37 H 3.506023 -2.753486 7.353327 0
M  V30 38 H 2.543226 -1.319925 6.917827 0
M  V30 39 H 2.994195 -0.348413 4.796115 0
M  V30 40 H 2.955144 -1.946460 3.991736 0
M  V30 41 H 5.430936 -0.137125 4.160980 0
M  V30 42 H 5.389035 -1.734075 3.417913 0
M  V30 43 H 4.256005 1.706640 3.301843 0
M  V30 44 H 2.751764 0.770076 3.113927 0
M  V30 45 H 2.450921 3.382158 2.261463 0
M  V30 46 H -0.281581 4.615339 0.073629 0
M  V30 47 H -2.496463 3.728200 -0.733488 0
M  V30 48 H -3.786100 2.096718 -1.854212 0
M  V30 49 H -3.587965 -2.312106 -5.895853 0
M  V30 50 H -2.054589 -2.965732 -5.091215 0
M  V30 51 H -3.711393 -6.928382 0.569570 0
M  V30 52 H -3.824816 -5.596320 2.615487 0
M  V30 53 H -3.664312 -3.176594 2.463747 0
M  V30 54 H -0.580845 0.401493 -2.425672 0
M  V30 55 H 1.598353 1.149918 -1.704213 0
M  V30 END ATOM
M  V30 BEGIN BOND
M  V30 1 1 1 2
M  V30 2 1 2 3
M  V30 3 1 3 4
M  V30 4 1 4 5
M  V30 5 1 5 6
M  V30 6 1 6 7
M  V30 7 2 7 8
M  V30 8 1 7 9
M  V30 9 1 9 10
M  V30 10 2 10 11
M  V30 11 2 10 12
M  V30 12 1 10 13
M  V30 13 2 13 14
M  V30 14 1 14 15
M  V30 15 2 15 16
M  V30 16 1 16 17
M  V30 17 1 17 18
M  V30 18 1 18 19
M  V30 19 2 19 20
M  V30 20 1 20 21
M  V30 21 1 20 22
M  V30 22 1 22 23
M  V30 23 2 23 24
M  V30 24 1 23 25
M  V30 25 2 25 26
M  V30 26 1 26 27
M  V30 27 1 26 28
M  V30 28 2 28 29
M  V30 29 1 29 30
M  V30 30 2 30 31
M  V30 31 1 31 32
M  V30 32 1 22 33
M  V30 33 1 16 34
M  V30 34 2 34 35
M  V30 35 1 35 13
M  V30 36 2 33 18
M  V30 37 1 31 25
M  V30 38 1 1 36
M  V30 39 1 1 37
M  V30 40 1 1 38
M  V30 41 1 3 39
M  V30 42 1 3 40
M  V30 43 1 4 41
M  V30 44 1 4 42
M  V30 45 1 6 43
M  V30 46 1 6 44
M  V30 47 1 9 45
M  V30 48 1 14 46
M  V30 49 1 15 47
M  V30 50 1 17 48
M  V30 51 1 21 49
M  V30 52 1 21 50
M  V30 53 1 28 51
M  V30 54 1 29 52
M  V30 55 1 30 53
M  V30 56 1 34 54
M  V30 57 1 35 55
M  V30 END BOND
M  V30 END CTAB
M  END
>  <Dataset>  (405) 
ChEMBL_Kinases

>  <Ligand_Instance>  (405) 
nan

>  <PDB_ID>  (405) 
nan

>  <Standardized_SMILES>  (405) 
COCCOCC(=O)NS(=O)(=O)c1ccc(Nc2nc(N)n(C(=O)c3c(F)cccc3F)n2)cc1

>  <Name>  (405) 
nan

>  <Pocket>  (405) 
nan

>  <ATP_Site>  (405) 
nan

>  <Peripheral>  (405) 
nan

>  <Num_H_Atoms_ProtBoundConf>  (405) 
nan

>  <Num_Resolved_Atoms>  (405) 
nan

>  <Num_Not_Resolved_Atoms>  (405) 
nan

$$$$
CHEMBL213367
     RDKit          3D

  0  0  0  0  0  0  0  0  0  0999 V3000
M  V30 BEGIN CTAB
M  V30 COUNTS 38 42 0 0 0
M  V30 BEGIN ATOM
M  V30 1 O 2.847164 1.844016 1.599199 0
M  V30 2 C 2.042599 1.002679 2.038925 0
M  V30 3 N 1.831731 0.559339 3.394753 0
M  V30 4 C 0.803319 -0.415395 3.396341 0
M  V30 5 O 0.525573 -0.878646 4.510209 0
M  V30 6 C 0.320435 -0.635172 2.072616 0
M  V30 7 C 1.062360 0.209075 1.286244 0
M  V30 8 C 0.849021 0.253486 -0.086439 0
M  V30 9 C 1.612896 1.134733 -0.962904 0
M  V30 10 C 1.139985 2.417673 -1.213428 0
M  V30 11 C 1.784249 3.328515 -2.025391 0
M  V30 12 C 2.975912 2.937928 -2.627006 0
M  V30 13 O 3.650558 3.836797 -3.453431 0
M  V30 14 C 3.476643 1.664579 -2.398643 0
M  V30 15 C 2.809177 0.766743 -1.577307 0
M  V30 16 Cl 3.409891 -0.842556 -1.267893 0
M  V30 17 C -0.113028 -0.556055 -0.654560 0
M  V30 18 C -0.844908 -1.395152 0.156117 0
M  V30 19 N -1.818273 -2.265952 -0.130573 0
M  V30 20 C -2.204793 -2.843531 1.046047 0
M  V30 21 C -3.184453 -3.801927 1.213808 0
M  V30 22 C -3.469899 -4.298113 2.470486 0
M  V30 23 C -2.736074 -3.797251 3.553150 0
M  V30 24 O -3.027393 -4.299786 4.814207 0
M  V30 25 C -1.774265 -2.842924 3.313864 0
M  V30 26 C -1.466622 -2.331646 2.090276 0
M  V30 27 C -0.624225 -1.429948 1.514050 0
M  V30 28 H 2.430891 0.990363 4.155767 0
M  V30 29 H 0.208159 2.807403 -0.779561 0
M  V30 30 H 1.403335 4.322197 -2.209975 0
M  V30 31 H 3.223613 4.313235 -4.221438 0
M  V30 32 H 4.402243 1.376808 -2.872717 0
M  V30 33 H -0.310056 -0.548849 -1.734008 0
M  V30 34 H -2.181685 -2.439765 -1.079950 0
M  V30 35 H -3.741552 -4.177898 0.368166 0
M  V30 36 H -4.229962 -5.048460 2.638476 0
M  V30 37 H -2.334825 -4.214846 5.568776 0
M  V30 38 H -1.273021 -2.522833 4.175928 0
M  V30 END ATOM
M  V30 BEGIN BOND
M  V30 1 2 1 2
M  V30 2 1 2 3
M  V30 3 1 3 4
M  V30 4 2 4 5
M  V30 5 1 4 6
M  V30 6 2 6 7
M  V30 7 1 7 8
M  V30 8 1 8 9
M  V30 9 2 9 10
M  V30 10 1 10 11
M  V30 11 2 11 12
M  V30 12 1 12 13
M  V30 13 1 12 14
M  V30 14 2 14 15
M  V30 15 1 15 16
M  V30 16 2 8 17
M  V30 17 1 17 18
M  V30 18 1 18 19
M  V30 19 1 19 20
M  V30 20 2 20 21
M  V30 21 1 21 22
M  V30 22 2 22 23
M  V30 23 1 23 24
M  V30 24 1 23 25
M  V30 25 2 25 26
M  V30 26 1 26 27
M  V30 27 1 7 2
M  V30 28 1 15 9
M  V30 29 2 27 18
M  V30 30 1 27 6
M  V30 31 1 26 20
M  V30 32 1 3 28
M  V30 33 1 10 29
M  V30 34 1 11 30
M  V30 35 1 13 31
M  V30 36 1 14 32
M  V30 37 1 17 33
M  V30 38 1 19 34
M  V30 39 1 21 35
M  V30 40 1 22 36
M  V30 41 1 24 37
M  V30 42 1 25 38
M  V30 END BOND
M  V30 END CTAB
M  END
>  <Dataset>  (406) 
ChEMBL_Kinases

>  <Ligand_Instance>  (406) 
nan

>  <PDB_ID>  (406) 
nan

>  <Standardized_SMILES>  (406) 
O=C1NC(=O)c2c1c(-c1ccc(O)cc1Cl)cc1[nH]c3ccc(O)cc3c21

>  <Name>  (406) 
nan

>  <Pocket>  (406) 
nan

>  <ATP_Site>  (406) 
nan

>  <Peripheral>  (406) 
nan

>  <Num_H_Atoms_ProtBoundConf>  (406) 
nan

>  <Num_Resolved_Atoms>  (406) 
nan

>  <Num_Not_Resolved_Atoms>  (406) 
nan

$$$$
CHEMBL2087983
     RDKit          3D

  0  0  0  0  0  0  0  0  0  0999 V3000
M  V30 BEGIN CTAB
M  V30 COUNTS 47 51 0 0 0
M  V30 BEGIN ATOM
M  V30 1 C -1.115054 2.842196 0.627307 0
M  V30 2 C -1.761522 2.043998 -0.454640 0
M  V30 3 C -2.972991 2.324224 -1.052728 0
M  V30 4 C -3.481510 1.517083 -2.048058 0
M  V30 5 C -2.786920 0.401134 -2.474014 0
M  V30 6 C -1.571768 0.136348 -1.860905 0
M  V30 7 C -0.713289 -1.018098 -2.205232 0
M  V30 8 N -1.134305 -2.282781 -2.055307 0
M  V30 9 C -0.585450 -3.243980 -2.277329 0
M  V30 10 N -0.999609 -4.648041 -2.131032 0
M  V30 11 C -0.622772 -5.054188 -0.807243 0
M  V30 12 C -1.232572 -4.281733 0.278620 0
M  V30 13 C -2.425810 -4.566910 0.906175 0
M  V30 14 C -2.977099 -3.822103 1.926312 0
M  V30 15 C -2.265103 -2.704494 2.340917 0
M  V30 16 F -2.736891 -1.904627 3.349305 0
M  V30 17 C -1.072191 -2.343988 1.776306 0
M  V30 18 F -0.361704 -1.255993 2.167417 0
M  V30 19 C -0.589363 -3.137958 0.764954 0
M  V30 20 S 1.101184 -2.647346 -2.923381 0
M  V30 21 C 0.557746 -0.860978 -2.695111 0
M  V30 22 C 1.242748 0.408478 -2.946956 0
M  V30 23 C 0.672447 1.236963 -3.901118 0
M  V30 24 C 1.285793 2.441235 -4.168080 0
M  V30 25 C 2.430690 2.799876 -3.500410 0
M  V30 26 N 3.193822 3.913147 -3.595017 0
M  V30 27 C 4.191453 3.750387 -2.720045 0
M  V30 28 N 4.049138 2.555552 -2.093093 0
M  V30 29 N 2.955104 1.969110 -2.580495 0
M  V30 30 C 2.395643 0.776489 -2.278870 0
M  V30 31 N -1.106363 0.951779 -0.888258 0
M  V30 32 H -1.557065 3.836606 0.749959 0
M  V30 33 H -1.101535 2.260733 1.581048 0
M  V30 34 H -0.038594 2.996100 0.364179 0
M  V30 35 H -3.488268 3.203050 -0.695232 0
M  V30 36 H -4.432221 1.744913 -2.511191 0
M  V30 37 H -3.119632 -0.276180 -3.245474 0
M  V30 38 H -1.435849 -4.907676 -3.031810 0
M  V30 39 H 0.485338 -4.927731 -0.712925 0
M  V30 40 H -0.775510 -6.161623 -0.666167 0
M  V30 41 H -2.965234 -5.440473 0.569655 0
M  V30 42 H -3.923379 -4.087193 2.391683 0
M  V30 43 H 0.355527 -2.854839 0.315691 0
M  V30 44 H -0.237474 0.996819 -4.459349 0
M  V30 45 H 0.833591 3.097951 -4.924297 0
M  V30 46 H 4.936868 4.548330 -2.633641 0
M  V30 47 H 2.828117 0.111764 -1.532707 0
M  V30 END ATOM
M  V30 BEGIN BOND
M  V30 1 1 1 2
M  V30 2 2 2 3
M  V30 3 1 3 4
M  V30 4 2 4 5
M  V30 5 1 5 6
M  V30 6 1 6 7
M  V30 7 1 7 8
M  V30 8 2 8 9
M  V30 9 1 9 10
M  V30 10 1 10 11
M  V30 11 1 11 12
M  V30 12 2 12 13
M  V30 13 1 13 14
M  V30 14 2 14 15
M  V30 15 1 15 16
M  V30 16 1 15 17
M  V30 17 1 17 18
M  V30 18 2 17 19
M  V30 19 1 9 20
M  V30 20 1 20 21
M  V30 21 1 21 22
M  V30 22 1 22 23
M  V30 23 2 23 24
M  V30 24 1 24 25
M  V30 25 2 25 26
M  V30 26 1 26 27
M  V30 27 2 27 28
M  V30 28 1 28 29
M  V30 29 1 29 30
M  V30 30 2 6 31
M  V30 31 1 31 2
M  V30 32 2 21 7
M  V30 33 2 30 22
M  V30 34 1 19 12
M  V30 35 1 29 25
M  V30 36 1 1 32
M  V30 37 1 1 33
M  V30 38 1 1 34
M  V30 39 1 3 35
M  V30 40 1 4 36
M  V30 41 1 5 37
M  V30 42 1 10 38
M  V30 43 1 11 39
M  V30 44 1 11 40
M  V30 45 1 13 41
M  V30 46 1 14 42
M  V30 47 1 19 43
M  V30 48 1 23 44
M  V30 49 1 24 45
M  V30 50 1 27 46
M  V30 51 1 30 47
M  V30 END BOND
M  V30 END CTAB
M  END
>  <Dataset>  (407) 
ChEMBL_Kinases

>  <Ligand_Instance>  (407) 
nan

>  <PDB_ID>  (407) 
nan

>  <Standardized_SMILES>  (407) 
Cc1cccc(-c2nc(NCc3ccc(F)c(F)c3)sc2-c2ccc3ncnn3c2)n1

>  <Name>  (407) 
nan

>  <Pocket>  (407) 
nan

>  <ATP_Site>  (407) 
nan

>  <Peripheral>  (407) 
nan

>  <Num_H_Atoms_ProtBoundConf>  (407) 
nan

>  <Num_Resolved_Atoms>  (407) 
nan

>  <Num_Not_Resolved_Atoms>  (407) 
nan

$$$$
CHEMBL4634539
     RDKit          3D

  0  0  0  0  0  0  0  0  0  0999 V3000
M  V30 BEGIN CTAB
M  V30 COUNTS 48 52 0 0 0
M  V30 BEGIN ATOM
M  V30 1 C -3.025499 -6.222034 -2.530341 0
M  V30 2 O -1.817024 -5.700749 -2.031250 0
M  V30 3 C -1.688512 -5.081934 -0.808626 0
M  V30 4 C -0.443526 -4.614352 -0.438873 0
M  V30 5 C -0.197470 -3.971293 0.777348 0
M  V30 6 C 1.189892 -3.518539 1.050386 0
M  V30 7 N 1.439193 -2.165441 0.553253 0
M  V30 8 C 1.886184 -2.095819 -0.710431 0
M  V30 9 N 2.113706 -0.852627 -1.168643 0
M  V30 10 C 1.902145 0.170324 -0.408743 0
M  V30 11 S 2.112976 2.014532 -0.726306 0
M  V30 12 C 1.539495 2.515080 0.985596 0
M  V30 13 C 1.434005 3.888862 1.497368 0
M  V30 14 C 0.997486 4.078378 2.769589 0
M  V30 15 C 0.896697 5.357049 3.253257 0
M  V30 16 N 1.228732 6.396914 2.467559 0
M  V30 17 C 1.662835 6.213245 1.203087 0
M  V30 18 N 2.036797 7.111657 0.276381 0
M  V30 19 C 2.398423 6.473755 -0.851504 0
M  V30 20 C 2.228940 5.133518 -0.575011 0
M  V30 21 C 1.769889 4.929462 0.700828 0
M  V30 22 C 1.257516 1.325981 1.606765 0
M  V30 23 C 1.434484 0.158718 0.922800 0
M  V30 24 C 1.210733 -1.127081 1.363757 0
M  V30 25 O 0.791499 -1.376408 2.521483 0
M  V30 26 C -1.281850 -3.828501 1.597300 0
M  V30 27 C -2.542908 -4.264381 1.301053 0
M  V30 28 O -3.610023 -4.101224 2.154893 0
M  V30 29 C -3.489245 -3.474735 3.397343 0
M  V30 30 C -2.722527 -4.889498 0.089962 0
M  V30 31 H -2.959284 -6.109641 -3.642483 0
M  V30 32 H -3.051897 -7.310088 -2.271913 0
M  V30 33 H -3.922523 -5.729385 -2.144733 0
M  V30 34 H 0.387854 -4.751053 -1.123968 0
M  V30 35 H 1.393876 -3.570517 2.149299 0
M  V30 36 H 1.872632 -4.231617 0.551429 0
M  V30 37 H 2.075275 -2.918201 -1.375502 0
M  V30 38 H 0.743171 3.237297 3.364471 0
M  V30 39 H 0.546798 5.450185 4.264065 0
M  V30 40 H 2.038147 8.143740 0.431214 0
M  V30 41 H 2.754560 6.902706 -1.799609 0
M  V30 42 H 2.441149 4.380825 -1.295009 0
M  V30 43 H 0.904054 1.386885 2.623824 0
M  V30 44 H -1.121659 -3.340219 2.535660 0
M  V30 45 H -2.559113 -3.844189 3.892232 0
M  V30 46 H -3.414475 -2.388624 3.248149 0
M  V30 47 H -4.390094 -3.711941 4.022558 0
M  V30 48 H -3.707491 -5.246236 -0.175240 0
M  V30 END ATOM
M  V30 BEGIN BOND
M  V30 1 1 1 2
M  V30 2 1 2 3
M  V30 3 2 3 4
M  V30 4 1 4 5
M  V30 5 1 5 6
M  V30 6 1 6 7
M  V30 7 1 7 8
M  V30 8 2 8 9
M  V30 9 1 9 10
M  V30 10 1 10 11
M  V30 11 1 11 12
M  V30 12 1 12 13
M  V30 13 2 13 14
M  V30 14 1 14 15
M  V30 15 2 15 16
M  V30 16 1 16 17
M  V30 17 1 17 18
M  V30 18 1 18 19
M  V30 19 2 19 20
M  V30 20 1 20 21
M  V30 21 2 12 22
M  V30 22 1 22 23
M  V30 23 1 23 24
M  V30 24 2 24 25
M  V30 25 2 5 26
M  V30 26 1 26 27
M  V30 27 1 27 28
M  V30 28 1 28 29
M  V30 29 2 27 30
M  V30 30 1 30 3
M  V30 31 1 24 7
M  V30 32 2 23 10
M  V30 33 1 21 13
M  V30 34 2 21 17
M  V30 35 1 1 31
M  V30 36 1 1 32
M  V30 37 1 1 33
M  V30 38 1 4 34
M  V30 39 1 6 35
M  V30 40 1 6 36
M  V30 41 1 8 37
M  V30 42 1 14 38
M  V30 43 1 15 39
M  V30 44 1 18 40
M  V30 45 1 19 41
M  V30 46 1 20 42
M  V30 47 1 22 43
M  V30 48 1 26 44
M  V30 49 1 29 45
M  V30 50 1 29 46
M  V30 51 1 29 47
M  V30 52 1 30 48
M  V30 END BOND
M  V30 END CTAB
M  END
>  <Dataset>  (408) 
ChEMBL_Kinases

>  <Ligand_Instance>  (408) 
nan

>  <PDB_ID>  (408) 
nan

>  <Standardized_SMILES>  (408) 
COc1cc(Cn2cnc3sc(-c4ccnc5[nH]ccc45)cc3c2=O)cc(OC)c1

>  <Name>  (408) 
nan

>  <Pocket>  (408) 
nan

>  <ATP_Site>  (408) 
nan

>  <Peripheral>  (408) 
nan

>  <Num_H_Atoms_ProtBoundConf>  (408) 
nan

>  <Num_Resolved_Atoms>  (408) 
nan

>  <Num_Not_Resolved_Atoms>  (408) 
nan

$$$$
CHEMBL210547
     RDKit          3D

  0  0  0  0  0  0  0  0  0  0999 V3000
M  V30 BEGIN CTAB
M  V30 COUNTS 58 59 0 0 0
M  V30 BEGIN ATOM
M  V30 1 C -0.277704 -4.584712 2.495031 0
M  V30 2 C 0.821379 -3.544511 2.478722 0
M  V30 3 C 0.416944 -2.426929 3.366194 0
M  V30 4 C 0.933305 -3.105270 0.996136 0
M  V30 5 C 1.979526 -2.066800 0.863053 0
M  V30 6 C 2.145414 -1.569259 -0.504489 0
M  V30 7 C 1.875815 -0.264951 -0.773358 0
M  V30 8 C 1.412712 0.712027 0.257352 0
M  V30 9 C 1.548496 2.045255 -0.433114 0
M  V30 10 C 2.922497 2.633392 -0.340762 0
M  V30 11 O 2.909354 3.790515 -1.145478 0
M  V30 12 C 0.503260 3.019350 0.101911 0
M  V30 13 O -0.781585 2.451510 0.001293 0
M  V30 14 C -1.949602 3.069561 0.396546 0
M  V30 15 O -1.897709 4.225322 0.886346 0
M  V30 16 C -3.231047 2.392931 0.249329 0
M  V30 17 C -4.399842 3.010044 0.643762 0
M  V30 18 C -5.566165 2.278917 0.461022 0
M  V30 19 C -5.607066 1.026809 -0.070221 0
M  V30 20 O -6.796617 0.357656 -0.223911 0
M  V30 21 C -4.449220 0.411137 -0.462839 0
M  V30 22 C -3.274207 1.119440 -0.290807 0
M  V30 23 O 1.300735 1.739383 -1.790879 0
M  V30 24 C 1.944305 0.508965 -2.032981 0
M  V30 25 O 2.492254 0.066302 -3.063983 0
M  V30 26 C 1.122373 -4.384838 0.261787 0
M  V30 27 C 1.218427 -4.274702 -1.238429 0
M  V30 28 C 2.371810 -5.134669 0.690992 0
M  V30 29 H -0.843726 -4.520687 3.475462 0
M  V30 30 H -1.081589 -4.322159 1.744380 0
M  V30 31 H 0.066518 -5.616750 2.415312 0
M  V30 32 H 1.757706 -4.030688 2.782527 0
M  V30 33 H 1.202348 -2.236882 4.129770 0
M  V30 34 H 0.158194 -1.489905 2.840461 0
M  V30 35 H -0.513144 -2.667353 3.960973 0
M  V30 36 H -0.049243 -2.682606 0.745149 0
M  V30 37 H 2.963204 -2.375803 1.305563 0
M  V30 38 H 1.677916 -1.207244 1.508339 0
M  V30 39 H 2.469337 -2.000400 -1.421933 0
M  V30 40 H 0.343668 0.599940 0.511156 0
M  V30 41 H 2.077616 0.744834 1.147822 0
M  V30 42 H 3.185036 2.932644 0.695870 0
M  V30 43 H 3.650787 1.931840 -0.759418 0
M  V30 44 H 2.181394 3.764301 -1.811112 0
M  V30 45 H 0.731328 3.336872 1.118411 0
M  V30 46 H 0.539892 3.905118 -0.597846 0
M  V30 47 H -4.383528 4.001720 1.066410 0
M  V30 48 H -6.485791 2.770663 0.774055 0
M  V30 49 H -6.878997 -0.496784 -0.759662 0
M  V30 50 H -4.393756 -0.584815 -0.895144 0
M  V30 51 H -2.345538 0.653008 -0.594013 0
M  V30 52 H 0.284915 -5.095487 0.462169 0
M  V30 53 H 0.729437 -5.174445 -1.730220 0
M  V30 54 H 2.252229 -4.286237 -1.608705 0
M  V30 55 H 0.643260 -3.405883 -1.571182 0
M  V30 56 H 2.555262 -5.916489 -0.075101 0
M  V30 57 H 2.313008 -5.627618 1.651891 0
M  V30 58 H 3.249023 -4.442435 0.597655 0
M  V30 END ATOM
M  V30 BEGIN BOND
M  V30 1 1 1 2
M  V30 2 1 2 3
M  V30 3 1 2 4
M  V30 4 1 4 5
M  V30 5 1 5 6
M  V30 6 2 6 7
M  V30 7 1 7 8
M  V30 8 1 8 9
M  V30 9 1 9 10
M  V30 10 1 10 11
M  V30 11 1 9 12
M  V30 12 1 12 13
M  V30 13 1 13 14
M  V30 14 2 14 15
M  V30 15 1 14 16
M  V30 16 2 16 17
M  V30 17 1 17 18
M  V30 18 2 18 19
M  V30 19 1 19 20
M  V30 20 1 19 21
M  V30 21 2 21 22
M  V30 22 1 9 23
M  V30 23 1 23 24
M  V30 24 2 24 25
M  V30 25 1 4 26
M  V30 26 1 26 27
M  V30 27 1 26 28
M  V30 28 1 24 7
M  V30 29 1 22 16
M  V30 30 1 1 29
M  V30 31 1 1 30
M  V30 32 1 1 31
M  V30 33 1 2 32
M  V30 34 1 3 33
M  V30 35 1 3 34
M  V30 36 1 3 35
M  V30 37 1 4 36
M  V30 38 1 5 37
M  V30 39 1 5 38
M  V30 40 1 6 39
M  V30 41 1 8 40
M  V30 42 1 8 41
M  V30 43 1 10 42
M  V30 44 1 10 43
M  V30 45 1 11 44
M  V30 46 1 12 45
M  V30 47 1 12 46
M  V30 48 1 17 47
M  V30 49 1 18 48
M  V30 50 1 20 49
M  V30 51 1 21 50
M  V30 52 1 22 51
M  V30 53 1 26 52
M  V30 54 1 27 53
M  V30 55 1 27 54
M  V30 56 1 27 55
M  V30 57 1 28 56
M  V30 58 1 28 57
M  V30 59 1 28 58
M  V30 END BOND
M  V30 END CTAB
M  END
>  <Dataset>  (409) 
ChEMBL_Kinases

>  <Ligand_Instance>  (409) 
nan

>  <PDB_ID>  (409) 
nan

>  <Standardized_SMILES>  (409) 
CC(C)C(C/C=C1\CC(CO)(COC(=O)c2ccc(O)cc2)OC1=O)C(C)C

>  <Name>  (409) 
nan

>  <Pocket>  (409) 
nan

>  <ATP_Site>  (409) 
nan

>  <Peripheral>  (409) 
nan

>  <Num_H_Atoms_ProtBoundConf>  (409) 
nan

>  <Num_Resolved_Atoms>  (409) 
nan

>  <Num_Not_Resolved_Atoms>  (409) 
nan

$$$$
CHEMBL1241011
     RDKit          3D

  0  0  0  0  0  0  0  0  0  0999 V3000
M  V30 BEGIN CTAB
M  V30 COUNTS 34 37 0 0 0
M  V30 BEGIN ATOM
M  V30 1 C -0.836288 -3.517485 3.221902 0
M  V30 2 C -0.085938 -4.015077 1.992306 0
M  V30 3 C 0.983767 -3.024147 1.673885 0
M  V30 4 C 2.294873 -3.315853 1.994114 0
M  V30 5 C 3.273792 -2.368908 1.684713 0
M  V30 6 C 2.941207 -1.172303 1.074457 0
M  V30 7 C 1.609474 -0.887908 0.754501 0
M  V30 8 C 0.648818 -1.829771 1.064179 0
M  V30 9 N -0.570319 -1.359156 0.672256 0
M  V30 10 C -0.398680 -0.125792 0.114756 0
M  V30 11 C 0.949511 0.173212 0.162528 0
M  V30 12 C 1.432934 1.384409 -0.341304 0
M  V30 13 C 0.576401 2.322083 -0.903642 0
M  V30 14 C -0.746409 1.995726 -0.934836 0
M  V30 15 C -1.872263 2.642435 -1.399256 0
M  V30 16 C -1.812177 3.958655 -2.012324 0
M  V30 17 O -0.739659 4.595781 -2.162288 0
M  V30 18 C -3.015984 1.901402 -1.210502 0
M  V30 19 N -2.590050 0.752508 -0.607619 0
M  V30 20 C -1.257928 0.800473 -0.442659 0
M  V30 21 H -0.179557 -3.652720 4.100096 0
M  V30 22 H -1.836612 -3.967936 3.330006 0
M  V30 23 H -1.000240 -2.402931 3.136918 0
M  V30 24 H -0.818436 -4.082274 1.158191 0
M  V30 25 H 0.349654 -4.985892 2.223935 0
M  V30 26 H 2.604896 -4.236161 2.469574 0
M  V30 27 H 4.334662 -2.504543 1.896988 0
M  V30 28 H 3.691786 -0.431602 0.830593 0
M  V30 29 H -1.497883 -1.831072 0.764926 0
M  V30 30 H 2.510821 1.604232 -0.293449 0
M  V30 31 H 0.963981 3.254559 -1.290385 0
M  V30 32 H -2.615791 4.560387 -2.409727 0
M  V30 33 H -4.016671 2.208776 -1.497447 0
M  V30 34 H -3.277299 0.013410 -0.357145 0
M  V30 END ATOM
M  V30 BEGIN BOND
M  V30 1 1 1 2
M  V30 2 1 2 3
M  V30 3 2 3 4
M  V30 4 1 4 5
M  V30 5 2 5 6
M  V30 6 1 6 7
M  V30 7 2 7 8
M  V30 8 1 8 9
M  V30 9 1 9 10
M  V30 10 2 10 11
M  V30 11 1 11 12
M  V30 12 2 12 13
M  V30 13 1 13 14
M  V30 14 1 14 15
M  V30 15 1 15 16
M  V30 16 2 16 17
M  V30 17 2 15 18
M  V30 18 1 18 19
M  V30 19 1 19 20
M  V30 20 1 8 3
M  V30 21 1 20 10
M  V30 22 1 11 7
M  V30 23 2 20 14
M  V30 24 1 1 21
M  V30 25 1 1 22
M  V30 26 1 1 23
M  V30 27 1 2 24
M  V30 28 1 2 25
M  V30 29 1 4 26
M  V30 30 1 5 27
M  V30 31 1 6 28
M  V30 32 1 9 29
M  V30 33 1 12 30
M  V30 34 1 13 31
M  V30 35 1 16 32
M  V30 36 1 18 33
M  V30 37 1 19 34
M  V30 END BOND
M  V30 END CTAB
M  END
>  <Dataset>  (410) 
ChEMBL_Kinases

>  <Ligand_Instance>  (410) 
nan

>  <PDB_ID>  (410) 
nan

>  <Standardized_SMILES>  (410) 
CCc1cccc2c1[nH]c1c2ccc2c(C=O)c[nH]c21

>  <Name>  (410) 
nan

>  <Pocket>  (410) 
nan

>  <ATP_Site>  (410) 
nan

>  <Peripheral>  (410) 
nan

>  <Num_H_Atoms_ProtBoundConf>  (410) 
nan

>  <Num_Resolved_Atoms>  (410) 
nan

>  <Num_Not_Resolved_Atoms>  (410) 
nan

$$$$
CHEMBL583906
     RDKit          3D

  0  0  0  0  0  0  0  0  0  0999 V3000
M  V30 BEGIN CTAB
M  V30 COUNTS 61 66 0 0 0
M  V30 BEGIN ATOM
M  V30 1 C 1.459832 -0.086927 4.622787 0
M  V30 2 C 1.814791 1.005540 3.707580 0
M  V30 3 C 2.579531 0.761435 2.603666 0
M  V30 4 N 3.076154 -0.519239 2.261640 0
M  V30 5 C 3.866113 -0.655423 1.082500 0
M  V30 6 C 5.236469 -0.507565 1.153525 0
M  V30 7 C 5.807469 -0.216234 2.448988 0
M  V30 8 N 6.268733 0.001603 3.506739 0
M  V30 9 C 6.016225 -0.635940 0.022994 0
M  V30 10 N 5.421421 -0.907894 -1.152711 0
M  V30 11 C 4.079965 -1.057920 -1.251384 0
M  V30 12 C 3.276286 -0.934713 -0.136329 0
M  V30 13 C 1.827167 -1.090827 -0.209779 0
M  V30 14 C 1.080731 -1.366956 -1.326782 0
M  V30 15 C -0.216677 -1.410487 -0.861930 0
M  V30 16 C -1.406330 -1.646754 -1.518153 0
M  V30 17 C -2.630823 -1.647840 -0.858746 0
M  V30 18 C -3.944841 -1.886641 -1.461484 0
M  V30 19 N -4.350117 -3.259467 -1.472129 0
M  V30 20 C -5.639783 -3.474474 -2.066478 0
M  V30 21 C -5.611531 -3.343463 -3.573185 0
M  V30 22 N -4.312512 -3.518459 -4.150788 0
M  V30 23 C -3.451024 -4.413002 -3.441325 0
M  V30 24 C -3.374215 -4.184622 -1.964122 0
M  V30 25 C -2.526233 -1.390610 0.502753 0
M  V30 26 C -1.388693 -1.149405 1.214549 0
M  V30 27 C -0.212094 -1.163987 0.494775 0
M  V30 28 O 1.039057 -0.979073 0.834607 0
M  V30 29 C 2.887506 1.803186 1.778215 0
M  V30 30 C 2.418474 3.072943 2.081085 0
M  V30 31 C 1.636468 3.326545 3.208585 0
M  V30 32 N 1.086787 4.472601 3.677801 0
M  V30 33 C 0.426061 4.152052 4.809108 0
M  V30 34 C 0.562223 2.790246 5.052985 0
M  V30 35 C 1.333896 2.252665 4.036392 0
M  V30 36 H 0.345892 -0.030562 4.791989 0
M  V30 37 H 1.713376 -1.091210 4.285873 0
M  V30 38 H 1.943751 0.109965 5.602151 0
M  V30 39 H 2.976721 -1.428271 2.719425 0
M  V30 40 H 7.093232 -0.517294 0.092344 0
M  V30 41 H 3.644661 -1.278834 -2.232456 0
M  V30 42 H 1.402535 -1.517409 -2.331237 0
M  V30 43 H -1.441824 -1.844694 -2.590148 0
M  V30 44 H -4.687912 -1.323921 -0.847986 0
M  V30 45 H -4.012416 -1.408484 -2.481788 0
M  V30 46 H -6.357776 -2.741403 -1.676359 0
M  V30 47 H -5.952998 -4.514091 -1.803886 0
M  V30 48 H -6.293002 -4.112399 -4.008098 0
M  V30 49 H -5.976028 -2.336032 -3.893274 0
M  V30 50 H -3.880258 -2.666875 -4.520995 0
M  V30 51 H -2.416152 -4.242544 -3.853704 0
M  V30 52 H -3.729085 -5.457420 -3.700518 0
M  V30 53 H -3.586969 -5.176430 -1.467825 0
M  V30 54 H -2.355196 -3.917948 -1.621474 0
M  V30 55 H -3.462975 -1.379468 1.073294 0
M  V30 56 H -1.427734 -0.960275 2.278445 0
M  V30 57 H 3.489452 1.711379 0.875813 0
M  V30 58 H 2.648560 3.911153 1.444466 0
M  V30 59 H 1.132848 5.429591 3.286679 0
M  V30 60 H -0.143176 4.744581 5.493547 0
M  V30 61 H 0.168176 2.187388 5.865204 0
M  V30 END ATOM
M  V30 BEGIN BOND
M  V30 1 1 1 2
M  V30 2 2 2 3
M  V30 3 1 3 4
M  V30 4 1 4 5
M  V30 5 2 5 6
M  V30 6 1 6 7
M  V30 7 3 7 8
M  V30 8 1 6 9
M  V30 9 2 9 10
M  V30 10 1 10 11
M  V30 11 2 11 12
M  V30 12 1 12 13
M  V30 13 2 13 14
M  V30 14 1 14 15
M  V30 15 2 15 16
M  V30 16 1 16 17
M  V30 17 1 17 18
M  V30 18 1 18 19
M  V30 19 1 19 20
M  V30 20 1 20 21
M  V30 21 1 21 22
M  V30 22 1 22 23
M  V30 23 1 23 24
M  V30 24 2 17 25
M  V30 25 1 25 26
M  V30 26 2 26 27
M  V30 27 1 27 28
M  V30 28 1 3 29
M  V30 29 2 29 30
M  V30 30 1 30 31
M  V30 31 1 31 32
M  V30 32 1 32 33
M  V30 33 2 33 34
M  V30 34 1 34 35
M  V30 35 1 35 2
M  V30 36 1 12 5
M  V30 37 1 28 13
M  V30 38 2 35 31
M  V30 39 1 27 15
M  V30 40 1 24 19
M  V30 41 1 1 36
M  V30 42 1 1 37
M  V30 43 1 1 38
M  V30 44 1 4 39
M  V30 45 1 9 40
M  V30 46 1 11 41
M  V30 47 1 14 42
M  V30 48 1 16 43
M  V30 49 1 18 44
M  V30 50 1 18 45
M  V30 51 1 20 46
M  V30 52 1 20 47
M  V30 53 1 21 48
M  V30 54 1 21 49
M  V30 55 1 22 50
M  V30 56 1 23 51
M  V30 57 1 23 52
M  V30 58 1 24 53
M  V30 59 1 24 54
M  V30 60 1 25 55
M  V30 61 1 26 56
M  V30 62 1 29 57
M  V30 63 1 30 58
M  V30 64 1 32 59
M  V30 65 1 33 60
M  V30 66 1 34 61
M  V30 END BOND
M  V30 END CTAB
M  END
>  <Dataset>  (411) 
ChEMBL_Kinases

>  <Ligand_Instance>  (411) 
nan

>  <PDB_ID>  (411) 
nan

>  <Standardized_SMILES>  (411) 
Cc1c(Nc2c(C#N)cncc2-c2cc3cc(CN4CCNCC4)ccc3o2)ccc2[nH]ccc12

>  <Name>  (411) 
nan

>  <Pocket>  (411) 
nan

>  <ATP_Site>  (411) 
nan

>  <Peripheral>  (411) 
nan

>  <Num_H_Atoms_ProtBoundConf>  (411) 
nan

>  <Num_Resolved_Atoms>  (411) 
nan

>  <Num_Not_Resolved_Atoms>  (411) 
nan

$$$$
CHEMBL1241009
     RDKit          3D

  0  0  0  0  0  0  0  0  0  0999 V3000
M  V30 BEGIN CTAB
M  V30 COUNTS 28 31 0 0 0
M  V30 BEGIN ATOM
M  V30 1 O -1.322239 -4.359508 5.090235 0
M  V30 2 C -1.258858 -3.751808 4.004554 0
M  V30 3 C -0.430428 -2.679191 3.463643 0
M  V30 4 C 0.559719 -2.112773 4.238816 0
M  V30 5 N 1.125912 -1.166806 3.446195 0
M  V30 6 C 0.508595 -1.162613 2.252987 0
M  V30 7 C -0.494113 -2.108968 2.208531 0
M  V30 8 C -1.306194 -2.345457 1.119677 0
M  V30 9 C -1.085772 -1.566446 -0.004911 0
M  V30 10 C -0.094927 -0.605928 -0.011362 0
M  V30 11 C 0.315940 0.281090 -0.985007 0
M  V30 12 C -0.079306 0.557596 -2.293006 0
M  V30 13 C 0.529765 1.535544 -3.066903 0
M  V30 14 C 1.557411 2.224066 -2.462354 0
M  V30 15 C 2.007962 2.013622 -1.179452 0
M  V30 16 Br 3.447434 3.046747 -0.469082 0
M  V30 17 C 1.356625 1.026518 -0.468493 0
M  V30 18 N 1.574016 0.603990 0.788210 0
M  V30 19 C 0.715847 -0.385369 1.106633 0
M  V30 20 H -2.062919 -4.280026 3.510668 0
M  V30 21 H 0.850758 -2.342527 5.253894 0
M  V30 22 H 1.919813 -0.522200 3.689351 0
M  V30 23 H -2.072208 -3.101693 1.151822 0
M  V30 24 H -1.682850 -1.692559 -0.900368 0
M  V30 25 H -0.892738 -0.037329 -2.672352 0
M  V30 26 H 0.198416 1.724187 -4.077698 0
M  V30 27 H 2.027309 2.995085 -3.092279 0
M  V30 28 H 2.292633 0.959769 1.460663 0
M  V30 END ATOM
M  V30 BEGIN BOND
M  V30 1 2 1 2
M  V30 2 1 2 3
M  V30 3 2 3 4
M  V30 4 1 4 5
M  V30 5 1 5 6
M  V30 6 2 6 7
M  V30 7 1 7 8
M  V30 8 2 8 9
M  V30 9 1 9 10
M  V30 10 1 10 11
M  V30 11 2 11 12
M  V30 12 1 12 13
M  V30 13 2 13 14
M  V30 14 1 14 15
M  V30 15 1 15 16
M  V30 16 2 15 17
M  V30 17 1 17 18
M  V30 18 1 18 19
M  V30 19 1 7 3
M  V30 20 2 19 10
M  V30 21 1 19 6
M  V30 22 1 17 11
M  V30 23 1 2 20
M  V30 24 1 4 21
M  V30 25 1 5 22
M  V30 26 1 8 23
M  V30 27 1 9 24
M  V30 28 1 12 25
M  V30 29 1 13 26
M  V30 30 1 14 27
M  V30 31 1 18 28
M  V30 END BOND
M  V30 END CTAB
M  END
>  <Dataset>  (412) 
ChEMBL_Kinases

>  <Ligand_Instance>  (412) 
nan

>  <PDB_ID>  (412) 
nan

>  <Standardized_SMILES>  (412) 
O=Cc1c[nH]c2c1ccc1c3cccc(Br)c3[nH]c12

>  <Name>  (412) 
nan

>  <Pocket>  (412) 
nan

>  <ATP_Site>  (412) 
nan

>  <Peripheral>  (412) 
nan

>  <Num_H_Atoms_ProtBoundConf>  (412) 
nan

>  <Num_Resolved_Atoms>  (412) 
nan

>  <Num_Not_Resolved_Atoms>  (412) 
nan

$$$$
CHEMBL600849
     RDKit          3D

  0  0  0  0  0  0  0  0  0  0999 V3000
M  V30 BEGIN CTAB
M  V30 COUNTS 39 41 0 0 0
M  V30 BEGIN ATOM
M  V30 1 C -1.016128 -2.350737 4.056770 0
M  V30 2 N -0.675612 -2.726632 2.731091 0
M  V30 3 C 0.158341 -3.872413 2.574578 0
M  V30 4 C 1.114472 -3.539656 1.419730 0
M  V30 5 C 1.448551 -2.057095 1.541989 0
M  V30 6 N 0.375350 -1.289408 0.985520 0
M  V30 7 C 0.589041 0.100517 0.770896 0
M  V30 8 N 0.495141 0.647293 -0.477732 0
M  V30 9 C 0.704031 1.977375 -0.654268 0
M  V30 10 C 0.598027 2.536757 -1.996754 0
M  V30 11 C 0.302329 1.879466 -3.168713 0
M  V30 12 C 0.308777 2.810378 -4.206619 0
M  V30 13 N 0.600889 3.982119 -3.655010 0
M  V30 14 N 0.766933 3.805867 -2.364193 0
M  V30 15 C 1.013702 2.819117 0.395061 0
M  V30 16 N 1.110573 2.287450 1.645623 0
M  V30 17 C 0.899486 0.959772 1.804977 0
M  V30 18 N 1.018801 0.484949 3.136282 0
M  V30 19 C -0.965859 -1.738836 0.587252 0
M  V30 20 C -1.631031 -2.481370 1.728311 0
M  V30 21 H -0.094573 -2.323903 4.669092 0
M  V30 22 H -1.791011 -2.935483 4.556965 0
M  V30 23 H -1.381464 -1.287026 4.006061 0
M  V30 24 H -0.342869 -4.817278 2.365229 0
M  V30 25 H 0.761849 -3.974575 3.497475 0
M  V30 26 H 0.643032 -3.795080 0.454458 0
M  V30 27 H 2.041208 -4.129975 1.572910 0
M  V30 28 H 2.407462 -1.926146 1.002937 0
M  V30 29 H 1.559481 -1.896752 2.636356 0
M  V30 30 H 0.102326 0.807023 -3.232894 0
M  V30 31 H 0.108116 2.581478 -5.253866 0
M  V30 32 H 0.671961 4.869242 -4.219375 0
M  V30 33 H 1.170754 3.871078 0.202080 0
M  V30 34 H 0.475660 0.232825 3.973661 0
M  V30 35 H 2.065123 0.372917 3.231282 0
M  V30 36 H -0.853659 -2.408515 -0.310284 0
M  V30 37 H -1.585555 -0.904262 0.262422 0
M  V30 38 H -2.146648 -3.385957 1.339352 0
M  V30 39 H -2.440044 -1.825328 2.137465 0
M  V30 END ATOM
M  V30 BEGIN BOND
M  V30 1 1 1 2
M  V30 2 1 2 3
M  V30 3 1 3 4
M  V30 4 1 4 5
M  V30 5 1 5 6
M  V30 6 1 6 7
M  V30 7 2 7 8
M  V30 8 1 8 9
M  V30 9 1 9 10
M  V30 10 1 10 11
M  V30 11 2 11 12
M  V30 12 1 12 13
M  V30 13 1 13 14
M  V30 14 2 9 15
M  V30 15 1 15 16
M  V30 16 2 16 17
M  V30 17 1 17 18
M  V30 18 1 6 19
M  V30 19 1 19 20
M  V30 20 1 20 2
M  V30 21 1 17 7
M  V30 22 2 14 10
M  V30 23 1 1 21
M  V30 24 1 1 22
M  V30 25 1 1 23
M  V30 26 1 3 24
M  V30 27 1 3 25
M  V30 28 1 4 26
M  V30 29 1 4 27
M  V30 30 1 5 28
M  V30 31 1 5 29
M  V30 32 1 11 30
M  V30 33 1 12 31
M  V30 34 1 13 32
M  V30 35 1 15 33
M  V30 36 1 18 34
M  V30 37 1 18 35
M  V30 38 1 19 36
M  V30 39 1 19 37
M  V30 40 1 20 38
M  V30 41 1 20 39
M  V30 END BOND
M  V30 END CTAB
M  END
>  <Dataset>  (413) 
ChEMBL_Kinases

>  <Ligand_Instance>  (413) 
nan

>  <PDB_ID>  (413) 
nan

>  <Standardized_SMILES>  (413) 
CN1CCCN(c2nc(-c3cc[nH]n3)cnc2N)CC1

>  <Name>  (413) 
nan

>  <Pocket>  (413) 
nan

>  <ATP_Site>  (413) 
nan

>  <Peripheral>  (413) 
nan

>  <Num_H_Atoms_ProtBoundConf>  (413) 
nan

>  <Num_Resolved_Atoms>  (413) 
nan

>  <Num_Not_Resolved_Atoms>  (413) 
nan

$$$$
CHEMBL1094700
     RDKit          3D

  0  0  0  0  0  0  0  0  0  0999 V3000
M  V30 BEGIN CTAB
M  V30 COUNTS 76 81 0 0 0
M  V30 BEGIN ATOM
M  V30 1 C 3.651793 -3.791215 6.887020 0
M  V30 2 C 4.901727 -2.958194 7.192787 0
M  V30 3 N 5.487455 -2.491213 5.928839 0
M  V30 4 C 4.708884 -1.672210 5.068911 0
M  V30 5 O 3.544680 -1.390213 5.446508 0
M  V30 6 N 5.155307 -1.146928 3.806455 0
M  V30 7 C 4.201384 -0.347204 3.112818 0
M  V30 8 C 3.381266 -1.051015 2.255160 0
M  V30 9 C 2.425647 -0.344212 1.542890 0
M  V30 10 C 2.313240 1.016546 1.699215 0
M  V30 11 C 1.356026 1.896284 1.019844 0
M  V30 12 N 1.544339 2.907418 0.170274 0
M  V30 13 N 0.382481 3.433330 -0.203870 0
M  V30 14 C 0.167522 4.539123 -1.110758 0
M  V30 15 C 0.133179 5.875396 -0.449471 0
M  V30 16 C -0.586718 2.762099 0.405384 0
M  V30 17 C -0.023663 1.771631 1.197313 0
M  V30 18 C -0.688068 0.786467 2.050362 0
M  V30 19 C -0.449750 0.799708 3.425183 0
M  V30 20 C -1.050475 -0.111874 4.299554 0
M  V30 21 N -1.889273 -1.039525 3.814585 0
M  V30 22 C -2.133534 -1.070751 2.492308 0
M  V30 23 N -2.914534 -1.871708 1.732195 0
M  V30 24 C -2.843004 -1.520616 0.431293 0
M  V30 25 C -3.553750 -2.166800 -0.666864 0
M  V30 26 C -4.387066 -3.240992 -0.410114 0
M  V30 27 C -5.055715 -3.842242 -1.467831 0
M  V30 28 C -4.881660 -3.362769 -2.757557 0
M  V30 29 C -4.043631 -2.281851 -3.019149 0
M  V30 30 C -3.885873 -1.798800 -4.415355 0
M  V30 31 N -2.818212 -2.432158 -5.135633 0
M  V30 32 C -2.835175 -1.819749 -6.473879 0
M  V30 33 C -1.973655 -2.543857 -7.455591 0
M  V30 34 O -0.895549 -3.099169 -6.772344 0
M  V30 35 C -0.528631 -2.164594 -5.780914 0
M  V30 36 C -1.507591 -2.210043 -4.605251 0
M  V30 37 C -3.403705 -1.717755 -1.952974 0
M  V30 38 C -1.985296 -0.448014 0.313090 0
M  V30 39 C -1.557694 -0.186746 1.603489 0
M  V30 40 C 3.161955 1.698337 2.578078 0
M  V30 41 C 4.132451 1.022099 3.309370 0
M  V30 42 H 2.763615 -3.168546 6.774303 0
M  V30 43 H 3.460269 -4.506234 7.736184 0
M  V30 44 H 3.870973 -4.451260 6.018645 0
M  V30 45 H 4.648486 -2.144618 7.874116 0
M  V30 46 H 5.642738 -3.680036 7.613725 0
M  V30 47 H 6.452621 -2.712712 5.594700 0
M  V30 48 H 6.146899 -1.449611 3.595233 0
M  V30 49 H 3.452475 -2.118320 2.117514 0
M  V30 50 H 1.739917 -0.796904 0.851743 0
M  V30 51 H -0.716890 4.334927 -1.745314 0
M  V30 52 H 1.036866 4.510922 -1.815540 0
M  V30 53 H 0.726958 5.879969 0.485578 0
M  V30 54 H -0.897062 6.250918 -0.261053 0
M  V30 55 H 0.627475 6.614558 -1.114354 0
M  V30 56 H -1.671618 2.875832 0.369366 0
M  V30 57 H 0.237673 1.567584 3.786000 0
M  V30 58 H -0.767671 0.026387 5.330726 0
M  V30 59 H -3.503421 -2.663972 2.087176 0
M  V30 60 H -4.523537 -3.615288 0.595631 0
M  V30 61 H -5.713552 -4.685187 -1.289241 0
M  V30 62 H -5.413844 -3.844199 -3.587557 0
M  V30 63 H -4.802666 -1.884342 -5.019612 0
M  V30 64 H -3.640084 -0.696149 -4.422221 0
M  V30 65 H -3.911585 -1.783599 -6.749621 0
M  V30 66 H -2.522144 -0.755946 -6.318069 0
M  V30 67 H -2.586455 -3.285722 -8.005567 0
M  V30 68 H -1.600400 -1.796407 -8.184465 0
M  V30 69 H -0.524898 -1.188087 -6.293684 0
M  V30 70 H 0.502045 -2.406061 -5.482112 0
M  V30 71 H -1.383339 -1.253970 -4.069971 0
M  V30 72 H -1.135803 -3.035504 -3.954982 0
M  V30 73 H -2.757514 -0.891214 -2.121482 0
M  V30 74 H -1.689674 0.089929 -0.559140 0
M  V30 75 H 3.133677 2.776452 2.756061 0
M  V30 76 H 4.794960 1.520560 3.989371 0
M  V30 END ATOM
M  V30 BEGIN BOND
M  V30 1 1 1 2
M  V30 2 1 2 3
M  V30 3 1 3 4
M  V30 4 2 4 5
M  V30 5 1 4 6
M  V30 6 1 6 7
M  V30 7 2 7 8
M  V30 8 1 8 9
M  V30 9 2 9 10
M  V30 10 1 10 11
M  V30 11 2 11 12
M  V30 12 1 12 13
M  V30 13 1 13 14
M  V30 14 1 14 15
M  V30 15 1 13 16
M  V30 16 2 16 17
M  V30 17 1 17 18
M  V30 18 2 18 19
M  V30 19 1 19 20
M  V30 20 2 20 21
M  V30 21 1 21 22
M  V30 22 1 22 23
M  V30 23 1 23 24
M  V30 24 1 24 25
M  V30 25 2 25 26
M  V30 26 1 26 27
M  V30 27 2 27 28
M  V30 28 1 28 29
M  V30 29 1 29 30
M  V30 30 1 30 31
M  V30 31 1 31 32
M  V30 32 1 32 33
M  V30 33 1 33 34
M  V30 34 1 34 35
M  V30 35 1 35 36
M  V30 36 2 29 37
M  V30 37 2 24 38
M  V30 38 1 38 39
M  V30 39 1 10 40
M  V30 40 2 40 41
M  V30 41 1 41 7
M  V30 42 1 17 11
M  V30 43 1 39 18
M  V30 44 2 39 22
M  V30 45 1 37 25
M  V30 46 1 36 31
M  V30 47 1 1 42
M  V30 48 1 1 43
M  V30 49 1 1 44
M  V30 50 1 2 45
M  V30 51 1 2 46
M  V30 52 1 3 47
M  V30 53 1 6 48
M  V30 54 1 8 49
M  V30 55 1 9 50
M  V30 56 1 14 51
M  V30 57 1 14 52
M  V30 58 1 15 53
M  V30 59 1 15 54
M  V30 60 1 15 55
M  V30 61 1 16 56
M  V30 62 1 19 57
M  V30 63 1 20 58
M  V30 64 1 23 59
M  V30 65 1 26 60
M  V30 66 1 27 61
M  V30 67 1 28 62
M  V30 68 1 30 63
M  V30 69 1 30 64
M  V30 70 1 32 65
M  V30 71 1 32 66
M  V30 72 1 33 67
M  V30 73 1 33 68
M  V30 74 1 35 69
M  V30 75 1 35 70
M  V30 76 1 36 71
M  V30 77 1 36 72
M  V30 78 1 37 73
M  V30 79 1 38 74
M  V30 80 1 40 75
M  V30 81 1 41 76
M  V30 END BOND
M  V30 END CTAB
M  END
>  <Dataset>  (414) 
ChEMBL_Kinases

>  <Ligand_Instance>  (414) 
nan

>  <PDB_ID>  (414) 
nan

>  <Standardized_SMILES>  (414) 
CCNC(=O)Nc1ccc(-c2nn(CC)cc2-c2ccnc3[nH]c(-c4cccc(CN5CCOCC5)c4)cc23)cc1

>  <Name>  (414) 
nan

>  <Pocket>  (414) 
nan

>  <ATP_Site>  (414) 
nan

>  <Peripheral>  (414) 
nan

>  <Num_H_Atoms_ProtBoundConf>  (414) 
nan

>  <Num_Resolved_Atoms>  (414) 
nan

>  <Num_Not_Resolved_Atoms>  (414) 
nan

$$$$
CHEMBL600236
     RDKit          3D

  0  0  0  0  0  0  0  0  0  0999 V3000
M  V30 BEGIN CTAB
M  V30 COUNTS 45 48 0 0 0
M  V30 BEGIN ATOM
M  V30 1 C -0.302975 -5.684720 -0.588893 0
M  V30 2 N -0.343584 -4.612045 0.352308 0
M  V30 3 C -1.644499 -4.023246 0.528862 0
M  V30 4 C -2.160836 -3.315539 -0.676141 0
M  V30 5 C -1.729651 -1.879559 -0.802511 0
M  V30 6 N -0.687838 -1.640800 0.177937 0
M  V30 7 C -0.699690 -0.398980 0.865033 0
M  V30 8 N 0.322828 0.465225 0.802527 0
M  V30 9 C 0.385092 1.654214 1.422301 0
M  V30 10 C 1.576902 2.424928 1.170763 0
M  V30 11 C 2.349001 2.086103 0.069075 0
M  V30 12 C 3.513608 2.742514 -0.255726 0
M  V30 13 C 3.974782 3.784576 0.512523 0
M  V30 14 C 3.231354 4.141405 1.611471 0
M  V30 15 N 3.483597 5.102303 2.517058 0
M  V30 16 N 2.472117 5.028776 3.396315 0
M  V30 17 C 1.634834 4.063879 3.044557 0
M  V30 18 C 2.073498 3.466383 1.908709 0
M  V30 19 C -0.738629 1.902289 2.146243 0
M  V30 20 N -1.790936 1.084319 2.250427 0
M  V30 21 C -1.810421 -0.097641 1.613223 0
M  V30 22 N -2.956867 -0.919424 1.765139 0
M  V30 23 C 0.444028 -2.316840 0.718757 0
M  V30 24 C 0.680972 -3.647001 0.040600 0
M  V30 25 H -0.393421 -6.659822 -0.030703 0
M  V30 26 H -1.092697 -5.697568 -1.344524 0
M  V30 27 H 0.725780 -5.731005 -1.053031 0
M  V30 28 H -1.667508 -3.378316 1.404833 0
M  V30 29 H -2.336599 -4.888564 0.728533 0
M  V30 30 H -1.992125 -3.885565 -1.610566 0
M  V30 31 H -3.284747 -3.303647 -0.566343 0
M  V30 32 H -1.326416 -1.742473 -1.848302 0
M  V30 33 H -2.569272 -1.170706 -0.695378 0
M  V30 34 H 2.071603 1.276177 -0.602728 0
M  V30 35 H 4.085581 2.455907 -1.114555 0
M  V30 36 H 4.886666 4.304246 0.263112 0
M  V30 37 H 4.298923 5.754172 2.515667 0
M  V30 38 H 0.777368 3.853403 3.643684 0
M  V30 39 H -0.805959 2.834979 2.652418 0
M  V30 40 H -2.936940 -1.526524 2.620189 0
M  V30 41 H -3.188798 -1.597584 2.502509 0
M  V30 42 H 1.353803 -1.699332 0.463633 0
M  V30 43 H 0.468357 -2.429887 1.802085 0
M  V30 44 H 0.839445 -3.512473 -1.051007 0
M  V30 45 H 1.639103 -4.039536 0.450059 0
M  V30 END ATOM
M  V30 BEGIN BOND
M  V30 1 1 1 2
M  V30 2 1 2 3
M  V30 3 1 3 4
M  V30 4 1 4 5
M  V30 5 1 5 6
M  V30 6 1 6 7
M  V30 7 2 7 8
M  V30 8 1 8 9
M  V30 9 1 9 10
M  V30 10 2 10 11
M  V30 11 1 11 12
M  V30 12 2 12 13
M  V30 13 1 13 14
M  V30 14 1 14 15
M  V30 15 1 15 16
M  V30 16 2 16 17
M  V30 17 1 17 18
M  V30 18 2 9 19
M  V30 19 1 19 20
M  V30 20 2 20 21
M  V30 21 1 21 22
M  V30 22 1 6 23
M  V30 23 1 23 24
M  V30 24 1 24 2
M  V30 25 1 21 7
M  V30 26 1 18 10
M  V30 27 2 18 14
M  V30 28 1 1 25
M  V30 29 1 1 26
M  V30 30 1 1 27
M  V30 31 1 3 28
M  V30 32 1 3 29
M  V30 33 1 4 30
M  V30 34 1 4 31
M  V30 35 1 5 32
M  V30 36 1 5 33
M  V30 37 1 11 34
M  V30 38 1 12 35
M  V30 39 1 13 36
M  V30 40 1 15 37
M  V30 41 1 17 38
M  V30 42 1 19 39
M  V30 43 1 22 40
M  V30 44 1 22 41
M  V30 45 1 23 42
M  V30 46 1 23 43
M  V30 47 1 24 44
M  V30 48 1 24 45
M  V30 END BOND
M  V30 END CTAB
M  END
>  <Dataset>  (415) 
ChEMBL_Kinases

>  <Ligand_Instance>  (415) 
nan

>  <PDB_ID>  (415) 
nan

>  <Standardized_SMILES>  (415) 
CN1CCCN(c2nc(-c3cccc4[nH]ncc34)cnc2N)CC1

>  <Name>  (415) 
nan

>  <Pocket>  (415) 
nan

>  <ATP_Site>  (415) 
nan

>  <Peripheral>  (415) 
nan

>  <Num_H_Atoms_ProtBoundConf>  (415) 
nan

>  <Num_Resolved_Atoms>  (415) 
nan

>  <Num_Not_Resolved_Atoms>  (415) 
nan

$$$$
CHEMBL572783
     RDKit          3D

  0  0  0  0  0  0  0  0  0  0999 V3000
M  V30 BEGIN CTAB
M  V30 COUNTS 39 42 0 0 0
M  V30 BEGIN ATOM
M  V30 1 C 1.087387 -2.774427 3.122130 0
M  V30 2 N 1.310410 -4.093394 2.562637 0
M  V30 3 C 0.645532 -5.048587 3.428649 0
M  V30 4 C 0.709949 -4.142926 1.246860 0
M  V30 5 C 1.342079 -3.104117 0.377197 0
M  V30 6 N 0.806841 -1.890861 0.345096 0
M  V30 7 C 1.302627 -0.893287 -0.405166 0
M  V30 8 C 2.401902 -1.284170 -1.111658 0
M  V30 9 S 2.906339 0.130583 -2.022529 0
M  V30 10 C 1.518329 1.233296 -1.354677 0
M  V30 11 C 1.296125 2.563225 -1.672239 0
M  V30 12 C 0.210630 3.121623 -1.038034 0
M  V30 13 C -0.515192 2.329031 -0.184862 0
M  V30 14 C -1.690217 2.903943 0.512573 0
M  V30 15 C -2.127988 4.185001 0.379860 0
M  V30 16 C -3.236788 4.408926 1.155233 0
M  V30 17 C -3.464514 3.215503 1.770529 0
M  V30 18 N -2.539763 2.322212 1.383833 0
M  V30 19 C -0.246793 1.011327 0.092462 0
M  V30 20 C 0.822519 0.381918 -0.503089 0
M  V30 21 C 2.954543 -2.534835 -1.079216 0
M  V30 22 O 3.970980 -2.744818 -1.788124 0
M  V30 23 N 2.423181 -3.502865 -0.312323 0
M  V30 24 H 0.026969 -2.524007 2.972172 0
M  V30 25 H 1.345023 -2.746492 4.203140 0
M  V30 26 H 1.785309 -2.080062 2.609569 0
M  V30 27 H -0.365681 -5.287464 2.992321 0
M  V30 28 H 1.251933 -5.988836 3.507980 0
M  V30 29 H 0.561950 -4.614725 4.448538 0
M  V30 30 H 0.795320 -5.146762 0.787548 0
M  V30 31 H -0.375677 -3.920149 1.267763 0
M  V30 32 H 1.952733 3.051930 -2.360026 0
M  V30 33 H -0.014227 4.154259 -1.244124 0
M  V30 34 H -1.654211 4.936559 -0.263193 0
M  V30 35 H -3.771573 5.344378 1.224739 0
M  V30 36 H -4.284676 3.023404 2.475692 0
M  V30 37 H -2.481916 1.342641 1.699518 0
M  V30 38 H -0.882998 0.470002 0.783834 0
M  V30 39 H 2.810565 -4.447779 -0.264499 0
M  V30 END ATOM
M  V30 BEGIN BOND
M  V30 1 1 1 2
M  V30 2 1 2 3
M  V30 3 1 2 4
M  V30 4 1 4 5
M  V30 5 2 5 6
M  V30 6 1 6 7
M  V30 7 2 7 8
M  V30 8 1 8 9
M  V30 9 1 9 10
M  V30 10 2 10 11
M  V30 11 1 11 12
M  V30 12 2 12 13
M  V30 13 1 13 14
M  V30 14 2 14 15
M  V30 15 1 15 16
M  V30 16 2 16 17
M  V30 17 1 17 18
M  V30 18 1 13 19
M  V30 19 2 19 20
M  V30 20 1 8 21
M  V30 21 2 21 22
M  V30 22 1 21 23
M  V30 23 1 23 5
M  V30 24 1 20 7
M  V30 25 1 20 10
M  V30 26 1 18 14
M  V30 27 1 1 24
M  V30 28 1 1 25
M  V30 29 1 1 26
M  V30 30 1 3 27
M  V30 31 1 3 28
M  V30 32 1 3 29
M  V30 33 1 4 30
M  V30 34 1 4 31
M  V30 35 1 11 32
M  V30 36 1 12 33
M  V30 37 1 15 34
M  V30 38 1 16 35
M  V30 39 1 17 36
M  V30 40 1 18 37
M  V30 41 1 19 38
M  V30 42 1 23 39
M  V30 END BOND
M  V30 END CTAB
M  END
>  <Dataset>  (416) 
ChEMBL_Kinases

>  <Ligand_Instance>  (416) 
nan

>  <PDB_ID>  (416) 
nan

>  <Standardized_SMILES>  (416) 
CN(C)Cc1nc2c(sc3ccc(-c4ccc[nH]4)cc32)c(=O)[nH]1

>  <Name>  (416) 
nan

>  <Pocket>  (416) 
nan

>  <ATP_Site>  (416) 
nan

>  <Peripheral>  (416) 
nan

>  <Num_H_Atoms_ProtBoundConf>  (416) 
nan

>  <Num_Resolved_Atoms>  (416) 
nan

>  <Num_Not_Resolved_Atoms>  (416) 
nan

$$$$
CHEMBL1094701
     RDKit          3D

  0  0  0  0  0  0  0  0  0  0999 V3000
M  V30 BEGIN CTAB
M  V30 COUNTS 76 81 0 0 0
M  V30 BEGIN ATOM
M  V30 1 C 1.156793 -3.079289 6.919656 0
M  V30 2 C 2.589266 -3.002316 6.418660 0
M  V30 3 N 2.597771 -2.535291 5.027553 0
M  V30 4 C 2.534843 -3.368010 3.965020 0
M  V30 5 C 2.564815 -2.575522 2.837879 0
M  V30 6 C 2.518251 -3.030907 1.454118 0
M  V30 7 C 3.432311 -3.821944 0.805811 0
M  V30 8 C 3.198598 -4.147760 -0.533386 0
M  V30 9 N 2.104219 -3.697944 -1.173682 0
M  V30 10 C 1.203068 -2.922413 -0.546725 0
M  V30 11 N 0.061603 -2.383667 -1.014053 0
M  V30 12 C -0.525907 -1.676709 -0.030161 0
M  V30 13 C -1.785619 -0.925827 -0.096497 0
M  V30 14 C -2.292008 -0.232710 0.983803 0
M  V30 15 C -3.484731 0.449948 0.844423 0
M  V30 16 C -4.139353 0.421720 -0.369915 0
M  V30 17 C -3.666075 -0.266212 -1.492869 0
M  V30 18 C -4.445687 -0.225489 -2.729714 0
M  V30 19 N -5.424089 -1.253698 -2.888348 0
M  V30 20 C -4.926887 -2.592546 -2.895762 0
M  V30 21 C -5.215162 -3.250944 -1.547075 0
M  V30 22 O -6.588589 -3.517217 -1.556855 0
M  V30 23 C -7.306622 -2.482968 -2.106908 0
M  V30 24 C -6.575319 -1.137046 -2.019389 0
M  V30 25 C -2.479163 -0.922672 -1.289448 0
M  V30 26 C 0.282279 -1.783694 1.083151 0
M  V30 27 C 1.398417 -2.572570 0.793220 0
M  V30 28 C 2.647687 -1.240466 3.248391 0
M  V30 29 C 2.703319 -0.064539 2.387831 0
M  V30 30 C 1.848072 1.011034 2.298319 0
M  V30 31 C 2.115752 2.014022 1.393304 0
M  V30 32 C 3.224492 1.963246 0.573529 0
M  V30 33 N 3.489940 3.002596 -0.355127 0
M  V30 34 C 2.963056 2.949209 -1.695275 0
M  V30 35 O 2.278491 1.922168 -1.918103 0
M  V30 36 N 3.280449 4.045430 -2.575850 0
M  V30 37 C 4.067290 5.257979 -2.372680 0
M  V30 38 C 2.680962 3.860005 -3.900391 0
M  V30 39 C 4.094512 0.896848 0.645485 0
M  V30 40 C 3.827950 -0.116090 1.556580 0
M  V30 41 N 2.662753 -1.303773 4.587700 0
M  V30 42 H 0.807432 -2.114926 7.352257 0
M  V30 43 H 1.129363 -3.851699 7.712045 0
M  V30 44 H 0.500986 -3.418009 6.089144 0
M  V30 45 H 2.986731 -4.036093 6.447505 0
M  V30 46 H 3.164502 -2.354131 7.089155 0
M  V30 47 H 2.473200 -4.429246 3.937566 0
M  V30 48 H 4.268928 -4.128932 1.400526 0
M  V30 49 H 3.987908 -4.777833 -0.941084 0
M  V30 50 H -0.298990 -2.503663 -1.987257 0
M  V30 51 H -1.704018 -0.271578 1.891533 0
M  V30 52 H -3.846395 0.975367 1.700666 0
M  V30 53 H -5.068398 0.994328 -0.364698 0
M  V30 54 H -4.987607 0.748545 -2.751773 0
M  V30 55 H -3.817844 -0.222360 -3.647819 0
M  V30 56 H -5.477757 -3.189216 -3.658271 0
M  V30 57 H -3.865033 -2.719594 -3.096245 0
M  V30 58 H -4.914483 -2.643525 -0.694285 0
M  V30 59 H -4.654326 -4.200945 -1.517287 0
M  V30 60 H -7.441877 -2.699632 -3.205937 0
M  V30 61 H -8.280792 -2.414304 -1.609063 0
M  V30 62 H -6.333935 -0.952399 -0.963789 0
M  V30 63 H -7.272209 -0.377782 -2.372221 0
M  V30 64 H -2.068207 -1.469795 -2.124825 0
M  V30 65 H 0.123517 -1.347259 2.048261 0
M  V30 66 H 1.021544 0.936659 2.988171 0
M  V30 67 H 1.408250 2.831586 1.369767 0
M  V30 68 H 4.080692 3.791075 -0.007063 0
M  V30 69 H 4.052469 5.513621 -1.293048 0
M  V30 70 H 5.107711 5.124761 -2.747509 0
M  V30 71 H 3.568857 6.060750 -2.937644 0
M  V30 72 H 1.600112 4.164772 -3.803760 0
M  V30 73 H 2.659171 2.813288 -4.210029 0
M  V30 74 H 3.115376 4.544808 -4.637470 0
M  V30 75 H 4.954276 0.891852 -0.013893 0
M  V30 76 H 4.581698 -0.912291 1.529608 0
M  V30 END ATOM
M  V30 BEGIN BOND
M  V30 1 1 1 2
M  V30 2 1 2 3
M  V30 3 1 3 4
M  V30 4 2 4 5
M  V30 5 1 5 6
M  V30 6 2 6 7
M  V30 7 1 7 8
M  V30 8 2 8 9
M  V30 9 1 9 10
M  V30 10 1 10 11
M  V30 11 1 11 12
M  V30 12 1 12 13
M  V30 13 2 13 14
M  V30 14 1 14 15
M  V30 15 2 15 16
M  V30 16 1 16 17
M  V30 17 1 17 18
M  V30 18 1 18 19
M  V30 19 1 19 20
M  V30 20 1 20 21
M  V30 21 1 21 22
M  V30 22 1 22 23
M  V30 23 1 23 24
M  V30 24 2 17 25
M  V30 25 2 12 26
M  V30 26 1 26 27
M  V30 27 1 5 28
M  V30 28 1 28 29
M  V30 29 2 29 30
M  V30 30 1 30 31
M  V30 31 2 31 32
M  V30 32 1 32 33
M  V30 33 1 33 34
M  V30 34 2 34 35
M  V30 35 1 34 36
M  V30 36 1 36 37
M  V30 37 1 36 38
M  V30 38 1 32 39
M  V30 39 2 39 40
M  V30 40 2 28 41
M  V30 41 1 41 3
M  V30 42 1 27 6
M  V30 43 1 40 29
M  V30 44 2 27 10
M  V30 45 1 25 13
M  V30 46 1 24 19
M  V30 47 1 1 42
M  V30 48 1 1 43
M  V30 49 1 1 44
M  V30 50 1 2 45
M  V30 51 1 2 46
M  V30 52 1 4 47
M  V30 53 1 7 48
M  V30 54 1 8 49
M  V30 55 1 11 50
M  V30 56 1 14 51
M  V30 57 1 15 52
M  V30 58 1 16 53
M  V30 59 1 18 54
M  V30 60 1 18 55
M  V30 61 1 20 56
M  V30 62 1 20 57
M  V30 63 1 21 58
M  V30 64 1 21 59
M  V30 65 1 23 60
M  V30 66 1 23 61
M  V30 67 1 24 62
M  V30 68 1 24 63
M  V30 69 1 25 64
M  V30 70 1 26 65
M  V30 71 1 30 66
M  V30 72 1 31 67
M  V30 73 1 33 68
M  V30 74 1 37 69
M  V30 75 1 37 70
M  V30 76 1 37 71
M  V30 77 1 38 72
M  V30 78 1 38 73
M  V30 79 1 38 74
M  V30 80 1 39 75
M  V30 81 1 40 76
M  V30 END BOND
M  V30 END CTAB
M  END
>  <Dataset>  (417) 
ChEMBL_Kinases

>  <Ligand_Instance>  (417) 
nan

>  <PDB_ID>  (417) 
nan

>  <Standardized_SMILES>  (417) 
CCn1cc(-c2ccnc3[nH]c(-c4cccc(CN5CCOCC5)c4)cc23)c(-c2ccc(NC(=O)N(C)C)cc2)n1

>  <Name>  (417) 
nan

>  <Pocket>  (417) 
nan

>  <ATP_Site>  (417) 
nan

>  <Peripheral>  (417) 
nan

>  <Num_H_Atoms_ProtBoundConf>  (417) 
nan

>  <Num_Resolved_Atoms>  (417) 
nan

>  <Num_Not_Resolved_Atoms>  (417) 
nan

$$$$
CHEMBL2087982
     RDKit          3D

  0  0  0  0  0  0  0  0  0  0999 V3000
M  V30 BEGIN CTAB
M  V30 COUNTS 47 51 0 0 0
M  V30 BEGIN ATOM
M  V30 1 C 0.055224 -2.726996 4.147573 0
M  V30 2 C 0.834111 -2.523579 2.899454 0
M  V30 3 C 2.049132 -3.106240 2.644306 0
M  V30 4 C 2.629881 -2.804957 1.432106 0
M  V30 5 C 1.998248 -1.959105 0.543190 0
M  V30 6 C 0.759092 -1.382194 0.836054 0
M  V30 7 C 0.126346 -0.483109 -0.151318 0
M  V30 8 N 0.840408 0.595244 -0.401120 0
M  V30 9 C 0.400723 1.451106 -1.240924 0
M  V30 10 N 0.864624 2.691938 -1.754572 0
M  V30 11 C 2.136498 3.150362 -1.230822 0
M  V30 12 C 2.107736 3.348394 0.242411 0
M  V30 13 C 2.699553 2.443766 1.127006 0
M  V30 14 C 2.657359 2.654916 2.507098 0
M  V30 15 C 2.023794 3.773298 3.038431 0
M  V30 16 C 1.436350 4.673552 2.185154 0
M  V30 17 F 0.837463 5.737875 2.746991 0
M  V30 18 C 1.493041 4.439918 0.821183 0
M  V30 19 F 0.887710 5.376746 0.034733 0
M  V30 20 S -1.175822 0.765829 -1.797758 0
M  V30 21 C -1.096446 -0.707635 -0.783886 0
M  V30 22 C -1.948189 -1.834630 -0.586890 0
M  V30 23 C -2.148876 -2.676548 -1.687094 0
M  V30 24 C -2.955419 -3.797733 -1.615918 0
M  V30 25 C -3.572073 -4.071471 -0.402667 0
M  V30 26 N -4.396235 -5.054110 -0.004248 0
M  V30 27 C -4.732533 -4.881563 1.297762 0
M  V30 28 N -4.094438 -3.762267 1.701094 0
M  V30 29 N -3.400470 -3.283592 0.672888 0
M  V30 30 C -2.610596 -2.204336 0.565664 0
M  V30 31 N 0.247587 -1.715732 2.032248 0
M  V30 32 H -1.038873 -2.683874 3.984352 0
M  V30 33 H 0.374457 -3.679398 4.629407 0
M  V30 34 H 0.319976 -1.905548 4.826509 0
M  V30 35 H 2.470321 -3.756859 3.400427 0
M  V30 36 H 3.600643 -3.259686 1.207980 0
M  V30 37 H 2.467428 -1.726426 -0.416497 0
M  V30 38 H 0.337171 3.244256 -2.459244 0
M  V30 39 H 2.478153 4.060346 -1.766071 0
M  V30 40 H 2.853046 2.303263 -1.423305 0
M  V30 41 H 3.200413 1.564443 0.747476 0
M  V30 42 H 3.148519 1.893398 3.128529 0
M  V30 43 H 2.062050 3.816079 4.105719 0
M  V30 44 H -1.702522 -2.525099 -2.657733 0
M  V30 45 H -3.121762 -4.454683 -2.446315 0
M  V30 46 H -5.341936 -5.389114 2.027632 0
M  V30 47 H -2.470779 -1.572515 1.414599 0
M  V30 END ATOM
M  V30 BEGIN BOND
M  V30 1 1 1 2
M  V30 2 2 2 3
M  V30 3 1 3 4
M  V30 4 2 4 5
M  V30 5 1 5 6
M  V30 6 1 6 7
M  V30 7 1 7 8
M  V30 8 2 8 9
M  V30 9 1 9 10
M  V30 10 1 10 11
M  V30 11 1 11 12
M  V30 12 2 12 13
M  V30 13 1 13 14
M  V30 14 2 14 15
M  V30 15 1 15 16
M  V30 16 1 16 17
M  V30 17 2 16 18
M  V30 18 1 18 19
M  V30 19 1 9 20
M  V30 20 1 20 21
M  V30 21 1 21 22
M  V30 22 1 22 23
M  V30 23 2 23 24
M  V30 24 1 24 25
M  V30 25 2 25 26
M  V30 26 1 26 27
M  V30 27 2 27 28
M  V30 28 1 28 29
M  V30 29 1 29 30
M  V30 30 2 6 31
M  V30 31 1 31 2
M  V30 32 2 21 7
M  V30 33 2 30 22
M  V30 34 1 18 12
M  V30 35 1 29 25
M  V30 36 1 1 32
M  V30 37 1 1 33
M  V30 38 1 1 34
M  V30 39 1 3 35
M  V30 40 1 4 36
M  V30 41 1 5 37
M  V30 42 1 10 38
M  V30 43 1 11 39
M  V30 44 1 11 40
M  V30 45 1 13 41
M  V30 46 1 14 42
M  V30 47 1 15 43
M  V30 48 1 23 44
M  V30 49 1 24 45
M  V30 50 1 27 46
M  V30 51 1 30 47
M  V30 END BOND
M  V30 END CTAB
M  END
>  <Dataset>  (418) 
ChEMBL_Kinases

>  <Ligand_Instance>  (418) 
nan

>  <PDB_ID>  (418) 
nan

>  <Standardized_SMILES>  (418) 
Cc1cccc(-c2nc(NCc3cccc(F)c3F)sc2-c2ccc3ncnn3c2)n1

>  <Name>  (418) 
nan

>  <Pocket>  (418) 
nan

>  <ATP_Site>  (418) 
nan

>  <Peripheral>  (418) 
nan

>  <Num_H_Atoms_ProtBoundConf>  (418) 
nan

>  <Num_Resolved_Atoms>  (418) 
nan

>  <Num_Not_Resolved_Atoms>  (418) 
nan

$$$$
CHEMBL4638273
     RDKit          3D

  0  0  0  0  0  0  0  0  0  0999 V3000
M  V30 BEGIN CTAB
M  V30 COUNTS 58 61 0 0 0
M  V30 BEGIN ATOM
M  V30 1 C 4.419538 -2.743969 2.729555 0
M  V30 2 O 3.845249 -4.026634 2.665840 0
M  V30 3 C 2.847769 -4.404466 1.818323 0
M  V30 4 C 2.259566 -3.563174 0.896033 0
M  V30 5 C 1.248563 -3.916712 0.025701 0
M  V30 6 C 0.678387 -2.954033 -0.922165 0
M  V30 7 C 0.493896 -3.323348 -2.239574 0
M  V30 8 N -0.025294 -2.444095 -3.119181 0
M  V30 9 C -0.378038 -1.196661 -2.758702 0
M  V30 10 C -0.202600 -0.802602 -1.441514 0
M  V30 11 C -0.598490 0.554404 -1.070475 0
M  V30 12 C -1.359027 0.772349 0.075779 0
M  V30 13 C -1.741046 2.045640 0.443517 0
M  V30 14 C -1.386869 3.143728 -0.304668 0
M  V30 15 N -1.768963 4.458297 0.056430 0
M  V30 16 C -2.502518 4.906314 1.217083 0
M  V30 17 C -3.889483 5.303670 0.852805 0
M  V30 18 N -3.921379 5.785243 -0.505550 0
M  V30 19 C -2.708644 6.579035 -0.713253 0
M  V30 20 C -1.492923 5.661780 -0.697250 0
M  V30 21 C -0.635460 2.960957 -1.442617 0
M  V30 22 C -0.259218 1.673537 -1.798694 0
M  V30 23 C 0.331851 -1.675040 -0.488897 0
M  V30 24 C 0.513859 -1.260210 0.883518 0
M  V30 25 N 0.654076 -0.931264 1.998621 0
M  V30 26 C 0.788831 -5.222032 0.084580 0
M  V30 27 C 1.339865 -6.107960 0.987136 0
M  V30 28 O 0.965505 -7.430022 1.137191 0
M  V30 29 C -0.040793 -8.053368 0.378351 0
M  V30 30 C 2.365172 -5.696019 1.848793 0
M  V30 31 O 2.943103 -6.579046 2.777690 0
M  V30 32 C 2.391361 -6.688675 4.096014 0
M  V30 33 H 4.825949 -2.482755 1.741001 0
M  V30 34 H 3.601439 -2.014248 2.930171 0
M  V30 35 H 5.154408 -2.625988 3.521028 0
M  V30 36 H 2.610546 -2.553271 0.843245 0
M  V30 37 H 0.757326 -4.323745 -2.608048 0
M  V30 38 H -0.802225 -0.472090 -3.467681 0
M  V30 39 H -1.644000 -0.083170 0.668605 0
M  V30 40 H -2.328284 2.115534 1.344203 0
M  V30 41 H -2.592128 4.022373 1.920342 0
M  V30 42 H -1.966188 5.718088 1.761985 0
M  V30 43 H -4.618908 4.470119 0.982271 0
M  V30 44 H -4.238773 6.124668 1.510793 0
M  V30 45 H -4.732059 6.403248 -0.718683 0
M  V30 46 H -2.775476 7.170648 -1.649106 0
M  V30 47 H -2.612946 7.263415 0.137702 0
M  V30 48 H -1.283199 5.434088 -1.756724 0
M  V30 49 H -0.613747 6.156847 -0.257289 0
M  V30 50 H -0.288486 3.726097 -2.119217 0
M  V30 51 H 0.332470 1.454424 -2.679814 0
M  V30 52 H 0.001583 -5.568579 -0.563652 0
M  V30 53 H -0.225461 -7.583647 -0.603902 0
M  V30 54 H -1.020556 -8.079446 0.929700 0
M  V30 55 H 0.219718 -9.122177 0.144727 0
M  V30 56 H 2.947446 -7.429252 4.693323 0
M  V30 57 H 2.546888 -5.713571 4.629540 0
M  V30 58 H 1.313423 -6.871084 4.082323 0
M  V30 END ATOM
M  V30 BEGIN BOND
M  V30 1 1 1 2
M  V30 2 1 2 3
M  V30 3 2 3 4
M  V30 4 1 4 5
M  V30 5 1 5 6
M  V30 6 2 6 7
M  V30 7 1 7 8
M  V30 8 2 8 9
M  V30 9 1 9 10
M  V30 10 1 10 11
M  V30 11 2 11 12
M  V30 12 1 12 13
M  V30 13 2 13 14
M  V30 14 1 14 15
M  V30 15 1 15 16
M  V30 16 1 16 17
M  V30 17 1 17 18
M  V30 18 1 18 19
M  V30 19 1 19 20
M  V30 20 1 14 21
M  V30 21 2 21 22
M  V30 22 2 10 23
M  V30 23 1 23 24
M  V30 24 3 24 25
M  V30 25 2 5 26
M  V30 26 1 26 27
M  V30 27 1 27 28
M  V30 28 1 28 29
M  V30 29 2 27 30
M  V30 30 1 30 31
M  V30 31 1 31 32
M  V30 32 1 30 3
M  V30 33 1 23 6
M  V30 34 1 22 11
M  V30 35 1 20 15
M  V30 36 1 1 33
M  V30 37 1 1 34
M  V30 38 1 1 35
M  V30 39 1 4 36
M  V30 40 1 7 37
M  V30 41 1 9 38
M  V30 42 1 12 39
M  V30 43 1 13 40
M  V30 44 1 16 41
M  V30 45 1 16 42
M  V30 46 1 17 43
M  V30 47 1 17 44
M  V30 48 1 18 45
M  V30 49 1 19 46
M  V30 50 1 19 47
M  V30 51 1 20 48
M  V30 52 1 20 49
M  V30 53 1 21 50
M  V30 54 1 22 51
M  V30 55 1 26 52
M  V30 56 1 29 53
M  V30 57 1 29 54
M  V30 58 1 29 55
M  V30 59 1 32 56
M  V30 60 1 32 57
M  V30 61 1 32 58
M  V30 END BOND
M  V30 END CTAB
M  END
>  <Dataset>  (419) 
ChEMBL_Kinases

>  <Ligand_Instance>  (419) 
nan

>  <PDB_ID>  (419) 
nan

>  <Standardized_SMILES>  (419) 
COc1cc(-c2cncc(-c3ccc(N4CCNCC4)cc3)c2C#N)cc(OC)c1OC

>  <Name>  (419) 
nan

>  <Pocket>  (419) 
nan

>  <ATP_Site>  (419) 
nan

>  <Peripheral>  (419) 
nan

>  <Num_H_Atoms_ProtBoundConf>  (419) 
nan

>  <Num_Resolved_Atoms>  (419) 
nan

>  <Num_Not_Resolved_Atoms>  (419) 
nan

$$$$
CHEMBL583385
     RDKit          3D

  0  0  0  0  0  0  0  0  0  0999 V3000
M  V30 BEGIN CTAB
M  V30 COUNTS 41 44 0 0 0
M  V30 BEGIN ATOM
M  V30 1 C -0.845345 -3.541874 2.474530 0
M  V30 2 N -0.994327 -4.629474 1.541460 0
M  V30 3 C -2.304580 -5.212651 1.804314 0
M  V30 4 C -0.903452 -4.179221 0.164403 0
M  V30 5 C 0.409862 -3.537819 -0.112735 0
M  V30 6 N 0.491719 -2.238605 0.082923 0
M  V30 7 C 1.598992 -1.512426 -0.121491 0
M  V30 8 C 2.660190 -2.334053 -0.574147 0
M  V30 9 S 4.040971 -1.187366 -0.789526 0
M  V30 10 C 3.112519 0.303226 -0.263382 0
M  V30 11 C 3.551771 1.606867 -0.173649 0
M  V30 12 C 2.649328 2.548795 0.252324 0
M  V30 13 C 1.392380 2.075440 0.544640 0
M  V30 14 C 0.428956 3.103017 1.003418 0
M  V30 15 C 0.882689 4.189302 1.721029 0
M  V30 16 C -0.034631 5.127037 2.133966 0
M  V30 17 F 0.363915 6.204820 2.837970 0
M  V30 18 C -1.376170 4.992734 1.842382 0
M  V30 19 C -1.831658 3.889122 1.114199 0
M  V30 20 Cl -3.543303 3.761118 0.768036 0
M  V30 21 C -0.909130 2.946126 0.699005 0
M  V30 22 C 0.975619 0.786472 0.450691 0
M  V30 23 C 1.856802 -0.184076 0.026165 0
M  V30 24 C 2.580572 -3.745382 -0.789349 0
M  V30 25 O 3.642650 -4.241929 -1.187184 0
M  V30 26 N 1.405610 -4.321389 -0.539551 0
M  V30 27 H -1.333624 -2.603358 2.170134 0
M  V30 28 H 0.234287 -3.435287 2.714247 0
M  V30 29 H -1.335845 -3.861011 3.431295 0
M  V30 30 H -3.002051 -4.379340 2.092099 0
M  V30 31 H -2.712475 -5.762810 0.926805 0
M  V30 32 H -2.249808 -5.887137 2.671803 0
M  V30 33 H -1.036139 -5.048338 -0.509946 0
M  V30 34 H -1.758034 -3.510459 -0.009339 0
M  V30 35 H 4.581352 1.777809 -0.449528 0
M  V30 36 H 2.986263 3.570610 0.324881 0
M  V30 37 H 1.953705 4.270062 1.937906 0
M  V30 38 H -2.087109 5.753472 2.182582 0
M  V30 39 H -1.301694 2.112376 0.141390 0
M  V30 40 H -0.063699 0.582475 0.723975 0
M  V30 41 H 1.375757 -5.342927 -0.703666 0
M  V30 END ATOM
M  V30 BEGIN BOND
M  V30 1 1 1 2
M  V30 2 1 2 3
M  V30 3 1 2 4
M  V30 4 1 4 5
M  V30 5 2 5 6
M  V30 6 1 6 7
M  V30 7 2 7 8
M  V30 8 1 8 9
M  V30 9 1 9 10
M  V30 10 2 10 11
M  V30 11 1 11 12
M  V30 12 2 12 13
M  V30 13 1 13 14
M  V30 14 2 14 15
M  V30 15 1 15 16
M  V30 16 1 16 17
M  V30 17 2 16 18
M  V30 18 1 18 19
M  V30 19 1 19 20
M  V30 20 2 19 21
M  V30 21 1 13 22
M  V30 22 2 22 23
M  V30 23 1 8 24
M  V30 24 2 24 25
M  V30 25 1 24 26
M  V30 26 1 26 5
M  V30 27 1 23 7
M  V30 28 1 23 10
M  V30 29 1 21 14
M  V30 30 1 1 27
M  V30 31 1 1 28
M  V30 32 1 1 29
M  V30 33 1 3 30
M  V30 34 1 3 31
M  V30 35 1 3 32
M  V30 36 1 4 33
M  V30 37 1 4 34
M  V30 38 1 11 35
M  V30 39 1 12 36
M  V30 40 1 15 37
M  V30 41 1 18 38
M  V30 42 1 21 39
M  V30 43 1 22 40
M  V30 44 1 26 41
M  V30 END BOND
M  V30 END CTAB
M  END
>  <Dataset>  (420) 
ChEMBL_Kinases

>  <Ligand_Instance>  (420) 
nan

>  <PDB_ID>  (420) 
nan

>  <Standardized_SMILES>  (420) 
CN(C)Cc1nc2c(sc3ccc(-c4cc(F)cc(Cl)c4)cc32)c(=O)[nH]1

>  <Name>  (420) 
nan

>  <Pocket>  (420) 
nan

>  <ATP_Site>  (420) 
nan

>  <Peripheral>  (420) 
nan

>  <Num_H_Atoms_ProtBoundConf>  (420) 
nan

>  <Num_Resolved_Atoms>  (420) 
nan

>  <Num_Not_Resolved_Atoms>  (420) 
nan

$$$$
CHEMBL583581
     RDKit          3D

  0  0  0  0  0  0  0  0  0  0999 V3000
M  V30 BEGIN CTAB
M  V30 COUNTS 34 36 0 0 0
M  V30 BEGIN ATOM
M  V30 1 C -1.382728 -3.558501 1.348992 0
M  V30 2 N -0.494032 -3.645499 2.447289 0
M  V30 3 C 0.573116 -4.602683 2.217539 0
M  V30 4 C 0.020876 -2.438054 2.961264 0
M  V30 5 C 0.810485 -1.581460 2.050990 0
M  V30 6 N 0.195241 -0.664965 1.338470 0
M  V30 7 C 0.788653 0.175749 0.476960 0
M  V30 8 C 2.165266 -0.054287 0.436328 0
M  V30 9 S 2.786424 1.108910 -0.719707 0
M  V30 10 C 1.099385 1.872839 -1.102743 0
M  V30 11 C 0.822682 2.910147 -1.984488 0
M  V30 12 C -0.502327 3.264910 -2.065106 0
M  V30 13 C -1.395518 2.571817 -1.282362 0
M  V30 14 C -2.852497 2.955052 -1.364948 0
M  V30 15 F -3.619768 1.854376 -1.119967 0
M  V30 16 F -3.136601 3.949472 -0.464939 0
M  V30 17 F -3.098972 3.442484 -2.635843 0
M  V30 18 C -1.086951 1.550298 -0.420513 0
M  V30 19 C 0.218512 1.146332 -0.292200 0
M  V30 20 C 2.801406 -0.988316 1.160837 0
M  V30 21 O 4.027489 -1.092855 1.034542 0
M  V30 22 N 2.139998 -1.799008 2.007600 0
M  V30 23 H -1.999904 -4.503110 1.366519 0
M  V30 24 H -2.130935 -2.763369 1.553870 0
M  V30 25 H -0.928350 -3.534685 0.361091 0
M  V30 26 H 0.196923 -5.655343 2.352113 0
M  V30 27 H 1.046438 -4.500486 1.215466 0
M  V30 28 H 1.393028 -4.473173 2.961675 0
M  V30 29 H -0.822939 -1.825309 3.341359 0
M  V30 30 H 0.642662 -2.648664 3.854783 0
M  V30 31 H 1.654402 3.341711 -2.521365 0
M  V30 32 H -0.750336 4.067112 -2.740902 0
M  V30 33 H -1.867582 1.070746 0.150286 0
M  V30 34 H 2.684847 -2.495673 2.535357 0
M  V30 END ATOM
M  V30 BEGIN BOND
M  V30 1 1 1 2
M  V30 2 1 2 3
M  V30 3 1 2 4
M  V30 4 1 4 5
M  V30 5 2 5 6
M  V30 6 1 6 7
M  V30 7 2 7 8
M  V30 8 1 8 9
M  V30 9 1 9 10
M  V30 10 2 10 11
M  V30 11 1 11 12
M  V30 12 2 12 13
M  V30 13 1 13 14
M  V30 14 1 14 15
M  V30 15 1 14 16
M  V30 16 1 14 17
M  V30 17 1 13 18
M  V30 18 2 18 19
M  V30 19 1 8 20
M  V30 20 2 20 21
M  V30 21 1 20 22
M  V30 22 1 22 5
M  V30 23 1 19 7
M  V30 24 1 19 10
M  V30 25 1 1 23
M  V30 26 1 1 24
M  V30 27 1 1 25
M  V30 28 1 3 26
M  V30 29 1 3 27
M  V30 30 1 3 28
M  V30 31 1 4 29
M  V30 32 1 4 30
M  V30 33 1 11 31
M  V30 34 1 12 32
M  V30 35 1 18 33
M  V30 36 1 22 34
M  V30 END BOND
M  V30 END CTAB
M  END
>  <Dataset>  (421) 
ChEMBL_Kinases

>  <Ligand_Instance>  (421) 
nan

>  <PDB_ID>  (421) 
nan

>  <Standardized_SMILES>  (421) 
CN(C)Cc1nc2c(sc3ccc(C(F)(F)F)cc32)c(=O)[nH]1

>  <Name>  (421) 
nan

>  <Pocket>  (421) 
nan

>  <ATP_Site>  (421) 
nan

>  <Peripheral>  (421) 
nan

>  <Num_H_Atoms_ProtBoundConf>  (421) 
nan

>  <Num_Resolved_Atoms>  (421) 
nan

>  <Num_Not_Resolved_Atoms>  (421) 
nan

$$$$
CHEMBL4638285
     RDKit          3D

  0  0  0  0  0  0  0  0  0  0999 V3000
M  V30 BEGIN CTAB
M  V30 COUNTS 53 57 0 0 0
M  V30 BEGIN ATOM
M  V30 1 C 4.096517 -3.583025 4.887900 0
M  V30 2 C 2.824616 -3.162339 4.237800 0
M  V30 3 C 1.623088 -3.702675 4.635194 0
M  V30 4 C 0.437340 -3.300674 4.017731 0
M  V30 5 C 0.529136 -2.356756 3.012982 0
M  V30 6 C 1.741284 -1.822620 2.623940 0
M  V30 7 C 1.690481 -0.839158 1.554696 0
M  V30 8 N 1.999469 0.468113 1.438266 0
M  V30 9 N 1.743236 0.871563 0.184304 0
M  V30 10 C 1.963606 2.233742 -0.286970 0
M  V30 11 C 0.762573 3.097351 -0.100380 0
M  V30 12 S 0.966845 4.411267 0.887002 0
M  V30 13 N -0.448238 2.755649 -0.756130 0
M  V30 14 C -1.726105 3.356449 -0.778984 0
M  V30 15 C -2.091616 4.491850 -0.106329 0
M  V30 16 C -3.339072 5.074484 -0.133934 0
M  V30 17 C -4.302951 4.462854 -0.904586 0
M  V30 18 C -3.997486 3.325164 -1.600067 0
M  V30 19 F -4.948562 2.737178 -2.349377 0
M  V30 20 C -2.734545 2.794410 -1.530344 0
M  V30 21 C 1.266074 -0.167792 -0.525001 0
M  V30 22 C 1.215918 -1.285989 0.316652 0
M  V30 23 C 0.739022 -2.604315 -0.139676 0
M  V30 24 C 1.648814 -3.640352 -0.116994 0
M  V30 25 C 1.326218 -4.933034 -0.521086 0
M  V30 26 N 0.054931 -5.167383 -0.954100 0
M  V30 27 C -0.853650 -4.173504 -0.986525 0
M  V30 28 C -2.158244 -4.418553 -1.431790 0
M  V30 29 C -3.094789 -3.380728 -1.461893 0
M  V30 30 C -2.700627 -2.125590 -1.045637 0
M  V30 31 C -1.434444 -1.838458 -0.601638 0
M  V30 32 C -0.536132 -2.887418 -0.585495 0
M  V30 33 N 2.855507 -2.253263 3.261293 0
M  V30 34 H 4.959032 -3.284149 4.240304 0
M  V30 35 H 4.187290 -3.144968 5.881202 0
M  V30 36 H 4.156874 -4.697411 4.971579 0
M  V30 37 H 1.607141 -4.437092 5.425323 0
M  V30 38 H -0.525856 -3.702405 4.301371 0
M  V30 39 H -0.401454 -2.049612 2.537753 0
M  V30 40 H 2.262162 2.194338 -1.364030 0
M  V30 41 H 2.814616 2.705452 0.227089 0
M  V30 42 H -0.362618 1.870725 -1.342765 0
M  V30 43 H -1.392267 5.007194 0.503579 0
M  V30 44 H -3.585405 5.973386 0.413673 0
M  V30 45 H -5.291974 4.855016 -0.976017 0
M  V30 46 H -2.567963 1.894821 -2.106645 0
M  V30 47 H 0.969800 -0.133873 -1.581151 0
M  V30 48 H 2.666560 -3.493338 0.219222 0
M  V30 49 H 2.063017 -5.725446 -0.491738 0
M  V30 50 H -2.409093 -5.428447 -1.747532 0
M  V30 51 H -4.082555 -3.644611 -1.817692 0
M  V30 52 H -3.448771 -1.371506 -1.087847 0
M  V30 53 H -1.150684 -0.838501 -0.278898 0
M  V30 END ATOM
M  V30 BEGIN BOND
M  V30 1 1 1 2
M  V30 2 2 2 3
M  V30 3 1 3 4
M  V30 4 2 4 5
M  V30 5 1 5 6
M  V30 6 1 6 7
M  V30 7 2 7 8
M  V30 8 1 8 9
M  V30 9 1 9 10
M  V30 10 1 10 11
M  V30 11 2 11 12
M  V30 12 1 11 13
M  V30 13 1 13 14
M  V30 14 2 14 15
M  V30 15 1 15 16
M  V30 16 2 16 17
M  V30 17 1 17 18
M  V30 18 1 18 19
M  V30 19 2 18 20
M  V30 20 1 9 21
M  V30 21 2 21 22
M  V30 22 1 22 23
M  V30 23 2 23 24
M  V30 24 1 24 25
M  V30 25 2 25 26
M  V30 26 1 26 27
M  V30 27 2 27 28
M  V30 28 1 28 29
M  V30 29 2 29 30
M  V30 30 1 30 31
M  V30 31 2 31 32
M  V30 32 2 6 33
M  V30 33 1 33 2
M  V30 34 1 22 7
M  V30 35 1 32 23
M  V30 36 1 20 14
M  V30 37 1 32 27
M  V30 38 1 1 34
M  V30 39 1 1 35
M  V30 40 1 1 36
M  V30 41 1 3 37
M  V30 42 1 4 38
M  V30 43 1 5 39
M  V30 44 1 10 40
M  V30 45 1 10 41
M  V30 46 1 13 42
M  V30 47 1 15 43
M  V30 48 1 16 44
M  V30 49 1 17 45
M  V30 50 1 20 46
M  V30 51 1 21 47
M  V30 52 1 24 48
M  V30 53 1 25 49
M  V30 54 1 28 50
M  V30 55 1 29 51
M  V30 56 1 30 52
M  V30 57 1 31 53
M  V30 END BOND
M  V30 END CTAB
M  END
>  <Dataset>  (422) 
ChEMBL_Kinases

>  <Ligand_Instance>  (422) 
nan

>  <PDB_ID>  (422) 
nan

>  <Standardized_SMILES>  (422) 
Cc1cccc(-c2nn(CC(=S)Nc3cccc(F)c3)cc2-c2ccnc3ccccc23)n1

>  <Name>  (422) 
nan

>  <Pocket>  (422) 
nan

>  <ATP_Site>  (422) 
nan

>  <Peripheral>  (422) 
nan

>  <Num_H_Atoms_ProtBoundConf>  (422) 
nan

>  <Num_Resolved_Atoms>  (422) 
nan

>  <Num_Not_Resolved_Atoms>  (422) 
nan

$$$$
CHEMBL2071342
     RDKit          3D

  0  0  0  0  0  0  0  0  0  0999 V3000
M  V30 BEGIN CTAB
M  V30 COUNTS 50 52 0 0 0
M  V30 BEGIN ATOM
M  V30 1 C 0.386396 -1.604049 6.762028 0
M  V30 2 C 1.657450 -1.075173 7.395660 0
M  V30 3 N 2.298045 -0.160349 6.439934 0
M  V30 4 N 2.135708 1.157331 6.294109 0
M  V30 5 N 2.912628 1.554404 5.313103 0
M  V30 6 C 3.580269 0.507114 4.817769 0
M  V30 7 C 4.592450 0.233056 3.739282 0
M  V30 8 C 4.953123 1.495731 3.017443 0
M  V30 9 N 3.744360 2.034742 2.428386 0
M  V30 10 C 2.904042 1.440325 1.481696 0
M  V30 11 O 3.176391 0.294327 1.042775 0
M  V30 12 N 1.744167 2.063494 0.979097 0
M  V30 13 C 0.928633 1.303296 -0.041003 0
M  V30 14 N 1.027567 1.312035 -1.155150 0
M  V30 15 C 0.392078 0.708068 -2.130713 0
M  V30 16 C 0.657906 0.835585 -3.587078 0
M  V30 17 C -0.588005 -0.094070 -1.715161 0
M  V30 18 C -1.634941 -1.016045 -2.249209 0
M  V30 19 C -2.468163 -1.656531 -1.363489 0
M  V30 20 C -3.458947 -2.525930 -1.822262 0
M  V30 21 C -3.629649 -2.765899 -3.166185 0
M  V30 22 S -4.866696 -3.852956 -3.757379 0
M  V30 23 C -6.013875 -3.000709 -4.843882 0
M  V30 24 O -4.198092 -4.919540 -4.583989 0
M  V30 25 O -5.650076 -4.458864 -2.638964 0
M  V30 26 C -2.807372 -2.136155 -4.071687 0
M  V30 27 F -2.946737 -2.347916 -5.390444 0
M  V30 28 C -1.850288 -1.291902 -3.567036 0
M  V30 29 S -0.517680 0.086985 0.088243 0
M  V30 30 N 3.178307 -0.565333 5.542484 0
M  V30 31 H -0.275316 -0.760589 6.550228 0
M  V30 32 H 0.640919 -2.134402 5.801400 0
M  V30 33 H -0.088354 -2.344322 7.423654 0
M  V30 34 H 1.340302 -0.490255 8.292061 0
M  V30 35 H 2.362736 -1.867893 7.680525 0
M  V30 36 H 5.471791 -0.286499 4.172618 0
M  V30 37 H 4.100892 -0.451929 3.023358 0
M  V30 38 H 5.614014 1.186590 2.161686 0
M  V30 39 H 5.422905 2.253101 3.649348 0
M  V30 40 H 3.420262 3.003689 2.727607 0
M  V30 41 H 1.452662 3.003051 1.288787 0
M  V30 42 H -0.180785 1.232814 -4.163604 0
M  V30 43 H 1.499835 1.546835 -3.781905 0
M  V30 44 H 0.965713 -0.136880 -4.039310 0
M  V30 45 H -2.454820 -1.568840 -0.291250 0
M  V30 46 H -4.119013 -3.036047 -1.157592 0
M  V30 47 H -6.532441 -2.191528 -4.286688 0
M  V30 48 H -6.711358 -3.790575 -5.191479 0
M  V30 49 H -5.436995 -2.541801 -5.646814 0
M  V30 50 H -1.230425 -0.821030 -4.301747 0
M  V30 END ATOM
M  V30 BEGIN BOND
M  V30 1 1 1 2
M  V30 2 1 2 3
M  V30 3 1 3 4
M  V30 4 2 4 5
M  V30 5 1 5 6
M  V30 6 1 6 7
M  V30 7 1 7 8
M  V30 8 1 8 9
M  V30 9 1 9 10
M  V30 10 2 10 11
M  V30 11 1 10 12
M  V30 12 1 12 13
M  V30 13 2 13 14
M  V30 14 1 14 15
M  V30 15 1 15 16
M  V30 16 2 15 17
M  V30 17 1 17 18
M  V30 18 2 18 19
M  V30 19 1 19 20
M  V30 20 2 20 21
M  V30 21 1 21 22
M  V30 22 1 22 23
M  V30 23 2 22 24
M  V30 24 2 22 25
M  V30 25 1 21 26
M  V30 26 1 26 27
M  V30 27 2 26 28
M  V30 28 1 17 29
M  V30 29 2 6 30
M  V30 30 1 30 3
M  V30 31 1 29 13
M  V30 32 1 28 18
M  V30 33 1 1 31
M  V30 34 1 1 32
M  V30 35 1 1 33
M  V30 36 1 2 34
M  V30 37 1 2 35
M  V30 38 1 7 36
M  V30 39 1 7 37
M  V30 40 1 8 38
M  V30 41 1 8 39
M  V30 42 1 9 40
M  V30 43 1 12 41
M  V30 44 1 16 42
M  V30 45 1 16 43
M  V30 46 1 16 44
M  V30 47 1 19 45
M  V30 48 1 20 46
M  V30 49 1 23 47
M  V30 50 1 23 48
M  V30 51 1 23 49
M  V30 52 1 28 50
M  V30 END BOND
M  V30 END CTAB
M  END
>  <Dataset>  (423) 
ChEMBL_Kinases

>  <Ligand_Instance>  (423) 
nan

>  <PDB_ID>  (423) 
nan

>  <Standardized_SMILES>  (423) 
CCn1nnc(CCNC(=O)Nc2nc(C)c(-c3ccc(S(C)(=O)=O)c(F)c3)s2)n1

>  <Name>  (423) 
nan

>  <Pocket>  (423) 
nan

>  <ATP_Site>  (423) 
nan

>  <Peripheral>  (423) 
nan

>  <Num_H_Atoms_ProtBoundConf>  (423) 
nan

>  <Num_Resolved_Atoms>  (423) 
nan

>  <Num_Not_Resolved_Atoms>  (423) 
nan

$$$$
CHEMBL4638981
     RDKit          3D

  0  0  0  0  0  0  0  0  0  0999 V3000
M  V30 BEGIN CTAB
M  V30 COUNTS 59 64 0 0 0
M  V30 BEGIN ATOM
M  V30 1 C 5.641035 -2.264390 4.377152 0
M  V30 2 C 4.676418 -1.260517 3.864149 0
M  V30 3 C 4.769972 0.086618 4.064917 0
M  V30 4 C 3.823611 0.983415 3.553045 0
M  V30 5 C 2.753582 0.514343 2.819251 0
M  V30 6 C 1.799599 1.490346 2.310009 0
M  V30 7 O 2.017488 2.696562 2.592160 0
M  V30 8 N 0.702413 1.045612 1.542030 0
M  V30 9 C -0.385796 1.690523 0.906650 0
M  V30 10 C -1.595927 1.925194 1.527416 0
M  V30 11 C -2.654689 2.554533 0.905013 0
M  V30 12 C -2.528115 2.981065 -0.400041 0
M  V30 13 C -3.521779 3.661672 -1.233489 0
M  V30 14 N -4.126409 2.788486 -2.216001 0
M  V30 15 C -4.812416 1.675102 -1.590773 0
M  V30 16 C -5.727436 1.202290 -2.666257 0
M  V30 17 C -6.468155 0.166661 -3.159730 0
M  V30 18 N -7.078981 0.587262 -4.302581 0
M  V30 19 N -6.734539 1.855717 -4.527557 0
M  V30 20 C -5.904477 2.265987 -3.541539 0
M  V30 21 C -5.102013 3.436592 -3.037062 0
M  V30 22 C -1.317823 2.761374 -1.061900 0
M  V30 23 Cl -1.017457 3.251804 -2.726491 0
M  V30 24 C -0.270643 2.120176 -0.394324 0
M  V30 25 C 2.691001 -0.849831 2.636448 0
M  V30 26 C 3.611969 -1.744918 3.132212 0
M  V30 27 C 3.426974 -3.144781 2.866949 0
M  V30 28 C 3.264786 -4.331800 2.630254 0
M  V30 29 C 3.066090 -5.733032 2.328260 0
M  V30 30 C 2.950805 -6.787881 3.217427 0
M  V30 31 N 2.780138 -7.876242 2.443889 0
M  V30 32 C 2.784773 -7.546911 1.137368 0
M  V30 33 C 2.641062 -8.353097 0.011053 0
M  V30 34 C 2.691419 -7.701171 -1.200639 0
M  V30 35 C 2.873988 -6.334472 -1.265548 0
M  V30 36 N 3.009981 -5.585887 -0.142751 0
M  V30 37 N 2.964398 -6.197135 1.050856 0
M  V30 38 H 6.258851 -2.647735 3.539632 0
M  V30 39 H 6.278386 -1.806604 5.148867 0
M  V30 40 H 5.107201 -3.157783 4.802134 0
M  V30 41 H 5.615128 0.456158 4.645251 0
M  V30 42 H 3.984651 2.024430 3.764504 0
M  V30 43 H 0.495855 0.054116 1.291088 0
M  V30 44 H -1.739059 1.603587 2.563226 0
M  V30 45 H -3.611207 2.754149 1.360746 0
M  V30 46 H -4.361496 4.039301 -0.600429 0
M  V30 47 H -3.048176 4.542564 -1.708917 0
M  V30 48 H -5.370111 2.053312 -0.703460 0
M  V30 49 H -4.119691 0.886270 -1.263527 0
M  V30 50 H -6.580900 -0.818424 -2.756604 0
M  V30 51 H -7.049252 2.438049 -5.326736 0
M  V30 52 H -4.669350 3.909287 -3.945167 0
M  V30 53 H -5.732738 4.158443 -2.471466 0
M  V30 54 H 0.666859 1.945369 -0.890909 0
M  V30 55 H 1.858694 -1.234296 2.064327 0
M  V30 56 H 2.996730 -6.687567 4.290934 0
M  V30 57 H 2.499822 -9.431589 0.117440 0
M  V30 58 H 2.585350 -8.271570 -2.115242 0
M  V30 59 H 2.908478 -5.853674 -2.245969 0
M  V30 END ATOM
M  V30 BEGIN BOND
M  V30 1 1 1 2
M  V30 2 2 2 3
M  V30 3 1 3 4
M  V30 4 2 4 5
M  V30 5 1 5 6
M  V30 6 2 6 7
M  V30 7 1 6 8
M  V30 8 1 8 9
M  V30 9 2 9 10
M  V30 10 1 10 11
M  V30 11 2 11 12
M  V30 12 1 12 13
M  V30 13 1 13 14
M  V30 14 1 14 15
M  V30 15 1 15 16
M  V30 16 1 16 17
M  V30 17 2 17 18
M  V30 18 1 18 19
M  V30 19 1 19 20
M  V30 20 1 20 21
M  V30 21 1 12 22
M  V30 22 1 22 23
M  V30 23 2 22 24
M  V30 24 1 5 25
M  V30 25 2 25 26
M  V30 26 1 26 27
M  V30 27 3 27 28
M  V30 28 1 28 29
M  V30 29 2 29 30
M  V30 30 1 30 31
M  V30 31 2 31 32
M  V30 32 1 32 33
M  V30 33 2 33 34
M  V30 34 1 34 35
M  V30 35 2 35 36
M  V30 36 1 36 37
M  V30 37 1 26 2
M  V30 38 1 37 29
M  V30 39 1 24 9
M  V30 40 1 37 32
M  V30 41 1 21 14
M  V30 42 2 20 16
M  V30 43 1 1 38
M  V30 44 1 1 39
M  V30 45 1 1 40
M  V30 46 1 3 41
M  V30 47 1 4 42
M  V30 48 1 8 43
M  V30 49 1 10 44
M  V30 50 1 11 45
M  V30 51 1 13 46
M  V30 52 1 13 47
M  V30 53 1 15 48
M  V30 54 1 15 49
M  V30 55 1 17 50
M  V30 56 1 19 51
M  V30 57 1 21 52
M  V30 58 1 21 53
M  V30 59 1 24 54
M  V30 60 1 25 55
M  V30 61 1 30 56
M  V30 62 1 33 57
M  V30 63 1 34 58
M  V30 64 1 35 59
M  V30 END BOND
M  V30 END CTAB
M  END
>  <Dataset>  (424) 
ChEMBL_Kinases

>  <Ligand_Instance>  (424) 
nan

>  <PDB_ID>  (424) 
nan

>  <Standardized_SMILES>  (424) 
Cc1ccc(C(=O)Nc2ccc(CN3Cc4cn[nH]c4C3)c(Cl)c2)cc1C#Cc1cnc2cccnn12

>  <Name>  (424) 
nan

>  <Pocket>  (424) 
nan

>  <ATP_Site>  (424) 
nan

>  <Peripheral>  (424) 
nan

>  <Num_H_Atoms_ProtBoundConf>  (424) 
nan

>  <Num_Resolved_Atoms>  (424) 
nan

>  <Num_Not_Resolved_Atoms>  (424) 
nan

$$$$
CHEMBL210737
     RDKit          3D

  0  0  0  0  0  0  0  0  0  0999 V3000
M  V30 BEGIN CTAB
M  V30 COUNTS 39 40 0 0 0
M  V30 BEGIN ATOM
M  V30 1 C 0.809068 -5.404985 -3.207690 0
M  V30 2 O 1.038252 -4.066865 -2.824565 0
M  V30 3 C 1.243387 -3.643891 -1.524405 0
M  V30 4 C 1.282676 -4.326364 -0.329080 0
M  V30 5 C 1.507792 -3.673125 0.859542 0
M  V30 6 C 1.703689 -2.308421 0.906901 0
M  V30 7 O 1.932037 -1.635263 2.098954 0
M  V30 8 C 1.971003 -2.342758 3.324128 0
M  V30 9 C 1.666869 -1.611997 -0.283324 0
M  V30 10 C 1.879910 -0.135439 -0.212668 0
M  V30 11 C 0.667743 0.559114 0.291214 0
M  V30 12 O -0.461050 0.124584 0.652565 0
M  V30 13 N 0.714703 1.975039 0.415556 0
M  V30 14 C -0.500439 2.544068 0.908382 0
M  V30 15 C -0.584150 2.663464 2.285094 0
M  V30 16 C -1.725151 3.204430 2.873235 0
M  V30 17 N -1.812991 3.328158 4.297256 0
M  V30 18 C -2.783611 3.624867 2.059507 0
M  V30 19 C -3.962573 4.183460 2.663755 0
M  V30 20 N -4.929879 4.648470 3.143139 0
M  V30 21 C -2.650715 3.484217 0.693656 0
M  V30 22 N -1.544528 2.960520 0.134652 0
M  V30 23 C 1.438791 -2.261680 -1.503538 0
M  V30 24 H 1.088694 -6.071641 -2.369038 0
M  V30 25 H 1.426389 -5.679358 -4.111297 0
M  V30 26 H -0.268821 -5.589094 -3.429115 0
M  V30 27 H 1.119270 -5.381504 -0.464808 0
M  V30 28 H 1.525561 -4.270517 1.755791 0
M  V30 29 H 2.902854 -2.929895 3.453891 0
M  V30 30 H 1.789779 -1.656113 4.189764 0
M  V30 31 H 1.128850 -3.082412 3.370416 0
M  V30 32 H 2.184643 0.241611 -1.211545 0
M  V30 33 H 2.707937 0.080696 0.502372 0
M  V30 34 H 1.554310 2.553598 0.171540 0
M  V30 35 H 0.195344 2.358208 2.956663 0
M  V30 36 H -2.237174 4.161176 4.738027 0
M  V30 37 H -1.412184 2.507252 4.807489 0
M  V30 38 H -3.457268 3.801609 0.027474 0
M  V30 39 H 1.437948 -1.574023 -2.363778 0
M  V30 END ATOM
M  V30 BEGIN BOND
M  V30 1 1 1 2
M  V30 2 1 2 3
M  V30 3 2 3 4
M  V30 4 1 4 5
M  V30 5 2 5 6
M  V30 6 1 6 7
M  V30 7 1 7 8
M  V30 8 1 6 9
M  V30 9 1 9 10
M  V30 10 1 10 11
M  V30 11 2 11 12
M  V30 12 1 11 13
M  V30 13 1 13 14
M  V30 14 2 14 15
M  V30 15 1 15 16
M  V30 16 1 16 17
M  V30 17 2 16 18
M  V30 18 1 18 19
M  V30 19 3 19 20
M  V30 20 1 18 21
M  V30 21 2 21 22
M  V30 22 2 9 23
M  V30 23 1 23 3
M  V30 24 1 22 14
M  V30 25 1 1 24
M  V30 26 1 1 25
M  V30 27 1 1 26
M  V30 28 1 4 27
M  V30 29 1 5 28
M  V30 30 1 8 29
M  V30 31 1 8 30
M  V30 32 1 8 31
M  V30 33 1 10 32
M  V30 34 1 10 33
M  V30 35 1 13 34
M  V30 36 1 15 35
M  V30 37 1 17 36
M  V30 38 1 17 37
M  V30 39 1 21 38
M  V30 40 1 23 39
M  V30 END BOND
M  V30 END CTAB
M  END
>  <Dataset>  (425) 
ChEMBL_Kinases

>  <Ligand_Instance>  (425) 
nan

>  <PDB_ID>  (425) 
nan

>  <Standardized_SMILES>  (425) 
COc1ccc(OC)c(CC(=O)Nc2cc(N)c(C#N)cn2)c1

>  <Name>  (425) 
nan

>  <Pocket>  (425) 
nan

>  <ATP_Site>  (425) 
nan

>  <Peripheral>  (425) 
nan

>  <Num_H_Atoms_ProtBoundConf>  (425) 
nan

>  <Num_Resolved_Atoms>  (425) 
nan

>  <Num_Not_Resolved_Atoms>  (425) 
nan

$$$$
CHEMBL2087979
     RDKit          3D

  0  0  0  0  0  0  0  0  0  0999 V3000
M  V30 BEGIN CTAB
M  V30 COUNTS 47 51 0 0 0
M  V30 BEGIN ATOM
M  V30 1 C 0.321355 -4.039154 -2.656793 0
M  V30 2 C 0.910893 -3.408536 -1.451074 0
M  V30 3 C 2.192812 -3.731040 -1.026629 0
M  V30 4 C 2.759832 -3.140467 0.105905 0
M  V30 5 C 1.982281 -2.207577 0.798443 0
M  V30 6 C 0.697070 -1.906257 0.345827 0
M  V30 7 C 0.085100 -0.887659 1.231605 0
M  V30 8 N 0.483261 0.373930 1.131435 0
M  V30 9 C 0.002871 1.267396 1.865684 0
M  V30 10 N 0.537630 2.612561 1.621467 0
M  V30 11 C -0.318356 3.608230 0.956532 0
M  V30 12 C 0.510307 4.788318 0.611439 0
M  V30 13 C 0.638548 6.034790 1.159659 0
M  V30 14 C 1.501083 6.967863 0.628487 0
M  V30 15 C 2.274617 6.668753 -0.490318 0
M  V30 16 C 2.162823 5.415085 -1.062075 0
M  V30 17 C 1.289206 4.481065 -0.519476 0
M  V30 18 Cl 1.285089 2.942537 -1.389251 0
M  V30 19 S -1.182674 0.387081 2.893350 0
M  V30 20 C -0.922880 -1.181377 2.219416 0
M  V30 21 C -1.474176 -2.495747 2.449029 0
M  V30 22 C -2.867049 -2.589782 2.321124 0
M  V30 23 C -3.531376 -3.799289 2.508984 0
M  V30 24 C -2.833265 -4.948692 2.829245 0
M  V30 25 N -3.219050 -6.234934 3.065837 0
M  V30 26 C -2.073340 -6.908062 3.332054 0
M  V30 27 N -1.065930 -6.051316 3.254778 0
M  V30 28 N -1.509101 -4.830679 2.944826 0
M  V30 29 C -0.866271 -3.667782 2.764513 0
M  V30 30 N 0.215300 -2.512151 -0.751090 0
M  V30 31 H 0.027712 -5.101043 -2.502657 0
M  V30 32 H -0.626207 -3.498209 -2.898752 0
M  V30 33 H 1.020717 -3.945037 -3.541091 0
M  V30 34 H 2.774718 -4.456335 -1.582817 0
M  V30 35 H 3.774934 -3.434659 0.388314 0
M  V30 36 H 2.516731 -1.807582 1.661783 0
M  V30 37 H 1.524748 2.769757 1.951156 0
M  V30 38 H -0.749210 3.125695 0.081356 0
M  V30 39 H -1.095180 3.968956 1.677545 0
M  V30 40 H -0.004621 6.148073 2.013924 0
M  V30 41 H 1.554798 7.933179 1.109942 0
M  V30 42 H 2.952134 7.391119 -0.920069 0
M  V30 43 H 2.786780 5.215429 -1.944654 0
M  V30 44 H -3.570198 -1.792341 2.075832 0
M  V30 45 H -4.604771 -3.922726 2.421160 0
M  V30 46 H -1.907157 -7.965444 3.577751 0
M  V30 47 H 0.227547 -3.580211 2.859940 0
M  V30 END ATOM
M  V30 BEGIN BOND
M  V30 1 1 1 2
M  V30 2 2 2 3
M  V30 3 1 3 4
M  V30 4 2 4 5
M  V30 5 1 5 6
M  V30 6 1 6 7
M  V30 7 1 7 8
M  V30 8 2 8 9
M  V30 9 1 9 10
M  V30 10 1 10 11
M  V30 11 1 11 12
M  V30 12 2 12 13
M  V30 13 1 13 14
M  V30 14 2 14 15
M  V30 15 1 15 16
M  V30 16 2 16 17
M  V30 17 1 17 18
M  V30 18 1 9 19
M  V30 19 1 19 20
M  V30 20 1 20 21
M  V30 21 1 21 22
M  V30 22 2 22 23
M  V30 23 1 23 24
M  V30 24 2 24 25
M  V30 25 1 25 26
M  V30 26 2 26 27
M  V30 27 1 27 28
M  V30 28 1 28 29
M  V30 29 2 6 30
M  V30 30 1 30 2
M  V30 31 2 20 7
M  V30 32 2 29 21
M  V30 33 1 17 12
M  V30 34 1 28 24
M  V30 35 1 1 31
M  V30 36 1 1 32
M  V30 37 1 1 33
M  V30 38 1 3 34
M  V30 39 1 4 35
M  V30 40 1 5 36
M  V30 41 1 10 37
M  V30 42 1 11 38
M  V30 43 1 11 39
M  V30 44 1 13 40
M  V30 45 1 14 41
M  V30 46 1 15 42
M  V30 47 1 16 43
M  V30 48 1 22 44
M  V30 49 1 23 45
M  V30 50 1 26 46
M  V30 51 1 29 47
M  V30 END BOND
M  V30 END CTAB
M  END
>  <Dataset>  (426) 
ChEMBL_Kinases

>  <Ligand_Instance>  (426) 
nan

>  <PDB_ID>  (426) 
nan

>  <Standardized_SMILES>  (426) 
Cc1cccc(-c2nc(NCc3ccccc3Cl)sc2-c2ccc3ncnn3c2)n1

>  <Name>  (426) 
nan

>  <Pocket>  (426) 
nan

>  <ATP_Site>  (426) 
nan

>  <Peripheral>  (426) 
nan

>  <Num_H_Atoms_ProtBoundConf>  (426) 
nan

>  <Num_Resolved_Atoms>  (426) 
nan

>  <Num_Not_Resolved_Atoms>  (426) 
nan

$$$$
CHEMBL1094703
     RDKit          3D

  0  0  0  0  0  0  0  0  0  0999 V3000
M  V30 BEGIN CTAB
M  V30 COUNTS 76 81 0 0 0
M  V30 BEGIN ATOM
M  V30 1 C 0.914628 -3.086754 6.327233 0
M  V30 2 C 2.342329 -3.320331 5.818619 0
M  V30 3 N 2.372550 -3.085446 4.372451 0
M  V30 4 C 2.146016 -4.048461 3.443791 0
M  V30 5 C 2.260844 -3.440479 2.214169 0
M  V30 6 C 2.129169 -3.936504 0.848611 0
M  V30 7 C 2.966085 -4.889417 0.291822 0
M  V30 8 C 2.709244 -5.261774 -1.027278 0
M  V30 9 N 1.712800 -4.749854 -1.759955 0
M  V30 10 C 0.885489 -3.824639 -1.247040 0
M  V30 11 N -0.169527 -3.151763 -1.725898 0
M  V30 12 C -0.679261 -2.312248 -0.803289 0
M  V30 13 C -1.820132 -1.408371 -0.921213 0
M  V30 14 C -2.224183 -0.596038 0.141917 0
M  V30 15 C -3.318937 0.223683 -0.075043 0
M  V30 16 C -4.021548 0.281981 -1.263175 0
M  V30 17 C -5.184608 1.197673 -1.394560 0
M  V30 18 N -6.435690 0.633040 -1.026673 0
M  V30 19 C -6.872145 -0.507046 -1.756124 0
M  V30 20 C -6.761317 -1.717433 -0.839523 0
M  V30 21 O -7.775547 -1.586870 0.109814 0
M  V30 22 C -7.881500 -0.310946 0.629015 0
M  V30 23 C -6.663276 0.553549 0.385438 0
M  V30 24 C -3.570488 -0.545517 -2.272088 0
M  V30 25 C -2.488140 -1.391915 -2.138262 0
M  V30 26 C 0.100102 -2.472745 0.305127 0
M  V30 27 C 1.102554 -3.420075 0.069260 0
M  V30 28 C 2.557653 -2.107543 2.412754 0
M  V30 29 C 2.801732 -0.941510 1.571764 0
M  V30 30 C 3.920226 -1.117372 0.758289 0
M  V30 31 C 4.328336 -0.117521 -0.122644 0
M  V30 32 C 3.615343 1.082801 -0.201332 0
M  V30 33 N 3.991553 2.142869 -1.091543 0
M  V30 34 C 4.853941 3.239098 -0.909382 0
M  V30 35 O 5.419677 3.353326 0.217442 0
M  V30 36 N 5.007804 4.118701 -2.016522 0
M  V30 37 C 4.325689 3.938200 -3.302003 0
M  V30 38 C 5.899556 5.244739 -1.817790 0
M  V30 39 C 2.500617 1.230208 0.624822 0
M  V30 40 C 2.095667 0.241173 1.497180 0
M  V30 41 N 2.614657 -1.943037 3.756314 0
M  V30 42 H 0.820441 -2.064398 6.754517 0
M  V30 43 H 0.194616 -3.245302 5.498239 0
M  V30 44 H 0.641350 -3.795085 7.131488 0
M  V30 45 H 3.073114 -2.732789 6.373170 0
M  V30 46 H 2.553710 -4.383651 6.000904 0
M  V30 47 H 1.919306 -5.085949 3.545738 0
M  V30 48 H 3.763350 -5.294102 0.889248 0
M  V30 49 H 3.372972 -6.014419 -1.461309 0
M  V30 50 H -0.541414 -3.277106 -2.707387 0
M  V30 51 H -1.680771 -0.636903 1.069937 0
M  V30 52 H -3.567180 0.819367 0.793288 0
M  V30 53 H -5.054885 2.131037 -0.809739 0
M  V30 54 H -5.222679 1.498827 -2.471668 0
M  V30 55 H -6.427630 -0.642149 -2.736062 0
M  V30 56 H -7.983395 -0.387815 -1.918831 0
M  V30 57 H -6.910591 -2.665734 -1.367744 0
M  V30 58 H -5.772573 -1.772192 -0.325176 0
M  V30 59 H -7.956110 -0.427392 1.739562 0
M  V30 60 H -8.838229 0.194052 0.345756 0
M  V30 61 H -5.851180 0.109486 0.974201 0
M  V30 62 H -6.937001 1.563356 0.756897 0
M  V30 63 H -4.084748 -0.537292 -3.221572 0
M  V30 64 H -2.178401 -2.023501 -2.973870 0
M  V30 65 H -0.059039 -1.925101 1.234434 0
M  V30 66 H 4.550375 -2.006850 0.734403 0
M  V30 67 H 5.197048 -0.242704 -0.761071 0
M  V30 68 H 3.438729 1.878125 -1.936038 0
M  V30 69 H 4.162681 4.901483 -3.807896 0
M  V30 70 H 4.903395 3.291368 -3.992128 0
M  V30 71 H 3.323098 3.480875 -3.190965 0
M  V30 72 H 5.873843 5.942569 -2.693714 0
M  V30 73 H 6.973439 4.932107 -1.740235 0
M  V30 74 H 5.672950 5.824820 -0.894399 0
M  V30 75 H 1.898618 2.145920 0.611462 0
M  V30 76 H 1.257433 0.277780 2.159524 0
M  V30 END ATOM
M  V30 BEGIN BOND
M  V30 1 1 1 2
M  V30 2 1 2 3
M  V30 3 1 3 4
M  V30 4 2 4 5
M  V30 5 1 5 6
M  V30 6 2 6 7
M  V30 7 1 7 8
M  V30 8 2 8 9
M  V30 9 1 9 10
M  V30 10 1 10 11
M  V30 11 1 11 12
M  V30 12 1 12 13
M  V30 13 2 13 14
M  V30 14 1 14 15
M  V30 15 2 15 16
M  V30 16 1 16 17
M  V30 17 1 17 18
M  V30 18 1 18 19
M  V30 19 1 19 20
M  V30 20 1 20 21
M  V30 21 1 21 22
M  V30 22 1 22 23
M  V30 23 1 16 24
M  V30 24 2 24 25
M  V30 25 2 12 26
M  V30 26 1 26 27
M  V30 27 1 5 28
M  V30 28 1 28 29
M  V30 29 2 29 30
M  V30 30 1 30 31
M  V30 31 2 31 32
M  V30 32 1 32 33
M  V30 33 1 33 34
M  V30 34 2 34 35
M  V30 35 1 34 36
M  V30 36 1 36 37
M  V30 37 1 36 38
M  V30 38 1 32 39
M  V30 39 2 39 40
M  V30 40 2 28 41
M  V30 41 1 41 3
M  V30 42 1 27 6
M  V30 43 1 40 29
M  V30 44 2 27 10
M  V30 45 1 25 13
M  V30 46 1 23 18
M  V30 47 1 1 42
M  V30 48 1 1 43
M  V30 49 1 1 44
M  V30 50 1 2 45
M  V30 51 1 2 46
M  V30 52 1 4 47
M  V30 53 1 7 48
M  V30 54 1 8 49
M  V30 55 1 11 50
M  V30 56 1 14 51
M  V30 57 1 15 52
M  V30 58 1 17 53
M  V30 59 1 17 54
M  V30 60 1 19 55
M  V30 61 1 19 56
M  V30 62 1 20 57
M  V30 63 1 20 58
M  V30 64 1 22 59
M  V30 65 1 22 60
M  V30 66 1 23 61
M  V30 67 1 23 62
M  V30 68 1 24 63
M  V30 69 1 25 64
M  V30 70 1 26 65
M  V30 71 1 30 66
M  V30 72 1 31 67
M  V30 73 1 33 68
M  V30 74 1 37 69
M  V30 75 1 37 70
M  V30 76 1 37 71
M  V30 77 1 38 72
M  V30 78 1 38 73
M  V30 79 1 38 74
M  V30 80 1 39 75
M  V30 81 1 40 76
M  V30 END BOND
M  V30 END CTAB
M  END
>  <Dataset>  (427) 
ChEMBL_Kinases

>  <Ligand_Instance>  (427) 
nan

>  <PDB_ID>  (427) 
nan

>  <Standardized_SMILES>  (427) 
CCn1cc(-c2ccnc3[nH]c(-c4ccc(CN5CCOCC5)cc4)cc23)c(-c2ccc(NC(=O)N(C)C)cc2)n1

>  <Name>  (427) 
nan

>  <Pocket>  (427) 
nan

>  <ATP_Site>  (427) 
nan

>  <Peripheral>  (427) 
nan

>  <Num_H_Atoms_ProtBoundConf>  (427) 
nan

>  <Num_Resolved_Atoms>  (427) 
nan

>  <Num_Not_Resolved_Atoms>  (427) 
nan

$$$$
CHEMBL4638292
     RDKit          3D

  0  0  0  0  0  0  0  0  0  0999 V3000
M  V30 BEGIN CTAB
M  V30 COUNTS 53 56 0 0 0
M  V30 BEGIN ATOM
M  V30 1 N -0.843547 3.978913 1.162314 0
M  V30 2 C 0.224537 3.149047 1.597512 0
M  V30 3 N 0.938893 3.550944 2.680418 0
M  V30 4 C 1.964295 2.783151 3.122366 0
M  V30 5 C 2.333526 1.595848 2.527804 0
M  V30 6 C 3.439531 0.764434 3.000363 0
M  V30 7 C 4.223966 1.083276 4.088505 0
M  V30 8 C 5.252237 0.213925 4.447298 0
M  V30 9 C 5.512389 -0.960277 3.746769 0
M  V30 10 C 4.716194 -1.277147 2.648017 0
M  V30 11 C 3.703589 -0.401754 2.310607 0
M  V30 12 N 1.591636 1.249292 1.461799 0
M  V30 13 C 0.573841 1.963335 0.983592 0
M  V30 14 C -0.186990 1.521654 -0.181473 0
M  V30 15 O -1.132374 2.256823 -0.570550 0
M  V30 16 N 0.175146 0.300414 -0.807068 0
M  V30 17 C -0.401175 -0.339151 -1.941003 0
M  V30 18 C 0.083379 -0.054040 -3.211088 0
M  V30 19 N -0.417786 -0.621020 -4.300982 0
M  V30 20 C -1.441428 -1.518045 -4.221208 0
M  V30 21 C -1.956828 -1.832103 -2.965372 0
M  V30 22 C -1.438324 -1.243217 -1.817321 0
M  V30 23 N -1.966049 -1.565375 -0.537465 0
M  V30 24 C -1.315592 -2.151976 0.628344 0
M  V30 25 C -2.254218 -2.999325 1.425450 0
M  V30 26 C -3.374015 -3.607426 0.612217 0
M  V30 27 C -2.918840 -4.676540 -0.279620 0
M  V30 28 O -3.350022 -5.876087 -0.213104 0
M  V30 29 O -2.278006 -5.385230 -1.255092 0
M  V30 30 C -4.164693 -2.565351 -0.113545 0
M  V30 31 C -3.390351 -1.280296 -0.303887 0
M  V30 32 H -0.485058 4.789900 0.611581 0
M  V30 33 H -1.797815 3.674716 1.442285 0
M  V30 34 H 2.504939 3.141690 3.986746 0
M  V30 35 H 4.038202 1.979123 4.636415 0
M  V30 36 H 5.902505 0.421238 5.301863 0
M  V30 37 H 6.296629 -1.644030 4.003233 0
M  V30 38 H 4.875978 -2.190169 2.058788 0
M  V30 39 H 3.101616 -0.682050 1.446172 0
M  V30 40 H 0.989526 -0.245862 -0.399495 0
M  V30 41 H 0.899351 0.661997 -3.266326 0
M  V30 42 H -1.844713 -1.976907 -5.122343 0
M  V30 43 H -2.764409 -2.539538 -2.900326 0
M  V30 44 H -0.871295 -1.391768 1.301668 0
M  V30 45 H -0.506969 -2.826102 0.237096 0
M  V30 46 H -1.730456 -3.778651 1.992266 0
M  V30 47 H -2.767266 -2.350363 2.186626 0
M  V30 48 H -4.065369 -4.084885 1.350132 0
M  V30 49 H -1.258646 -5.315075 -1.399590 0
M  V30 50 H -5.111749 -2.311065 0.404930 0
M  V30 51 H -4.458842 -3.014647 -1.092907 0
M  V30 52 H -3.826321 -0.658530 -1.088361 0
M  V30 53 H -3.436690 -0.729699 0.652555 0
M  V30 END ATOM
M  V30 BEGIN BOND
M  V30 1 1 1 2
M  V30 2 2 2 3
M  V30 3 1 3 4
M  V30 4 2 4 5
M  V30 5 1 5 6
M  V30 6 2 6 7
M  V30 7 1 7 8
M  V30 8 2 8 9
M  V30 9 1 9 10
M  V30 10 2 10 11
M  V30 11 1 5 12
M  V30 12 2 12 13
M  V30 13 1 13 14
M  V30 14 2 14 15
M  V30 15 1 14 16
M  V30 16 1 16 17
M  V30 17 2 17 18
M  V30 18 1 18 19
M  V30 19 2 19 20
M  V30 20 1 20 21
M  V30 21 2 21 22
M  V30 22 1 22 23
M  V30 23 1 23 24
M  V30 24 1 24 25
M  V30 25 1 25 26
M  V30 26 1 26 27
M  V30 27 2 27 28
M  V30 28 1 27 29
M  V30 29 1 26 30
M  V30 30 1 30 31
M  V30 31 1 13 2
M  V30 32 1 22 17
M  V30 33 1 31 23
M  V30 34 1 11 6
M  V30 35 1 1 32
M  V30 36 1 1 33
M  V30 37 1 4 34
M  V30 38 1 7 35
M  V30 39 1 8 36
M  V30 40 1 9 37
M  V30 41 1 10 38
M  V30 42 1 11 39
M  V30 43 1 16 40
M  V30 44 1 18 41
M  V30 45 1 20 42
M  V30 46 1 21 43
M  V30 47 1 24 44
M  V30 48 1 24 45
M  V30 49 1 25 46
M  V30 50 1 25 47
M  V30 51 1 26 48
M  V30 52 1 29 49
M  V30 53 1 30 50
M  V30 54 1 30 51
M  V30 55 1 31 52
M  V30 56 1 31 53
M  V30 END BOND
M  V30 END CTAB
M  END
>  <Dataset>  (428) 
ChEMBL_Kinases

>  <Ligand_Instance>  (428) 
nan

>  <PDB_ID>  (428) 
nan

>  <Standardized_SMILES>  (428) 
Nc1ncc(-c2ccccc2)nc1C(=O)Nc1cnccc1N1CCC(C(=O)O)CC1

>  <Name>  (428) 
nan

>  <Pocket>  (428) 
nan

>  <ATP_Site>  (428) 
nan

>  <Peripheral>  (428) 
nan

>  <Num_H_Atoms_ProtBoundConf>  (428) 
nan

>  <Num_Resolved_Atoms>  (428) 
nan

>  <Num_Not_Resolved_Atoms>  (428) 
nan

$$$$
CHEMBL1094706
     RDKit          3D

  0  0  0  0  0  0  0  0  0  0999 V3000
M  V30 BEGIN CTAB
M  V30 COUNTS 81 86 0 0 0
M  V30 BEGIN ATOM
M  V30 1 C 0.182666 -9.239374 -3.688423 0
M  V30 2 C 0.281492 -7.848842 -4.313152 0
M  V30 3 N -0.008697 -6.828434 -3.295264 0
M  V30 4 C -1.219162 -6.319935 -3.005120 0
M  V30 5 C -0.977421 -5.403225 -1.988799 0
M  V30 6 C -1.986718 -4.592749 -1.323853 0
M  V30 7 C -3.001098 -5.347245 -0.728819 0
M  V30 8 C -4.029538 -4.699759 -0.058441 0
M  V30 9 N -4.054836 -3.355327 0.021102 0
M  V30 10 C -3.073453 -2.638814 -0.555095 0
M  V30 11 N -2.819802 -1.321205 -0.647072 0
M  V30 12 C -1.680574 -1.106104 -1.343097 0
M  V30 13 C -1.092508 0.222292 -1.638394 0
M  V30 14 O -0.014980 0.308466 -2.285760 0
M  V30 15 N -1.738568 1.426253 -1.192933 0
M  V30 16 C -0.958271 2.541636 -1.610070 0
M  V30 17 C -1.513731 3.886157 -1.211107 0
M  V30 18 N -1.664704 4.129485 0.162205 0
M  V30 19 C -2.626054 3.436104 0.907082 0
M  V30 20 C -3.173619 4.186710 2.096762 0
M  V30 21 N -2.225039 4.912478 2.825033 0
M  V30 22 C -2.517561 5.319793 4.139623 0
M  V30 23 C -0.969828 5.179726 2.272794 0
M  V30 24 C -0.871884 5.111943 0.781297 0
M  V30 25 C -1.134623 -2.306778 -1.741917 0
M  V30 26 C -2.021742 -3.215801 -1.236553 0
M  V30 27 C 0.369275 -5.381859 -1.692860 0
M  V30 28 C 1.135626 -4.602345 -0.729996 0
M  V30 29 C 2.143222 -3.866570 -1.367735 0
M  V30 30 C 3.007266 -3.042256 -0.644988 0
M  V30 31 C 2.832772 -2.975240 0.741000 0
M  V30 32 N 3.744515 -2.125944 1.424288 0
M  V30 33 C 3.433817 -0.753504 1.592449 0
M  V30 34 O 2.345358 -0.362501 1.116349 0
M  V30 35 N 4.272455 0.175455 2.254769 0
M  V30 36 C 4.085124 1.558545 2.482639 0
M  V30 37 C 5.038226 2.257923 3.162141 0
M  V30 38 C 4.933832 3.605108 3.421166 0
M  V30 39 C 3.843902 4.331281 3.001440 0
M  V30 40 C 2.859436 3.656377 2.310855 0
M  V30 41 C 3.012522 2.317286 2.080140 0
M  V30 42 C 1.842280 -3.697869 1.370043 0
M  V30 43 C 1.000277 -4.505659 0.637909 0
M  V30 44 N 0.925996 -6.286151 -2.533075 0
M  V30 45 H -0.691912 -9.208732 -2.998148 0
M  V30 46 H 0.044622 -9.992512 -4.488680 0
M  V30 47 H 1.111129 -9.508423 -3.140649 0
M  V30 48 H 1.338119 -7.747614 -4.635452 0
M  V30 49 H -0.340809 -7.745672 -5.200247 0
M  V30 50 H -2.169925 -6.560832 -3.452352 0
M  V30 51 H -3.112714 -6.424897 -0.710286 0
M  V30 52 H -4.861350 -5.227167 0.433750 0
M  V30 53 H -3.445089 -0.584673 -0.223135 0
M  V30 54 H -2.611523 1.238758 -0.679988 0
M  V30 55 H -0.957738 2.512585 -2.739406 0
M  V30 56 H 0.113205 2.443405 -1.345192 0
M  V30 57 H -2.513535 4.035617 -1.712900 0
M  V30 58 H -0.866540 4.659062 -1.719913 0
M  V30 59 H -3.514075 3.223322 0.266658 0
M  V30 60 H -2.170856 2.497440 1.285295 0
M  V30 61 H -3.683066 3.449682 2.751441 0
M  V30 62 H -3.978533 4.904786 1.773225 0
M  V30 63 H -2.958856 6.354084 4.220874 0
M  V30 64 H -1.659128 5.207495 4.818681 0
M  V30 65 H -3.334181 4.654206 4.542941 0
M  V30 66 H -0.656318 6.198843 2.585375 0
M  V30 67 H -0.226519 4.498246 2.776814 0
M  V30 68 H -1.109376 6.114911 0.317235 0
M  V30 69 H 0.192423 4.929133 0.513358 0
M  V30 70 H -0.244021 -2.514525 -2.304972 0
M  V30 71 H 2.344668 -3.865158 -2.451702 0
M  V30 72 H 3.791916 -2.469401 -1.139874 0
M  V30 73 H 4.663826 -2.478437 1.821798 0
M  V30 74 H 5.141439 -0.281039 2.605986 0
M  V30 75 H 5.933054 1.725643 3.521792 0
M  V30 76 H 5.738155 4.072108 3.965660 0
M  V30 77 H 3.796732 5.388400 3.223059 0
M  V30 78 H 2.016360 4.221733 1.985944 0
M  V30 79 H 2.206598 1.859205 1.537096 0
M  V30 80 H 1.719201 -3.638322 2.426388 0
M  V30 81 H 0.199449 -5.107721 1.032136 0
M  V30 END ATOM
M  V30 BEGIN BOND
M  V30 1 1 1 2
M  V30 2 1 2 3
M  V30 3 1 3 4
M  V30 4 2 4 5
M  V30 5 1 5 6
M  V30 6 2 6 7
M  V30 7 1 7 8
M  V30 8 2 8 9
M  V30 9 1 9 10
M  V30 10 1 10 11
M  V30 11 1 11 12
M  V30 12 1 12 13
M  V30 13 2 13 14
M  V30 14 1 13 15
M  V30 15 1 15 16
M  V30 16 1 16 17
M  V30 17 1 17 18
M  V30 18 1 18 19
M  V30 19 1 19 20
M  V30 20 1 20 21
M  V30 21 1 21 22
M  V30 22 1 21 23
M  V30 23 1 23 24
M  V30 24 2 12 25
M  V30 25 1 25 26
M  V30 26 1 5 27
M  V30 27 1 27 28
M  V30 28 2 28 29
M  V30 29 1 29 30
M  V30 30 2 30 31
M  V30 31 1 31 32
M  V30 32 1 32 33
M  V30 33 2 33 34
M  V30 34 1 33 35
M  V30 35 1 35 36
M  V30 36 2 36 37
M  V30 37 1 37 38
M  V30 38 2 38 39
M  V30 39 1 39 40
M  V30 40 2 40 41
M  V30 41 1 31 42
M  V30 42 2 42 43
M  V30 43 2 27 44
M  V30 44 1 44 3
M  V30 45 1 26 6
M  V30 46 1 43 28
M  V30 47 2 26 10
M  V30 48 1 41 36
M  V30 49 1 24 18
M  V30 50 1 1 45
M  V30 51 1 1 46
M  V30 52 1 1 47
M  V30 53 1 2 48
M  V30 54 1 2 49
M  V30 55 1 4 50
M  V30 56 1 7 51
M  V30 57 1 8 52
M  V30 58 1 11 53
M  V30 59 1 15 54
M  V30 60 1 16 55
M  V30 61 1 16 56
M  V30 62 1 17 57
M  V30 63 1 17 58
M  V30 64 1 19 59
M  V30 65 1 19 60
M  V30 66 1 20 61
M  V30 67 1 20 62
M  V30 68 1 22 63
M  V30 69 1 22 64
M  V30 70 1 22 65
M  V30 71 1 23 66
M  V30 72 1 23 67
M  V30 73 1 24 68
M  V30 74 1 24 69
M  V30 75 1 25 70
M  V30 76 1 29 71
M  V30 77 1 30 72
M  V30 78 1 32 73
M  V30 79 1 35 74
M  V30 80 1 37 75
M  V30 81 1 38 76
M  V30 82 1 39 77
M  V30 83 1 40 78
M  V30 84 1 41 79
M  V30 85 1 42 80
M  V30 86 1 43 81
M  V30 END BOND
M  V30 END CTAB
M  END
>  <Dataset>  (429) 
ChEMBL_Kinases

>  <Ligand_Instance>  (429) 
nan

>  <PDB_ID>  (429) 
nan

>  <Standardized_SMILES>  (429) 
CCn1cc(-c2ccnc3[nH]c(C(=O)NCCN4CCN(C)CC4)cc23)c(-c2ccc(NC(=O)Nc3ccccc3)cc2)n1

>  <Name>  (429) 
nan

>  <Pocket>  (429) 
nan

>  <ATP_Site>  (429) 
nan

>  <Peripheral>  (429) 
nan

>  <Num_H_Atoms_ProtBoundConf>  (429) 
nan

>  <Num_Resolved_Atoms>  (429) 
nan

>  <Num_Not_Resolved_Atoms>  (429) 
nan

$$$$
CHEMBL572743
     RDKit          3D

  0  0  0  0  0  0  0  0  0  0999 V3000
M  V30 BEGIN CTAB
M  V30 COUNTS 34 36 0 0 0
M  V30 BEGIN ATOM
M  V30 1 C 1.323984 -3.027820 4.047289 0
M  V30 2 N -0.066267 -2.973975 3.741555 0
M  V30 3 C -0.876108 -3.987943 4.343603 0
M  V30 4 C -0.380264 -2.740364 2.348637 0
M  V30 5 C 0.024591 -1.344574 1.986356 0
M  V30 6 C -0.266557 -1.023203 0.569059 0
M  V30 7 N 0.070419 0.212516 0.192800 0
M  V30 8 C -0.120514 0.680374 -1.050014 0
M  V30 9 C -0.717646 -0.320683 -1.866132 0
M  V30 10 S -0.888113 0.506581 -3.482246 0
M  V30 11 C -0.169928 2.066095 -2.941777 0
M  V30 12 C 0.018154 3.183953 -3.678393 0
M  V30 13 C 0.587750 4.289247 -3.082773 0
M  V30 14 C 0.911254 4.124511 -1.763647 0
M  V30 15 Cl 1.645301 5.523601 -0.964523 0
M  V30 16 C 0.722430 2.991127 -1.010566 0
M  V30 17 C 0.153352 1.892040 -1.610376 0
M  V30 18 C -1.056903 -1.583883 -1.463910 0
M  V30 19 O -1.571662 -2.317454 -2.329605 0
M  V30 20 N -0.823089 -1.953463 -0.194177 0
M  V30 21 H 1.896234 -3.303462 3.148297 0
M  V30 22 H 1.430242 -3.789105 4.869740 0
M  V30 23 H 1.707500 -2.084575 4.532080 0
M  V30 24 H -1.943086 -3.926060 4.049196 0
M  V30 25 H -0.544251 -5.025846 4.055855 0
M  V30 26 H -0.853213 -3.847888 5.458083 0
M  V30 27 H -1.485723 -2.900963 2.257484 0
M  V30 28 H 0.195749 -3.452411 1.719273 0
M  V30 29 H -0.455783 -0.634775 2.689099 0
M  V30 30 H 1.117341 -1.267043 2.141622 0
M  V30 31 H -0.282365 3.188583 -4.721106 0
M  V30 32 H 0.752849 5.199050 -3.639329 0
M  V30 33 H 1.027881 3.003401 0.027826 0
M  V30 34 H -1.085167 -2.899075 0.078964 0
M  V30 END ATOM
M  V30 BEGIN BOND
M  V30 1 1 1 2
M  V30 2 1 2 3
M  V30 3 1 2 4
M  V30 4 1 4 5
M  V30 5 1 5 6
M  V30 6 2 6 7
M  V30 7 1 7 8
M  V30 8 2 8 9
M  V30 9 1 9 10
M  V30 10 1 10 11
M  V30 11 2 11 12
M  V30 12 1 12 13
M  V30 13 2 13 14
M  V30 14 1 14 15
M  V30 15 1 14 16
M  V30 16 2 16 17
M  V30 17 1 9 18
M  V30 18 2 18 19
M  V30 19 1 18 20
M  V30 20 1 20 6
M  V30 21 1 17 8
M  V30 22 1 17 11
M  V30 23 1 1 21
M  V30 24 1 1 22
M  V30 25 1 1 23
M  V30 26 1 3 24
M  V30 27 1 3 25
M  V30 28 1 3 26
M  V30 29 1 4 27
M  V30 30 1 4 28
M  V30 31 1 5 29
M  V30 32 1 5 30
M  V30 33 1 12 31
M  V30 34 1 13 32
M  V30 35 1 16 33
M  V30 36 1 20 34
M  V30 END BOND
M  V30 END CTAB
M  END
>  <Dataset>  (430) 
ChEMBL_Kinases

>  <Ligand_Instance>  (430) 
nan

>  <PDB_ID>  (430) 
nan

>  <Standardized_SMILES>  (430) 
CN(C)CCc1nc2c(sc3ccc(Cl)cc32)c(=O)[nH]1

>  <Name>  (430) 
nan

>  <Pocket>  (430) 
nan

>  <ATP_Site>  (430) 
nan

>  <Peripheral>  (430) 
nan

>  <Num_H_Atoms_ProtBoundConf>  (430) 
nan

>  <Num_Resolved_Atoms>  (430) 
nan

>  <Num_Not_Resolved_Atoms>  (430) 
nan

$$$$
CHEMBL1094705
     RDKit          3D

  0  0  0  0  0  0  0  0  0  0999 V3000
M  V30 BEGIN CTAB
M  V30 COUNTS 84 89 0 0 0
M  V30 BEGIN ATOM
M  V30 1 C 3.929592 -8.313622 5.029369 0
M  V30 2 C 4.353070 -7.427448 3.895111 0
M  V30 3 N 3.345474 -6.426736 3.653500 0
M  V30 4 C 2.316276 -6.633082 2.781155 0
M  V30 5 C 1.523569 -5.503628 2.760216 0
M  V30 6 C 0.306538 -5.184687 2.027147 0
M  V30 7 C -0.749138 -6.057738 2.318259 0
M  V30 8 C -1.966552 -5.838166 1.671135 0
M  V30 9 N -2.129280 -4.827039 0.797485 0
M  V30 10 C -1.095668 -4.008877 0.541166 0
M  V30 11 N -0.937747 -2.938103 -0.255896 0
M  V30 12 C 0.321994 -2.427540 -0.177868 0
M  V30 13 C 0.827701 -1.252052 -0.930147 0
M  V30 14 O 2.006662 -0.906385 -0.776178 0
M  V30 15 N -0.077556 -0.578544 -1.796104 0
M  V30 16 C 0.400769 0.584659 -2.556495 0
M  V30 17 C -0.831948 1.047084 -3.350758 0
M  V30 18 C -0.556488 2.232517 -4.214392 0
M  V30 19 N -1.698463 2.671373 -4.925609 0
M  V30 20 C -1.509320 3.782031 -5.793295 0
M  V30 21 C -2.830058 4.516340 -5.915364 0
M  V30 22 N -3.957814 3.658571 -5.633100 0
M  V30 23 C -4.475646 3.818616 -4.314620 0
M  V30 24 C -3.781650 2.296640 -6.068152 0
M  V30 25 C -2.508435 1.678464 -5.531180 0
M  V30 26 C 1.052564 -3.195616 0.720279 0
M  V30 27 C 0.158964 -4.144567 1.135812 0
M  V30 28 C 2.099243 -4.608080 3.642053 0
M  V30 29 C 1.650298 -3.265339 3.967974 0
M  V30 30 C 2.652123 -2.304594 3.770619 0
M  V30 31 C 2.431934 -0.966131 4.014576 0
M  V30 32 C 1.167536 -0.575771 4.469931 0
M  V30 33 N 1.029560 0.835861 4.702320 0
M  V30 34 C 0.613431 1.517465 3.501987 0
M  V30 35 O 0.467507 0.713722 2.537383 0
M  V30 36 N 0.420979 2.947421 3.520857 0
M  V30 37 C 0.018231 3.665612 2.363119 0
M  V30 38 C -1.234193 3.988753 1.893470 0
M  V30 39 C -1.347720 4.712240 0.713866 0
M  V30 40 C -0.225751 5.101431 0.023399 0
M  V30 41 C 1.055754 4.799010 0.458426 0
M  V30 42 C 1.147852 4.073627 1.641854 0
M  V30 43 C 0.172900 -1.517994 4.665963 0
M  V30 44 C 0.437111 -2.847234 4.410276 0
M  V30 45 N 3.207593 -5.216044 4.162272 0
M  V30 46 H 4.288424 -7.944217 6.031886 0
M  V30 47 H 4.407422 -9.293944 4.897165 0
M  V30 48 H 2.829583 -8.378733 5.141971 0
M  V30 49 H 4.572409 -7.988332 2.965912 0
M  V30 50 H 5.285554 -6.894118 4.197491 0
M  V30 51 H 2.061302 -7.501940 2.152006 0
M  V30 52 H -0.677904 -6.879984 3.000960 0
M  V30 53 H -2.799263 -6.524802 1.898445 0
M  V30 54 H -1.743245 -2.590048 -0.844989 0
M  V30 55 H -1.061536 -0.949238 -1.855528 0
M  V30 56 H 1.182816 0.306440 -3.259899 0
M  V30 57 H 0.750274 1.405118 -1.920192 0
M  V30 58 H -1.160331 0.177734 -3.990716 0
M  V30 59 H -1.611217 1.238505 -2.614037 0
M  V30 60 H -0.145997 3.098396 -3.647959 0
M  V30 61 H 0.266110 1.965232 -4.938919 0
M  V30 62 H -0.761993 4.521007 -5.470880 0
M  V30 63 H -1.245108 3.483134 -6.844567 0
M  V30 64 H -2.996983 4.968789 -6.906396 0
M  V30 65 H -2.843801 5.337934 -5.157565 0
M  V30 66 H -3.923940 4.692677 -3.861254 0
M  V30 67 H -4.419154 2.940119 -3.668138 0
M  V30 68 H -5.539543 4.190801 -4.405553 0
M  V30 69 H -4.683959 1.738977 -5.795925 0
M  V30 70 H -3.707729 2.300294 -7.176677 0
M  V30 71 H -2.855840 0.881834 -4.809775 0
M  V30 72 H -1.971485 1.122310 -6.331037 0
M  V30 73 H 2.060629 -3.097077 1.031337 0
M  V30 74 H 3.665725 -2.544298 3.415849 0
M  V30 75 H 3.222535 -0.235525 3.855966 0
M  V30 76 H 1.182156 1.409568 5.577595 0
M  V30 77 H 0.590751 3.426177 4.417006 0
M  V30 78 H -2.014289 3.618716 2.537391 0
M  V30 79 H -2.366244 4.918732 0.426234 0
M  V30 80 H -0.405346 5.669915 -0.900494 0
M  V30 81 H 1.906584 5.124251 -0.112374 0
M  V30 82 H 2.194157 3.882070 1.909061 0
M  V30 83 H -0.778876 -1.175198 5.011127 0
M  V30 84 H -0.288176 -3.610862 4.543982 0
M  V30 END ATOM
M  V30 BEGIN BOND
M  V30 1 1 1 2
M  V30 2 1 2 3
M  V30 3 1 3 4
M  V30 4 2 4 5
M  V30 5 1 5 6
M  V30 6 2 6 7
M  V30 7 1 7 8
M  V30 8 2 8 9
M  V30 9 1 9 10
M  V30 10 1 10 11
M  V30 11 1 11 12
M  V30 12 1 12 13
M  V30 13 2 13 14
M  V30 14 1 13 15
M  V30 15 1 15 16
M  V30 16 1 16 17
M  V30 17 1 17 18
M  V30 18 1 18 19
M  V30 19 1 19 20
M  V30 20 1 20 21
M  V30 21 1 21 22
M  V30 22 1 22 23
M  V30 23 1 22 24
M  V30 24 1 24 25
M  V30 25 2 12 26
M  V30 26 1 26 27
M  V30 27 1 5 28
M  V30 28 1 28 29
M  V30 29 2 29 30
M  V30 30 1 30 31
M  V30 31 2 31 32
M  V30 32 1 32 33
M  V30 33 1 33 34
M  V30 34 2 34 35
M  V30 35 1 34 36
M  V30 36 1 36 37
M  V30 37 2 37 38
M  V30 38 1 38 39
M  V30 39 2 39 40
M  V30 40 1 40 41
M  V30 41 2 41 42
M  V30 42 1 32 43
M  V30 43 2 43 44
M  V30 44 2 28 45
M  V30 45 1 45 3
M  V30 46 1 27 6
M  V30 47 1 44 29
M  V30 48 2 27 10
M  V30 49 1 42 37
M  V30 50 1 25 19
M  V30 51 1 1 46
M  V30 52 1 1 47
M  V30 53 1 1 48
M  V30 54 1 2 49
M  V30 55 1 2 50
M  V30 56 1 4 51
M  V30 57 1 7 52
M  V30 58 1 8 53
M  V30 59 1 11 54
M  V30 60 1 15 55
M  V30 61 1 16 56
M  V30 62 1 16 57
M  V30 63 1 17 58
M  V30 64 1 17 59
M  V30 65 1 18 60
M  V30 66 1 18 61
M  V30 67 1 20 62
M  V30 68 1 20 63
M  V30 69 1 21 64
M  V30 70 1 21 65
M  V30 71 1 23 66
M  V30 72 1 23 67
M  V30 73 1 23 68
M  V30 74 1 24 69
M  V30 75 1 24 70
M  V30 76 1 25 71
M  V30 77 1 25 72
M  V30 78 1 26 73
M  V30 79 1 30 74
M  V30 80 1 31 75
M  V30 81 1 33 76
M  V30 82 1 36 77
M  V30 83 1 38 78
M  V30 84 1 39 79
M  V30 85 1 40 80
M  V30 86 1 41 81
M  V30 87 1 42 82
M  V30 88 1 43 83
M  V30 89 1 44 84
M  V30 END BOND
M  V30 END CTAB
M  END
>  <Dataset>  (431) 
ChEMBL_Kinases

>  <Ligand_Instance>  (431) 
nan

>  <PDB_ID>  (431) 
nan

>  <Standardized_SMILES>  (431) 
CCn1cc(-c2ccnc3[nH]c(C(=O)NCCCN4CCN(C)CC4)cc23)c(-c2ccc(NC(=O)Nc3ccccc3)cc2)n1

>  <Name>  (431) 
nan

>  <Pocket>  (431) 
nan

>  <ATP_Site>  (431) 
nan

>  <Peripheral>  (431) 
nan

>  <Num_H_Atoms_ProtBoundConf>  (431) 
nan

>  <Num_Resolved_Atoms>  (431) 
nan

>  <Num_Not_Resolved_Atoms>  (431) 
nan

$$$$
CHEMBL1094704
     RDKit          3D

  0  0  0  0  0  0  0  0  0  0999 V3000
M  V30 BEGIN CTAB
M  V30 COUNTS 77 82 0 0 0
M  V30 BEGIN ATOM
M  V30 1 C 1.039781 -7.843969 5.744810 0
M  V30 2 C 1.894006 -7.269299 4.614695 0
M  V30 3 N 1.260060 -6.059823 4.074570 0
M  V30 4 C 0.373811 -6.003600 3.065145 0
M  V30 5 C 0.004279 -4.667839 2.847629 0
M  V30 6 C -0.958791 -4.374157 1.792189 0
M  V30 7 C -2.196887 -5.003039 1.961351 0
M  V30 8 C -3.189641 -4.798446 1.022337 0
M  V30 9 N -3.013190 -4.020506 -0.044982 0
M  V30 10 C -1.825579 -3.410857 -0.216449 0
M  V30 11 N -1.310897 -2.583663 -1.142862 0
M  V30 12 C -0.037265 -2.237586 -0.859536 0
M  V30 13 C 0.835715 -1.360790 -1.633920 0
M  V30 14 O 2.011279 -1.104736 -1.265635 0
M  V30 15 N 0.318038 -0.788189 -2.842147 0
M  V30 16 C 1.178201 0.065613 -3.588416 0
M  V30 17 C 0.495418 0.579511 -4.817808 0
M  V30 18 N -0.691751 1.339357 -4.591488 0
M  V30 19 C -1.316826 1.820067 -5.780901 0
M  V30 20 C -2.250123 2.941130 -5.646770 0
M  V30 21 O -2.389413 3.512001 -4.410117 0
M  V30 22 C -2.103516 2.721606 -3.330426 0
M  V30 23 C -0.646949 2.272945 -3.516915 0
M  V30 24 C 0.334500 -2.869675 0.333047 0
M  V30 25 C -0.790505 -3.571497 0.682516 0
M  V30 26 C 0.724768 -3.953647 3.785777 0
M  V30 27 C 0.575118 -2.511462 3.832319 0
M  V30 28 C -0.533569 -1.739623 4.094697 0
M  V30 29 C -0.431965 -0.363198 4.082986 0
M  V30 30 C 0.758972 0.275891 3.813847 0
M  V30 31 N 0.906009 1.687769 3.790970 0
M  V30 32 C 0.678530 2.253314 2.511375 0
M  V30 33 O 0.374153 1.510595 1.518165 0
M  V30 34 N 0.764087 3.631134 2.228370 0
M  V30 35 C 0.535135 4.193259 0.942043 0
M  V30 36 C -0.655871 4.645910 0.415304 0
M  V30 37 C -0.684855 5.162857 -0.862009 0
M  V30 38 C 0.449450 5.242666 -1.637291 0
M  V30 39 C 1.653250 4.791675 -1.120912 0
M  V30 40 C 1.687334 4.273197 0.157628 0
M  V30 41 C 1.886330 -0.492448 3.547422 0
M  V30 42 C 1.790671 -1.868114 3.557605 0
M  V30 43 N 1.463326 -4.822824 4.499683 0
M  V30 44 H 1.230963 -7.326038 6.705818 0
M  V30 45 H 1.079694 -8.930367 5.807461 0
M  V30 46 H -0.029710 -7.593753 5.492173 0
M  V30 47 H 1.966947 -8.037983 3.841230 0
M  V30 48 H 2.849085 -6.979141 5.063154 0
M  V30 49 H 0.050587 -6.905868 2.553678 0
M  V30 50 H -2.462071 -5.655997 2.782469 0
M  V30 51 H -4.180125 -5.249575 1.079343 0
M  V30 52 H -1.861754 -2.255740 -1.987444 0
M  V30 53 H -0.654994 -0.982551 -3.175101 0
M  V30 54 H 2.055636 -0.522187 -3.939141 0
M  V30 55 H 1.562478 0.936761 -3.021183 0
M  V30 56 H 1.222025 1.212825 -5.402787 0
M  V30 57 H 0.210326 -0.254809 -5.513895 0
M  V30 58 H -0.486249 2.110404 -6.492352 0
M  V30 59 H -1.791107 0.939207 -6.268586 0
M  V30 60 H -1.995346 3.777100 -6.355023 0
M  V30 61 H -3.289145 2.635317 -5.969967 0
M  V30 62 H -2.741078 1.807603 -3.387233 0
M  V30 63 H -2.262657 3.299881 -2.421225 0
M  V30 64 H -0.245976 1.807709 -2.619785 0
M  V30 65 H -0.092870 3.178283 -3.862782 0
M  V30 66 H 1.276419 -2.817933 0.851745 0
M  V30 67 H -1.405023 -2.313429 4.290313 0
M  V30 68 H -1.308707 0.207723 4.289555 0
M  V30 69 H 1.157243 2.327129 4.600182 0
M  V30 70 H 1.008923 4.275598 3.004550 0
M  V30 71 H -1.506734 4.551946 1.082252 0
M  V30 72 H -1.651397 5.510874 -1.240981 0
M  V30 73 H 0.413495 5.656106 -2.652920 0
M  V30 74 H 2.513342 4.877772 -1.773643 0
M  V30 75 H 2.687861 3.944795 0.470476 0
M  V30 76 H 2.832650 0.025411 3.333896 0
M  V30 77 H 2.744385 -2.371567 3.333530 0
M  V30 END ATOM
M  V30 BEGIN BOND
M  V30 1 1 1 2
M  V30 2 1 2 3
M  V30 3 1 3 4
M  V30 4 2 4 5
M  V30 5 1 5 6
M  V30 6 2 6 7
M  V30 7 1 7 8
M  V30 8 2 8 9
M  V30 9 1 9 10
M  V30 10 1 10 11
M  V30 11 1 11 12
M  V30 12 1 12 13
M  V30 13 2 13 14
M  V30 14 1 13 15
M  V30 15 1 15 16
M  V30 16 1 16 17
M  V30 17 1 17 18
M  V30 18 1 18 19
M  V30 19 1 19 20
M  V30 20 1 20 21
M  V30 21 1 21 22
M  V30 22 1 22 23
M  V30 23 2 12 24
M  V30 24 1 24 25
M  V30 25 1 5 26
M  V30 26 1 26 27
M  V30 27 2 27 28
M  V30 28 1 28 29
M  V30 29 2 29 30
M  V30 30 1 30 31
M  V30 31 1 31 32
M  V30 32 2 32 33
M  V30 33 1 32 34
M  V30 34 1 34 35
M  V30 35 2 35 36
M  V30 36 1 36 37
M  V30 37 2 37 38
M  V30 38 1 38 39
M  V30 39 2 39 40
M  V30 40 1 30 41
M  V30 41 2 41 42
M  V30 42 2 26 43
M  V30 43 1 43 3
M  V30 44 1 25 6
M  V30 45 1 42 27
M  V30 46 2 25 10
M  V30 47 1 40 35
M  V30 48 1 23 18
M  V30 49 1 1 44
M  V30 50 1 1 45
M  V30 51 1 1 46
M  V30 52 1 2 47
M  V30 53 1 2 48
M  V30 54 1 4 49
M  V30 55 1 7 50
M  V30 56 1 8 51
M  V30 57 1 11 52
M  V30 58 1 15 53
M  V30 59 1 16 54
M  V30 60 1 16 55
M  V30 61 1 17 56
M  V30 62 1 17 57
M  V30 63 1 19 58
M  V30 64 1 19 59
M  V30 65 1 20 60
M  V30 66 1 20 61
M  V30 67 1 22 62
M  V30 68 1 22 63
M  V30 69 1 23 64
M  V30 70 1 23 65
M  V30 71 1 24 66
M  V30 72 1 28 67
M  V30 73 1 29 68
M  V30 74 1 31 69
M  V30 75 1 34 70
M  V30 76 1 36 71
M  V30 77 1 37 72
M  V30 78 1 38 73
M  V30 79 1 39 74
M  V30 80 1 40 75
M  V30 81 1 41 76
M  V30 82 1 42 77
M  V30 END BOND
M  V30 END CTAB
M  END
>  <Dataset>  (432) 
ChEMBL_Kinases

>  <Ligand_Instance>  (432) 
nan

>  <PDB_ID>  (432) 
nan

>  <Standardized_SMILES>  (432) 
CCn1cc(-c2ccnc3[nH]c(C(=O)NCCN4CCOCC4)cc23)c(-c2ccc(NC(=O)Nc3ccccc3)cc2)n1

>  <Name>  (432) 
nan

>  <Pocket>  (432) 
nan

>  <ATP_Site>  (432) 
nan

>  <Peripheral>  (432) 
nan

>  <Num_H_Atoms_ProtBoundConf>  (432) 
nan

>  <Num_Resolved_Atoms>  (432) 
nan

>  <Num_Not_Resolved_Atoms>  (432) 
nan

$$$$
CHEMBL210655
     RDKit          3D

  0  0  0  0  0  0  0  0  0  0999 V3000
M  V30 BEGIN CTAB
M  V30 COUNTS 42 43 0 0 0
M  V30 BEGIN ATOM
M  V30 1 C -1.701153 -4.663158 1.697545 0
M  V30 2 C -0.577005 -4.661074 2.690238 0
M  V30 3 O 0.705894 -4.731850 2.120854 0
M  V30 4 C 1.227915 -3.801432 1.248558 0
M  V30 5 N 0.504253 -2.751207 0.889970 0
M  V30 6 C 0.890866 -1.773323 0.052288 0
M  V30 7 N -0.015217 -0.721809 -0.228827 0
M  V30 8 C 0.172439 0.452573 -0.972865 0
M  V30 9 O 1.297671 0.643362 -1.482306 0
M  V30 10 C -0.926632 1.461054 -1.161175 0
M  V30 11 C -0.408867 2.712035 -0.504531 0
M  V30 12 C 0.100989 3.843533 -1.098853 0
M  V30 13 C 0.527605 4.896738 -0.326605 0
M  V30 14 C 0.426831 4.776443 1.039939 0
M  V30 15 C -0.075859 3.665703 1.676226 0
M  V30 16 C -0.510729 2.592067 0.887326 0
M  V30 17 O -0.996897 1.527700 1.610415 0
M  V30 18 C -1.079816 1.450774 3.000854 0
M  V30 19 C 2.153766 -1.950282 -0.431814 0
M  V30 20 C 3.007307 -2.994102 -0.140550 0
M  V30 21 N 4.302489 -3.076379 -0.703929 0
M  V30 22 C 2.499038 -3.937559 0.734073 0
M  V30 23 C 3.333241 -5.062727 1.088678 0
M  V30 24 N 4.015520 -5.955539 1.365614 0
M  V30 25 H -2.592063 -5.147677 2.194139 0
M  V30 26 H -2.039925 -3.642496 1.421902 0
M  V30 27 H -1.467672 -5.306958 0.819797 0
M  V30 28 H -0.684173 -3.742630 3.308615 0
M  V30 29 H -0.697388 -5.535395 3.361513 0
M  V30 30 H -0.988601 -0.800768 0.161014 0
M  V30 31 H -1.868941 1.113411 -0.728503 0
M  V30 32 H -1.105364 1.670946 -2.246353 0
M  V30 33 H 0.104129 3.766387 -2.173986 0
M  V30 34 H 0.907615 5.731447 -0.893921 0
M  V30 35 H 0.778005 5.641728 1.607752 0
M  V30 36 H -0.090355 3.726235 2.754777 0
M  V30 37 H -1.184111 0.370621 3.316297 0
M  V30 38 H -1.936172 2.013885 3.434206 0
M  V30 39 H -0.166916 1.846904 3.535630 0
M  V30 40 H 2.547356 -1.216187 -1.113930 0
M  V30 41 H 4.842224 -3.946919 -0.490253 0
M  V30 42 H 4.633598 -2.276621 -1.288107 0
M  V30 END ATOM
M  V30 BEGIN BOND
M  V30 1 1 1 2
M  V30 2 1 2 3
M  V30 3 1 3 4
M  V30 4 2 4 5
M  V30 5 1 5 6
M  V30 6 1 6 7
M  V30 7 1 7 8
M  V30 8 2 8 9
M  V30 9 1 8 10
M  V30 10 1 10 11
M  V30 11 2 11 12
M  V30 12 1 12 13
M  V30 13 2 13 14
M  V30 14 1 14 15
M  V30 15 2 15 16
M  V30 16 1 16 17
M  V30 17 1 17 18
M  V30 18 2 6 19
M  V30 19 1 19 20
M  V30 20 1 20 21
M  V30 21 2 20 22
M  V30 22 1 22 23
M  V30 23 3 23 24
M  V30 24 1 22 4
M  V30 25 1 16 11
M  V30 26 1 1 25
M  V30 27 1 1 26
M  V30 28 1 1 27
M  V30 29 1 2 28
M  V30 30 1 2 29
M  V30 31 1 7 30
M  V30 32 1 10 31
M  V30 33 1 10 32
M  V30 34 1 12 33
M  V30 35 1 13 34
M  V30 36 1 14 35
M  V30 37 1 15 36
M  V30 38 1 18 37
M  V30 39 1 18 38
M  V30 40 1 18 39
M  V30 41 1 19 40
M  V30 42 1 21 41
M  V30 43 1 21 42
M  V30 END BOND
M  V30 END CTAB
M  END
>  <Dataset>  (433) 
ChEMBL_Kinases

>  <Ligand_Instance>  (433) 
nan

>  <PDB_ID>  (433) 
nan

>  <Standardized_SMILES>  (433) 
CCOc1nc(NC(=O)Cc2ccccc2OC)cc(N)c1C#N

>  <Name>  (433) 
nan

>  <Pocket>  (433) 
nan

>  <ATP_Site>  (433) 
nan

>  <Peripheral>  (433) 
nan

>  <Num_H_Atoms_ProtBoundConf>  (433) 
nan

>  <Num_Resolved_Atoms>  (433) 
nan

>  <Num_Not_Resolved_Atoms>  (433) 
nan

$$$$
CHEMBL1089865
     RDKit          3D

  0  0  0  0  0  0  0  0  0  0999 V3000
M  V30 BEGIN CTAB
M  V30 COUNTS 52 56 0 0 0
M  V30 BEGIN ATOM
M  V30 1 C 1.164517 -2.244047 -1.945860 0
M  V30 2 C 1.901598 -1.363966 -1.015924 0
M  V30 3 C 3.216973 -1.076238 -1.324267 0
M  V30 4 C 3.917139 -0.263014 -0.475883 0
M  V30 5 C 3.392801 0.291532 0.673611 0
M  V30 6 C 4.127136 1.160180 1.587531 0
M  V30 7 O 3.579455 1.637900 2.632454 0
M  V30 8 N 5.465935 1.527030 1.387235 0
M  V30 9 C 6.245956 2.376718 2.246034 0
M  V30 10 C 7.719730 2.297895 2.275719 0
M  V30 11 C 7.098368 3.422590 1.508019 0
M  V30 12 C 2.076922 -0.006541 0.966372 0
M  V30 13 C 1.342392 -0.824533 0.130262 0
M  V30 14 C -0.059959 -1.190860 0.367641 0
M  V30 15 C -0.223187 -2.340289 1.116531 0
M  V30 16 C -1.519548 -2.746857 1.380254 0
M  V30 17 C -2.159868 -3.788421 2.058421 0
M  V30 18 N -3.508510 -3.615803 1.944669 0
M  V30 19 N -3.732831 -2.512687 1.225583 0
M  V30 20 C -5.110168 -2.212600 1.028735 0
M  V30 21 C -5.840510 -1.231089 1.666283 0
M  V30 22 F -5.163749 -0.477601 2.573690 0
M  V30 23 C -7.176067 -1.031303 1.396491 0
M  V30 24 C -7.851682 -1.802452 0.475019 0
M  V30 25 C -7.190581 -2.795100 -0.195803 0
M  V30 26 C -5.856865 -2.957299 0.107173 0
M  V30 27 F -5.178577 -3.949176 -0.557166 0
M  V30 28 C -2.549029 -1.977906 0.878183 0
M  V30 29 N -2.403589 -0.869735 0.156163 0
M  V30 30 C -3.501954 -0.076562 -0.361768 0
M  V30 31 C -1.125008 -0.465935 -0.105774 0
M  V30 32 O -0.896423 0.576449 -0.784844 0
M  V30 33 H 0.139907 -2.463946 -1.646721 0
M  V30 34 H 1.232457 -1.879084 -3.007783 0
M  V30 35 H 1.689406 -3.237288 -1.982357 0
M  V30 36 H 3.707641 -1.465524 -2.201073 0
M  V30 37 H 4.954952 -0.035652 -0.718627 0
M  V30 38 H 5.999936 1.179192 0.549345 0
M  V30 39 H 5.680678 2.739320 3.124386 0
M  V30 40 H 8.193210 1.478383 1.709296 0
M  V30 41 H 8.241784 2.585729 3.217138 0
M  V30 42 H 7.156596 3.364759 0.402609 0
M  V30 43 H 7.110186 4.444600 1.943259 0
M  V30 44 H 1.542714 0.361209 1.834963 0
M  V30 45 H 0.569657 -2.958767 1.520320 0
M  V30 46 H -1.564819 -4.548769 2.554483 0
M  V30 47 H -7.647264 -0.222308 1.965959 0
M  V30 48 H -8.900202 -1.621061 0.285303 0
M  V30 49 H -7.646542 -3.438915 -0.928706 0
M  V30 50 H -3.969261 0.576700 0.398000 0
M  V30 51 H -4.212156 -0.779488 -0.837758 0
M  V30 52 H -3.115354 0.554087 -1.213132 0
M  V30 END ATOM
M  V30 BEGIN BOND
M  V30 1 1 1 2
M  V30 2 2 2 3
M  V30 3 1 3 4
M  V30 4 2 4 5
M  V30 5 1 5 6
M  V30 6 2 6 7
M  V30 7 1 6 8
M  V30 8 1 8 9
M  V30 9 1 9 10
M  V30 10 1 10 11
M  V30 11 1 5 12
M  V30 12 2 12 13
M  V30 13 1 13 14
M  V30 14 2 14 15
M  V30 15 1 15 16
M  V30 16 1 16 17
M  V30 17 2 17 18
M  V30 18 1 18 19
M  V30 19 1 19 20
M  V30 20 2 20 21
M  V30 21 1 21 22
M  V30 22 1 21 23
M  V30 23 2 23 24
M  V30 24 1 24 25
M  V30 25 2 25 26
M  V30 26 1 26 27
M  V30 27 1 19 28
M  V30 28 1 28 29
M  V30 29 1 29 30
M  V30 30 1 29 31
M  V30 31 2 31 32
M  V30 32 1 13 2
M  V30 33 1 31 14
M  V30 34 1 11 9
M  V30 35 2 28 16
M  V30 36 1 26 20
M  V30 37 1 1 33
M  V30 38 1 1 34
M  V30 39 1 1 35
M  V30 40 1 3 36
M  V30 41 1 4 37
M  V30 42 1 8 38
M  V30 43 1 9 39
M  V30 44 1 10 40
M  V30 45 1 10 41
M  V30 46 1 11 42
M  V30 47 1 11 43
M  V30 48 1 12 44
M  V30 49 1 15 45
M  V30 50 1 17 46
M  V30 51 1 23 47
M  V30 52 1 24 48
M  V30 53 1 25 49
M  V30 54 1 30 50
M  V30 55 1 30 51
M  V30 56 1 30 52
M  V30 END BOND
M  V30 END CTAB
M  END
>  <Dataset>  (434) 
ChEMBL_Kinases

>  <Ligand_Instance>  (434) 
nan

>  <PDB_ID>  (434) 
nan

>  <Standardized_SMILES>  (434) 
Cc1ccc(C(=O)NC2CC2)cc1-c1cc2cnn(-c3c(F)cccc3F)c2n(C)c1=O

>  <Name>  (434) 
nan

>  <Pocket>  (434) 
nan

>  <ATP_Site>  (434) 
nan

>  <Peripheral>  (434) 
nan

>  <Num_H_Atoms_ProtBoundConf>  (434) 
nan

>  <Num_Resolved_Atoms>  (434) 
nan

>  <Num_Not_Resolved_Atoms>  (434) 
nan

$$$$
CHEMBL213422
     RDKit          3D

  0  0  0  0  0  0  0  0  0  0999 V3000
M  V30 BEGIN CTAB
M  V30 COUNTS 35 39 0 0 0
M  V30 BEGIN ATOM
M  V30 1 O 1.289440 -4.321144 0.412429 0
M  V30 2 C 0.671261 -3.389224 0.981898 0
M  V30 3 N -0.104060 -3.467752 2.186265 0
M  V30 4 C -0.623619 -2.179225 2.464993 0
M  V30 5 O -1.320612 -2.088985 3.484278 0
M  V30 6 C -0.198105 -1.249133 1.454611 0
M  V30 7 C 0.560547 -1.987122 0.597540 0
M  V30 8 C 1.137799 -1.394386 -0.514420 0
M  V30 9 C 1.983930 -2.000091 -1.532937 0
M  V30 10 C 3.086675 -2.810193 -1.485984 0
M  V30 11 C 3.535180 -3.130905 -2.745295 0
M  V30 12 N 2.701884 -2.512962 -3.582035 0
M  V30 13 C 1.768540 -1.832156 -2.902448 0
M  V30 14 C 0.918693 -0.029650 -0.726676 0
M  V30 15 C 0.149233 0.712203 0.144971 0
M  V30 16 N -0.196300 2.026586 0.144927 0
M  V30 17 C -0.959683 2.174360 1.244642 0
M  V30 18 C -1.540291 3.365248 1.650798 0
M  V30 19 C -2.307073 3.411045 2.796497 0
M  V30 20 C -2.477853 2.228864 3.527480 0
M  V30 21 O -3.249174 2.271481 4.681348 0
M  V30 22 C -1.867522 1.088939 3.055867 0
M  V30 23 C -1.102790 0.991356 1.933925 0
M  V30 24 C -0.395389 0.064871 1.229887 0
M  V30 25 H -0.192273 -4.395323 2.685189 0
M  V30 26 H 3.536412 -3.141955 -0.571672 0
M  V30 27 H 4.384594 -3.753057 -3.006686 0
M  V30 28 H 2.800052 -2.577792 -4.621234 0
M  V30 29 H 1.004753 -1.267532 -3.403379 0
M  V30 30 H 1.338239 0.521584 -1.583462 0
M  V30 31 H 0.087768 2.734690 -0.568810 0
M  V30 32 H -1.436467 4.286988 1.125384 0
M  V30 33 H -2.770225 4.327411 3.133896 0
M  V30 34 H -4.271403 2.208441 4.669839 0
M  V30 35 H -2.048002 0.243065 3.667663 0
M  V30 END ATOM
M  V30 BEGIN BOND
M  V30 1 2 1 2
M  V30 2 1 2 3
M  V30 3 1 3 4
M  V30 4 2 4 5
M  V30 5 1 4 6
M  V30 6 2 6 7
M  V30 7 1 7 8
M  V30 8 1 8 9
M  V30 9 1 9 10
M  V30 10 2 10 11
M  V30 11 1 11 12
M  V30 12 1 12 13
M  V30 13 2 8 14
M  V30 14 1 14 15
M  V30 15 1 15 16
M  V30 16 1 16 17
M  V30 17 2 17 18
M  V30 18 1 18 19
M  V30 19 2 19 20
M  V30 20 1 20 21
M  V30 21 1 20 22
M  V30 22 2 22 23
M  V30 23 1 23 24
M  V30 24 1 7 2
M  V30 25 2 13 9
M  V30 26 2 24 15
M  V30 27 1 24 6
M  V30 28 1 23 17
M  V30 29 1 3 25
M  V30 30 1 10 26
M  V30 31 1 11 27
M  V30 32 1 12 28
M  V30 33 1 13 29
M  V30 34 1 14 30
M  V30 35 1 16 31
M  V30 36 1 18 32
M  V30 37 1 19 33
M  V30 38 1 21 34
M  V30 39 1 22 35
M  V30 END BOND
M  V30 END CTAB
M  END
>  <Dataset>  (435) 
ChEMBL_Kinases

>  <Ligand_Instance>  (435) 
nan

>  <PDB_ID>  (435) 
nan

>  <Standardized_SMILES>  (435) 
O=C1NC(=O)c2c1c(-c1cc[nH]c1)cc1[nH]c3ccc(O)cc3c21

>  <Name>  (435) 
nan

>  <Pocket>  (435) 
nan

>  <ATP_Site>  (435) 
nan

>  <Peripheral>  (435) 
nan

>  <Num_H_Atoms_ProtBoundConf>  (435) 
nan

>  <Num_Resolved_Atoms>  (435) 
nan

>  <Num_Not_Resolved_Atoms>  (435) 
nan

$$$$
CHEMBL1090089
     RDKit          3D

  0  0  0  0  0  0  0  0  0  0999 V3000
M  V30 BEGIN CTAB
M  V30 COUNTS 49 51 0 0 0
M  V30 BEGIN ATOM
M  V30 1 C 0.169250 -1.591338 -0.749817 0
M  V30 2 N 0.909263 -1.016533 0.353910 0
M  V30 3 C 2.237921 -0.717787 0.267373 0
M  V30 4 O 2.749149 -0.989870 -0.854457 0
M  V30 5 C 2.950442 -0.165167 1.326952 0
M  V30 6 O 4.296124 0.113534 1.174282 0
M  V30 7 C 4.782292 1.005912 0.240330 0
M  V30 8 C 4.162594 1.798441 -0.684729 0
M  V30 9 C 4.875087 2.617219 -1.519469 0
M  V30 10 C 6.254393 2.679103 -1.463797 0
M  V30 11 F 6.813319 3.527151 -2.344118 0
M  V30 12 C 6.904309 1.887936 -0.537339 0
M  V30 13 C 6.169035 1.053939 0.311973 0
M  V30 14 F 6.985655 0.349804 1.158465 0
M  V30 15 C 2.313065 0.101316 2.524484 0
M  V30 16 C 0.975398 -0.216524 2.563581 0
M  V30 17 C 0.235786 0.004229 3.703261 0
M  V30 18 N -1.067536 -0.268826 3.844497 0
M  V30 19 C -1.739929 -0.810676 2.786600 0
M  V30 20 N -3.119647 -1.112113 2.932797 0
M  V30 21 C -4.025662 -1.695648 1.796446 0
M  V30 22 C -4.009276 -0.597695 0.859415 0
M  V30 23 C -4.716661 -0.507282 -0.415144 0
M  V30 24 O -4.361370 -1.392168 -1.385878 0
M  V30 25 C -3.468264 -3.027425 1.693803 0
M  V30 26 C -3.939033 -4.101065 0.807976 0
M  V30 27 O -3.847831 -3.920004 -0.534340 0
M  V30 28 N -1.022891 -1.020658 1.693117 0
M  V30 29 C 0.278689 -0.763065 1.509519 0
M  V30 30 H -0.541258 -2.380238 -0.412301 0
M  V30 31 H 0.855310 -2.062671 -1.493181 0
M  V30 32 H -0.336430 -0.773919 -1.317983 0
M  V30 33 H 3.091489 1.702361 -0.668694 0
M  V30 34 H 4.286251 3.211154 -2.223750 0
M  V30 35 H 7.980318 1.980323 -0.542101 0
M  V30 36 H 2.797420 0.520958 3.370663 0
M  V30 37 H 0.664614 0.434257 4.616490 0
M  V30 38 H -3.544324 -0.919316 3.892490 0
M  V30 39 H -5.012502 -1.730455 2.344817 0
M  V30 40 H -4.327242 0.339870 1.482342 0
M  V30 41 H -2.932390 -0.276268 0.628156 0
M  V30 42 H -5.842538 -0.441680 -0.298121 0
M  V30 43 H -4.472358 0.523006 -0.859464 0
M  V30 44 H -3.522996 -1.083643 -1.828901 0
M  V30 45 H -3.520764 -3.491358 2.762650 0
M  V30 46 H -2.309927 -2.999190 1.607394 0
M  V30 47 H -5.003691 -4.442874 1.097540 0
M  V30 48 H -3.376974 -5.082944 1.017166 0
M  V30 49 H -3.082779 -4.359563 -0.989307 0
M  V30 END ATOM
M  V30 BEGIN BOND
M  V30 1 1 1 2
M  V30 2 1 2 3
M  V30 3 2 3 4
M  V30 4 1 3 5
M  V30 5 1 5 6
M  V30 6 1 6 7
M  V30 7 2 7 8
M  V30 8 1 8 9
M  V30 9 2 9 10
M  V30 10 1 10 11
M  V30 11 1 10 12
M  V30 12 2 12 13
M  V30 13 1 13 14
M  V30 14 2 5 15
M  V30 15 1 15 16
M  V30 16 2 16 17
M  V30 17 1 17 18
M  V30 18 2 18 19
M  V30 19 1 19 20
M  V30 20 1 20 21
M  V30 21 1 21 22
M  V30 22 1 22 23
M  V30 23 1 23 24
M  V30 24 1 21 25
M  V30 25 1 25 26
M  V30 26 1 26 27
M  V30 27 1 19 28
M  V30 28 2 28 29
M  V30 29 1 29 2
M  V30 30 1 13 7
M  V30 31 1 29 16
M  V30 32 1 1 30
M  V30 33 1 1 31
M  V30 34 1 1 32
M  V30 35 1 8 33
M  V30 36 1 9 34
M  V30 37 1 12 35
M  V30 38 1 15 36
M  V30 39 1 17 37
M  V30 40 1 20 38
M  V30 41 1 21 39
M  V30 42 1 22 40
M  V30 43 1 22 41
M  V30 44 1 23 42
M  V30 45 1 23 43
M  V30 46 1 24 44
M  V30 47 1 25 45
M  V30 48 1 25 46
M  V30 49 1 26 47
M  V30 50 1 26 48
M  V30 51 1 27 49
M  V30 END BOND
M  V30 END CTAB
M  END
>  <Dataset>  (436) 
ChEMBL_Kinases

>  <Ligand_Instance>  (436) 
nan

>  <PDB_ID>  (436) 
nan

>  <Standardized_SMILES>  (436) 
Cn1c(=O)c(Oc2ccc(F)cc2F)cc2cnc(NC(CCO)CCO)nc21

>  <Name>  (436) 
PAMAPIMOD

>  <Pocket>  (436) 
nan

>  <ATP_Site>  (436) 
nan

>  <Peripheral>  (436) 
nan

>  <Num_H_Atoms_ProtBoundConf>  (436) 
nan

>  <Num_Resolved_Atoms>  (436) 
nan

>  <Num_Not_Resolved_Atoms>  (436) 
nan

$$$$
CHEMBL1094838
     RDKit          3D

  0  0  0  0  0  0  0  0  0  0999 V3000
M  V30 BEGIN CTAB
M  V30 COUNTS 71 75 0 0 0
M  V30 BEGIN ATOM
M  V30 1 C 5.739120 1.409207 6.331081 0
M  V30 2 C 4.564897 0.589827 6.759061 0
M  V30 3 N 3.279961 1.192083 6.440897 0
M  V30 4 C 2.989575 1.451237 5.073231 0
M  V30 5 O 3.736223 1.212941 4.080995 0
M  V30 6 N 1.735547 2.039996 4.750191 0
M  V30 7 C 1.195064 2.397992 3.486308 0
M  V30 8 C 0.460566 1.425831 2.834637 0
M  V30 9 C -0.107653 1.695299 1.583468 0
M  V30 10 C 0.080745 2.960539 1.007786 0
M  V30 11 C -0.578899 3.036008 -0.278729 0
M  V30 12 N -1.604043 3.833405 -0.701826 0
M  V30 13 N -1.892935 3.562105 -1.961201 0
M  V30 14 C -2.929866 4.199984 -2.772652 0
M  V30 15 C -4.257133 3.457616 -2.651543 0
M  V30 16 C -1.088168 2.582243 -2.442458 0
M  V30 17 C -0.242068 2.234159 -1.380822 0
M  V30 18 C 0.818145 1.234448 -1.347549 0
M  V30 19 C 2.105570 1.700521 -1.142459 0
M  V30 20 C 3.135885 0.782001 -1.099277 0
M  V30 21 N 2.916702 -0.546820 -1.251050 0
M  V30 22 C 1.675207 -1.030921 -1.452062 0
M  V30 23 N 1.188215 -2.272573 -1.628541 0
M  V30 24 C -0.144935 -2.161236 -1.785276 0
M  V30 25 C -1.015111 -3.319454 -2.000787 0
M  V30 26 C -0.452179 -4.579465 -2.035970 0
M  V30 27 C -1.210317 -5.716963 -2.238137 0
M  V30 28 C -2.593731 -5.585288 -2.412982 0
M  V30 29 C -3.345979 -6.850312 -2.625802 0
M  V30 30 N -3.775587 -7.350228 -1.336467 0
M  V30 31 C -4.636582 -6.435306 -0.646416 0
M  V30 32 C -2.680768 -7.819571 -0.528633 0
M  V30 33 C -3.160856 -4.325959 -2.378510 0
M  V30 34 C -2.379897 -3.191600 -2.173246 0
M  V30 35 C -0.530045 -0.837244 -1.710257 0
M  V30 36 C 0.635664 -0.127775 -1.497978 0
M  V30 37 C 0.819370 3.909287 1.684349 0
M  V30 38 C 1.379821 3.642576 2.919111 0
M  V30 39 H 6.047737 2.053814 7.199036 0
M  V30 40 H 6.618976 0.754340 6.139309 0
M  V30 41 H 5.456505 2.007419 5.452341 0
M  V30 42 H 4.610280 -0.462309 6.353542 0
M  V30 43 H 4.606172 0.453991 7.858531 0
M  V30 44 H 2.585007 1.432719 7.174347 0
M  V30 45 H 1.004863 2.299088 5.469559 0
M  V30 46 H 0.319814 0.437323 3.296120 0
M  V30 47 H -0.668992 0.861129 1.151153 0
M  V30 48 H -2.643841 4.167041 -3.836806 0
M  V30 49 H -3.055113 5.279363 -2.508227 0
M  V30 50 H -4.577274 3.374776 -1.613959 0
M  V30 51 H -4.057653 2.456138 -3.123297 0
M  V30 52 H -4.958748 3.983477 -3.320501 0
M  V30 53 H -1.063760 2.131397 -3.426038 0
M  V30 54 H 2.381297 2.751130 -1.009771 0
M  V30 55 H 4.163947 1.057021 -0.944638 0
M  V30 56 H 1.828825 -3.106512 -1.625545 0
M  V30 57 H 0.626641 -4.729929 -1.903767 0
M  V30 58 H -0.713913 -6.691967 -2.256396 0
M  V30 59 H -2.774119 -7.581577 -3.194890 0
M  V30 60 H -4.230335 -6.587335 -3.233187 0
M  V30 61 H -5.228097 -6.885732 0.150108 0
M  V30 62 H -4.031823 -5.548373 -0.327301 0
M  V30 63 H -5.364365 -6.057821 -1.413599 0
M  V30 64 H -2.119279 -8.635330 -0.978899 0
M  V30 65 H -3.141382 -8.118414 0.453928 0
M  V30 66 H -2.038084 -6.952059 -0.274043 0
M  V30 67 H -4.233394 -4.252684 -2.517004 0
M  V30 68 H -2.847529 -2.215112 -2.150170 0
M  V30 69 H -1.534024 -0.441619 -1.798813 0
M  V30 70 H 0.898358 4.843965 1.148013 0
M  V30 71 H 1.941050 4.394622 3.409980 0
M  V30 END ATOM
M  V30 BEGIN BOND
M  V30 1 1 1 2
M  V30 2 1 2 3
M  V30 3 1 3 4
M  V30 4 2 4 5
M  V30 5 1 4 6
M  V30 6 1 6 7
M  V30 7 2 7 8
M  V30 8 1 8 9
M  V30 9 2 9 10
M  V30 10 1 10 11
M  V30 11 2 11 12
M  V30 12 1 12 13
M  V30 13 1 13 14
M  V30 14 1 14 15
M  V30 15 1 13 16
M  V30 16 2 16 17
M  V30 17 1 17 18
M  V30 18 2 18 19
M  V30 19 1 19 20
M  V30 20 2 20 21
M  V30 21 1 21 22
M  V30 22 1 22 23
M  V30 23 1 23 24
M  V30 24 1 24 25
M  V30 25 2 25 26
M  V30 26 1 26 27
M  V30 27 2 27 28
M  V30 28 1 28 29
M  V30 29 1 29 30
M  V30 30 1 30 31
M  V30 31 1 30 32
M  V30 32 1 28 33
M  V30 33 2 33 34
M  V30 34 2 24 35
M  V30 35 1 35 36
M  V30 36 1 10 37
M  V30 37 2 37 38
M  V30 38 1 38 7
M  V30 39 1 17 11
M  V30 40 1 36 18
M  V30 41 2 36 22
M  V30 42 1 34 25
M  V30 43 1 1 39
M  V30 44 1 1 40
M  V30 45 1 1 41
M  V30 46 1 2 42
M  V30 47 1 2 43
M  V30 48 1 3 44
M  V30 49 1 6 45
M  V30 50 1 8 46
M  V30 51 1 9 47
M  V30 52 1 14 48
M  V30 53 1 14 49
M  V30 54 1 15 50
M  V30 55 1 15 51
M  V30 56 1 15 52
M  V30 57 1 16 53
M  V30 58 1 19 54
M  V30 59 1 20 55
M  V30 60 1 23 56
M  V30 61 1 26 57
M  V30 62 1 27 58
M  V30 63 1 29 59
M  V30 64 1 29 60
M  V30 65 1 31 61
M  V30 66 1 31 62
M  V30 67 1 31 63
M  V30 68 1 32 64
M  V30 69 1 32 65
M  V30 70 1 32 66
M  V30 71 1 33 67
M  V30 72 1 34 68
M  V30 73 1 35 69
M  V30 74 1 37 70
M  V30 75 1 38 71
M  V30 END BOND
M  V30 END CTAB
M  END
>  <Dataset>  (437) 
ChEMBL_Kinases

>  <Ligand_Instance>  (437) 
nan

>  <PDB_ID>  (437) 
nan

>  <Standardized_SMILES>  (437) 
CCNC(=O)Nc1ccc(-c2nn(CC)cc2-c2ccnc3[nH]c(-c4ccc(CN(C)C)cc4)cc23)cc1

>  <Name>  (437) 
nan

>  <Pocket>  (437) 
nan

>  <ATP_Site>  (437) 
nan

>  <Peripheral>  (437) 
nan

>  <Num_H_Atoms_ProtBoundConf>  (437) 
nan

>  <Num_Resolved_Atoms>  (437) 
nan

>  <Num_Not_Resolved_Atoms>  (437) 
nan

$$$$
CHEMBL1099345
     RDKit          3D

  0  0  0  0  0  0  0  0  0  0999 V3000
M  V30 BEGIN CTAB
M  V30 COUNTS 75 80 0 0 0
M  V30 BEGIN ATOM
M  V30 1 C 4.583900 -6.525024 0.006244 0
M  V30 2 C 4.787939 -6.082918 1.456986 0
M  V30 3 N 4.255864 -4.735670 1.569861 0
M  V30 4 C 4.780340 -3.515296 1.404127 0
M  V30 5 C 3.875838 -2.501819 1.627863 0
M  V30 6 C 4.334861 -1.140371 1.501968 0
M  V30 7 C 5.418847 -0.806078 2.337122 0
M  V30 8 C 6.047114 0.425768 2.380754 0
M  V30 9 N 5.578120 1.376156 1.556272 0
M  V30 10 C 4.545325 1.118449 0.736709 0
M  V30 11 N 3.858730 1.831223 -0.182202 0
M  V30 12 C 2.879470 1.124259 -0.758251 0
M  V30 13 C 1.990436 1.633435 -1.793325 0
M  V30 14 C 2.266259 2.914695 -2.276500 0
M  V30 15 C 1.503615 3.515704 -3.227966 0
M  V30 16 C 0.427343 2.843235 -3.731476 0
M  V30 17 C 0.170255 1.574412 -3.238255 0
M  V30 18 C -1.031053 0.816344 -3.751836 0
M  V30 19 N -2.148520 1.186965 -2.872993 0
M  V30 20 C -3.370379 0.502558 -3.283418 0
M  V30 21 C -2.414316 2.595024 -2.895995 0
M  V30 22 C 0.916702 0.917676 -2.271648 0
M  V30 23 C 2.868139 -0.169487 -0.221587 0
M  V30 24 C 3.918585 -0.106308 0.691120 0
M  V30 25 C 2.731818 -3.169803 1.947487 0
M  V30 26 C 1.437013 -2.597973 2.263348 0
M  V30 27 C 0.416715 -3.226765 1.527950 0
M  V30 28 C -0.912969 -2.822566 1.710269 0
M  V30 29 C -1.198803 -1.797450 2.623671 0
M  V30 30 N -2.597445 -1.554016 2.706247 0
M  V30 31 C -3.628428 -0.863164 2.039681 0
M  V30 32 O -3.351014 -0.217432 1.016690 0
M  V30 33 N -4.894471 -1.009831 2.658941 0
M  V30 34 C -6.071181 -0.426703 2.132533 0
M  V30 35 C -7.252872 -0.542885 2.846807 0
M  V30 36 C -8.437092 -0.014920 2.389679 0
M  V30 37 C -8.510204 0.665187 1.185023 0
M  V30 38 C -7.371181 0.808283 0.438037 0
M  V30 39 C -6.208587 0.255495 0.943775 0
M  V30 40 C -0.177320 -1.194255 3.331185 0
M  V30 41 C 1.129304 -1.594861 3.150420 0
M  V30 42 N 2.999029 -4.514858 1.903572 0
M  V30 43 H 4.499404 -7.606167 -0.103431 0
M  V30 44 H 3.677086 -6.063205 -0.437169 0
M  V30 45 H 5.438293 -6.192438 -0.627803 0
M  V30 46 H 5.877559 -6.035835 1.607926 0
M  V30 47 H 4.277785 -6.797491 2.129254 0
M  V30 48 H 5.836919 -3.489335 1.117932 0
M  V30 49 H 5.841062 -1.535509 3.030390 0
M  V30 50 H 6.873488 0.612492 3.048362 0
M  V30 51 H 4.153268 2.843254 -0.342466 0
M  V30 52 H 3.106330 3.530940 -1.934977 0
M  V30 53 H 1.687874 4.494584 -3.618556 0
M  V30 54 H -0.208217 3.281652 -4.484405 0
M  V30 55 H -0.871199 -0.270298 -3.758024 0
M  V30 56 H -1.266861 1.247984 -4.741037 0
M  V30 57 H -4.170935 0.639988 -2.541525 0
M  V30 58 H -3.106773 -0.538090 -3.504059 0
M  V30 59 H -3.700321 0.994806 -4.234252 0
M  V30 60 H -1.626140 3.222397 -2.441469 0
M  V30 61 H -3.328681 2.755753 -2.265081 0
M  V30 62 H -2.637422 3.000258 -3.903133 0
M  V30 63 H 0.688976 -0.067543 -1.909588 0
M  V30 64 H 2.238289 -1.000248 -0.436595 0
M  V30 65 H 0.584863 -4.039081 0.798810 0
M  V30 66 H -1.676697 -3.342294 1.112543 0
M  V30 67 H -2.732882 -2.137014 3.585323 0
M  V30 68 H -5.028036 -1.564047 3.549284 0
M  V30 69 H -7.282154 -1.059798 3.798601 0
M  V30 70 H -9.314617 -0.144838 3.005214 0
M  V30 71 H -9.496491 1.042908 0.932399 0
M  V30 72 H -7.427878 1.334053 -0.499149 0
M  V30 73 H -5.361748 0.406196 0.313111 0
M  V30 74 H -0.470462 -0.425452 4.009710 0
M  V30 75 H 1.936708 -1.154116 3.665815 0
M  V30 END ATOM
M  V30 BEGIN BOND
M  V30 1 1 1 2
M  V30 2 1 2 3
M  V30 3 1 3 4
M  V30 4 2 4 5
M  V30 5 1 5 6
M  V30 6 2 6 7
M  V30 7 1 7 8
M  V30 8 2 8 9
M  V30 9 1 9 10
M  V30 10 1 10 11
M  V30 11 1 11 12
M  V30 12 1 12 13
M  V30 13 2 13 14
M  V30 14 1 14 15
M  V30 15 2 15 16
M  V30 16 1 16 17
M  V30 17 1 17 18
M  V30 18 1 18 19
M  V30 19 1 19 20
M  V30 20 1 19 21
M  V30 21 2 17 22
M  V30 22 2 12 23
M  V30 23 1 23 24
M  V30 24 1 5 25
M  V30 25 1 25 26
M  V30 26 2 26 27
M  V30 27 1 27 28
M  V30 28 2 28 29
M  V30 29 1 29 30
M  V30 30 1 30 31
M  V30 31 2 31 32
M  V30 32 1 31 33
M  V30 33 1 33 34
M  V30 34 2 34 35
M  V30 35 1 35 36
M  V30 36 2 36 37
M  V30 37 1 37 38
M  V30 38 2 38 39
M  V30 39 1 29 40
M  V30 40 2 40 41
M  V30 41 2 25 42
M  V30 42 1 42 3
M  V30 43 1 24 6
M  V30 44 1 41 26
M  V30 45 2 24 10
M  V30 46 1 39 34
M  V30 47 1 22 13
M  V30 48 1 1 43
M  V30 49 1 1 44
M  V30 50 1 1 45
M  V30 51 1 2 46
M  V30 52 1 2 47
M  V30 53 1 4 48
M  V30 54 1 7 49
M  V30 55 1 8 50
M  V30 56 1 11 51
M  V30 57 1 14 52
M  V30 58 1 15 53
M  V30 59 1 16 54
M  V30 60 1 18 55
M  V30 61 1 18 56
M  V30 62 1 20 57
M  V30 63 1 20 58
M  V30 64 1 20 59
M  V30 65 1 21 60
M  V30 66 1 21 61
M  V30 67 1 21 62
M  V30 68 1 22 63
M  V30 69 1 23 64
M  V30 70 1 27 65
M  V30 71 1 28 66
M  V30 72 1 30 67
M  V30 73 1 33 68
M  V30 74 1 35 69
M  V30 75 1 36 70
M  V30 76 1 37 71
M  V30 77 1 38 72
M  V30 78 1 39 73
M  V30 79 1 40 74
M  V30 80 1 41 75
M  V30 END BOND
M  V30 END CTAB
M  END
>  <Dataset>  (438) 
ChEMBL_Kinases

>  <Ligand_Instance>  (438) 
nan

>  <PDB_ID>  (438) 
nan

>  <Standardized_SMILES>  (438) 
CCn1cc(-c2ccnc3[nH]c(-c4cccc(CN(C)C)c4)cc23)c(-c2ccc(NC(=O)Nc3ccccc3)cc2)n1

>  <Name>  (438) 
nan

>  <Pocket>  (438) 
nan

>  <ATP_Site>  (438) 
nan

>  <Peripheral>  (438) 
nan

>  <Num_H_Atoms_ProtBoundConf>  (438) 
nan

>  <Num_Resolved_Atoms>  (438) 
nan

>  <Num_Not_Resolved_Atoms>  (438) 
nan

$$$$
CHEMBL4639886
     RDKit          3D

  0  0  0  0  0  0  0  0  0  0999 V3000
M  V30 BEGIN CTAB
M  V30 COUNTS 48 52 0 0 0
M  V30 BEGIN ATOM
M  V30 1 C 2.079338 -6.522171 -0.137436 0
M  V30 2 O 2.655185 -6.071209 -1.351662 0
M  V30 3 C 3.214040 -4.823667 -1.468168 0
M  V30 4 C 3.761480 -4.434843 -2.674798 0
M  V30 5 C 4.318424 -3.188438 -2.787136 0
M  V30 6 C 4.312643 -2.357606 -1.679906 0
M  V30 7 C 3.774796 -2.698038 -0.439978 0
M  V30 8 C 3.818461 -1.736312 0.683851 0
M  V30 9 N 2.666506 -0.874353 0.747461 0
M  V30 10 C 2.582788 0.317109 0.126341 0
M  V30 11 C 1.486738 1.156787 0.175816 0
M  V30 12 C 0.390088 0.748766 0.917213 0
M  V30 13 C -0.730709 1.564056 0.991516 0
M  V30 14 C -1.826665 1.146094 1.737685 0
M  V30 15 C -3.067841 1.927514 1.887525 0
M  V30 16 C -4.254874 1.240468 2.047529 0
M  V30 17 C -5.486649 1.843731 2.198512 0
M  V30 18 C -5.532995 3.224241 2.188658 0
M  V30 19 N -6.546651 4.129333 2.308216 0
M  V30 20 N -6.018580 5.355374 2.226561 0
M  V30 21 C -4.691896 5.292009 2.057255 0
M  V30 22 C -4.361733 3.936188 2.030363 0
M  V30 23 C -3.121676 3.309560 1.878581 0
M  V30 24 C -1.762989 -0.072662 2.383398 0
M  V30 25 C -0.654293 -0.896473 2.319555 0
M  V30 26 C 0.431673 -0.466831 1.571496 0
M  V30 27 C 1.568241 -1.247847 1.470479 0
M  V30 28 O 1.539158 -2.348175 2.094101 0
M  V30 29 C 3.223598 -3.972752 -0.382776 0
M  V30 30 H 1.424786 -5.739521 0.297098 0
M  V30 31 H 1.468438 -7.421704 -0.293592 0
M  V30 32 H 2.908412 -6.688168 0.577251 0
M  V30 33 H 3.742205 -5.119078 -3.511718 0
M  V30 34 H 4.751767 -2.864758 -3.721392 0
M  V30 35 H 4.761232 -1.360181 -1.778587 0
M  V30 36 H 3.875832 -2.313514 1.636630 0
M  V30 37 H 4.733418 -1.124287 0.549101 0
M  V30 38 H 3.431547 0.650428 -0.457156 0
M  V30 39 H 1.469876 2.105242 -0.342049 0
M  V30 40 H -0.799534 2.523619 0.491982 0
M  V30 41 H -4.279290 0.151682 2.063190 0
M  V30 42 H -6.417864 1.335338 2.323848 0
M  V30 43 H -7.556322 3.878339 2.440443 0
M  V30 44 H -3.958526 6.083839 1.954406 0
M  V30 45 H -2.192371 3.848899 1.753304 0
M  V30 46 H -2.571426 -0.476833 2.986973 0
M  V30 47 H -0.614121 -1.858327 2.833754 0
M  V30 48 H 2.800357 -4.258081 0.570987 0
M  V30 END ATOM
M  V30 BEGIN BOND
M  V30 1 1 1 2
M  V30 2 1 2 3
M  V30 3 2 3 4
M  V30 4 1 4 5
M  V30 5 2 5 6
M  V30 6 1 6 7
M  V30 7 1 7 8
M  V30 8 1 8 9
M  V30 9 1 9 10
M  V30 10 2 10 11
M  V30 11 1 11 12
M  V30 12 2 12 13
M  V30 13 1 13 14
M  V30 14 1 14 15
M  V30 15 2 15 16
M  V30 16 1 16 17
M  V30 17 2 17 18
M  V30 18 1 18 19
M  V30 19 1 19 20
M  V30 20 2 20 21
M  V30 21 1 21 22
M  V30 22 2 22 23
M  V30 23 2 14 24
M  V30 24 1 24 25
M  V30 25 2 25 26
M  V30 26 1 26 27
M  V30 27 2 27 28
M  V30 28 2 7 29
M  V30 29 1 29 3
M  V30 30 1 27 9
M  V30 31 1 26 12
M  V30 32 1 23 15
M  V30 33 1 22 18
M  V30 34 1 1 30
M  V30 35 1 1 31
M  V30 36 1 1 32
M  V30 37 1 4 33
M  V30 38 1 5 34
M  V30 39 1 6 35
M  V30 40 1 8 36
M  V30 41 1 8 37
M  V30 42 1 10 38
M  V30 43 1 11 39
M  V30 44 1 13 40
M  V30 45 1 16 41
M  V30 46 1 17 42
M  V30 47 1 19 43
M  V30 48 1 21 44
M  V30 49 1 23 45
M  V30 50 1 24 46
M  V30 51 1 25 47
M  V30 52 1 29 48
M  V30 END BOND
M  V30 END CTAB
M  END
>  <Dataset>  (439) 
ChEMBL_Kinases

>  <Ligand_Instance>  (439) 
nan

>  <PDB_ID>  (439) 
nan

>  <Standardized_SMILES>  (439) 
COc1cccc(Cn2ccc3cc(-c4ccc5[nH]ncc5c4)ccc3c2=O)c1

>  <Name>  (439) 
nan

>  <Pocket>  (439) 
nan

>  <ATP_Site>  (439) 
nan

>  <Peripheral>  (439) 
nan

>  <Num_H_Atoms_ProtBoundConf>  (439) 
nan

>  <Num_Resolved_Atoms>  (439) 
nan

>  <Num_Not_Resolved_Atoms>  (439) 
nan

$$$$
CHEMBL4644045
     RDKit          3D

  0  0  0  0  0  0  0  0  0  0999 V3000
M  V30 BEGIN CTAB
M  V30 COUNTS 57 61 0 0 0
M  V30 BEGIN ATOM
M  V30 1 C 1.481631 -1.903333 5.719300 0
M  V30 2 C 2.301870 -1.934806 4.473930 0
M  V30 3 C 3.483166 -2.636248 4.380315 0
M  V30 4 C 4.252125 -2.675526 3.235486 0
M  V30 5 C 3.745869 -1.958870 2.194219 0
M  V30 6 C 2.541503 -1.247887 2.298658 0
M  V30 7 C 2.183870 -0.534984 1.109334 0
M  V30 8 N 2.542824 0.765055 1.013701 0
M  V30 9 N 2.151898 1.250098 -0.135527 0
M  V30 10 C 2.284877 2.597629 -0.721703 0
M  V30 11 C 1.042819 3.325200 -0.198346 0
M  V30 12 S 0.465459 4.837321 0.037680 0
M  V30 13 N -0.190295 2.977811 0.345259 0
M  V30 14 C -1.443404 2.671990 0.895852 0
M  V30 15 C -1.563790 2.442305 2.249893 0
M  V30 16 C -2.756083 2.147367 2.825506 0
M  V30 17 C -3.812319 2.106118 1.935890 0
M  V30 18 C -3.747349 2.327387 0.586949 0
M  V30 19 F -4.845710 2.262228 -0.225479 0
M  V30 20 C -2.536456 2.618660 0.029303 0
M  V30 21 C 1.525975 0.239391 -0.801794 0
M  V30 22 C 1.541241 -0.902849 -0.016388 0
M  V30 23 C 0.911787 -2.151679 -0.374874 0
M  V30 24 C 1.250221 -3.443709 -0.036717 0
M  V30 25 C 0.562715 -4.508468 -0.534369 0
M  V30 26 N -0.494179 -4.376616 -1.391867 0
M  V30 27 C -0.885101 -3.147996 -1.775381 0
M  V30 28 C -1.982070 -3.009725 -2.717509 0
M  V30 29 C -2.553004 -4.186957 -3.157937 0
M  V30 30 C -3.600266 -4.239010 -4.091342 0
M  V30 31 C -3.985454 -2.961556 -4.508958 0
M  V30 32 C -3.458220 -1.778406 -4.106033 0
M  V30 33 C -2.420658 -1.795560 -3.177595 0
M  V30 34 C -0.180619 -2.083736 -1.260261 0
M  V30 35 N 1.819932 -1.237890 3.438390 0
M  V30 36 H 0.390891 -1.881029 5.470974 0
M  V30 37 H 1.667467 -2.874357 6.268827 0
M  V30 38 H 1.785021 -1.104592 6.420592 0
M  V30 39 H 3.850508 -3.198134 5.257555 0
M  V30 40 H 5.170872 -3.224503 3.181117 0
M  V30 41 H 4.340075 -1.975016 1.270734 0
M  V30 42 H 2.194664 2.556118 -1.815115 0
M  V30 43 H 3.165916 3.106759 -0.367018 0
M  V30 44 H 0.083118 1.936685 0.260505 0
M  V30 45 H -0.687602 2.496285 2.875852 0
M  V30 46 H -2.931106 1.949581 3.875948 0
M  V30 47 H -4.799357 1.875322 2.290016 0
M  V30 48 H -2.375211 2.814303 -1.015915 0
M  V30 49 H 1.076258 0.287672 -1.782349 0
M  V30 50 H 2.064113 -3.571218 0.624423 0
M  V30 51 H 0.861087 -5.515308 -0.232351 0
M  V30 52 H -2.249659 -5.191601 -2.826154 0
M  V30 53 H -4.079574 -5.114860 -4.467260 0
M  V30 54 H -4.800440 -2.964746 -5.242060 0
M  V30 55 H -3.802232 -0.814841 -4.470955 0
M  V30 56 H -2.004460 -0.863967 -2.853724 0
M  V30 57 H -0.493146 -1.095054 -1.570137 0
M  V30 END ATOM
M  V30 BEGIN BOND
M  V30 1 1 1 2
M  V30 2 2 2 3
M  V30 3 1 3 4
M  V30 4 2 4 5
M  V30 5 1 5 6
M  V30 6 1 6 7
M  V30 7 2 7 8
M  V30 8 1 8 9
M  V30 9 1 9 10
M  V30 10 1 10 11
M  V30 11 2 11 12
M  V30 12 1 11 13
M  V30 13 1 13 14
M  V30 14 2 14 15
M  V30 15 1 15 16
M  V30 16 2 16 17
M  V30 17 1 17 18
M  V30 18 1 18 19
M  V30 19 2 18 20
M  V30 20 1 9 21
M  V30 21 2 21 22
M  V30 22 1 22 23
M  V30 23 2 23 24
M  V30 24 1 24 25
M  V30 25 2 25 26
M  V30 26 1 26 27
M  V30 27 1 27 28
M  V30 28 2 28 29
M  V30 29 1 29 30
M  V30 30 2 30 31
M  V30 31 1 31 32
M  V30 32 2 32 33
M  V30 33 2 27 34
M  V30 34 2 6 35
M  V30 35 1 35 2
M  V30 36 1 22 7
M  V30 37 1 34 23
M  V30 38 1 20 14
M  V30 39 1 33 28
M  V30 40 1 1 36
M  V30 41 1 1 37
M  V30 42 1 1 38
M  V30 43 1 3 39
M  V30 44 1 4 40
M  V30 45 1 5 41
M  V30 46 1 10 42
M  V30 47 1 10 43
M  V30 48 1 13 44
M  V30 49 1 15 45
M  V30 50 1 16 46
M  V30 51 1 17 47
M  V30 52 1 20 48
M  V30 53 1 21 49
M  V30 54 1 24 50
M  V30 55 1 25 51
M  V30 56 1 29 52
M  V30 57 1 30 53
M  V30 58 1 31 54
M  V30 59 1 32 55
M  V30 60 1 33 56
M  V30 61 1 34 57
M  V30 END BOND
M  V30 END CTAB
M  END
>  <Dataset>  (440) 
ChEMBL_Kinases

>  <Ligand_Instance>  (440) 
nan

>  <PDB_ID>  (440) 
nan

>  <Standardized_SMILES>  (440) 
Cc1cccc(-c2nn(CC(=S)Nc3cccc(F)c3)cc2-c2ccnc(-c3ccccc3)c2)n1

>  <Name>  (440) 
nan

>  <Pocket>  (440) 
nan

>  <ATP_Site>  (440) 
nan

>  <Peripheral>  (440) 
nan

>  <Num_H_Atoms_ProtBoundConf>  (440) 
nan

>  <Num_Resolved_Atoms>  (440) 
nan

>  <Num_Not_Resolved_Atoms>  (440) 
nan

$$$$
CHEMBL213650
     RDKit          3D

  0  0  0  0  0  0  0  0  0  0999 V3000
M  V30 BEGIN CTAB
M  V30 COUNTS 32 35 0 0 0
M  V30 BEGIN ATOM
M  V30 1 O -1.397279 0.884174 2.951764 0
M  V30 2 N -1.712808 0.321552 1.886721 0
M  V30 3 C -1.177884 -0.892780 1.466888 0
M  V30 4 C -0.017708 -1.045373 0.770448 0
M  V30 5 C 1.045642 -0.244745 0.227995 0
M  V30 6 C 2.282017 -0.727855 -0.149334 0
M  V30 7 O 2.819065 -2.022634 -0.087544 0
M  V30 8 N 3.064745 0.238782 -0.652436 0
M  V30 9 C 2.395750 1.402527 -0.637040 0
M  V30 10 C 2.727305 2.676697 -1.045352 0
M  V30 11 Cl 4.319532 2.983152 -1.718677 0
M  V30 12 C 1.816172 3.704459 -0.926550 0
M  V30 13 C 0.577564 3.417232 -0.392495 0
M  V30 14 C 0.299523 2.130009 -0.001089 0
M  V30 15 C 1.171213 1.077063 -0.097273 0
M  V30 16 N 0.051427 -2.393733 0.663120 0
M  V30 17 C -0.968762 -3.040303 1.235450 0
M  V30 18 C -1.360321 -4.356335 1.400672 0
M  V30 19 C -2.520915 -4.674935 2.071427 0
M  V30 20 C -3.354874 -3.723095 2.613067 0
M  V30 21 C -2.954113 -2.417058 2.441845 0
M  V30 22 C -1.796406 -2.081876 1.773606 0
M  V30 23 H 3.634742 -2.158350 0.478203 0
M  V30 24 H 4.041386 0.181365 -1.016020 0
M  V30 25 H 2.065265 4.707713 -1.243077 0
M  V30 26 H -0.124818 4.241112 -0.308765 0
M  V30 27 H -0.685041 2.004725 0.376789 0
M  V30 28 H 0.770476 -3.018718 0.201931 0
M  V30 29 H -0.741207 -5.134320 0.994461 0
M  V30 30 H -2.768937 -5.722304 2.165288 0
M  V30 31 H -4.239711 -4.036223 3.120931 0
M  V30 32 H -3.563155 -1.624227 2.842422 0
M  V30 END ATOM
M  V30 BEGIN BOND
M  V30 1 2 1 2
M  V30 2 1 2 3
M  V30 3 2 3 4
M  V30 4 1 4 5
M  V30 5 2 5 6
M  V30 6 1 6 7
M  V30 7 1 6 8
M  V30 8 1 8 9
M  V30 9 2 9 10
M  V30 10 1 10 11
M  V30 11 1 10 12
M  V30 12 2 12 13
M  V30 13 1 13 14
M  V30 14 2 14 15
M  V30 15 1 4 16
M  V30 16 1 16 17
M  V30 17 2 17 18
M  V30 18 1 18 19
M  V30 19 2 19 20
M  V30 20 1 20 21
M  V30 21 2 21 22
M  V30 22 1 22 3
M  V30 23 1 15 5
M  V30 24 1 22 17
M  V30 25 1 15 9
M  V30 26 1 7 23
M  V30 27 1 8 24
M  V30 28 1 12 25
M  V30 29 1 13 26
M  V30 30 1 14 27
M  V30 31 1 16 28
M  V30 32 1 18 29
M  V30 33 1 19 30
M  V30 34 1 20 31
M  V30 35 1 21 32
M  V30 END BOND
M  V30 END CTAB
M  END
>  <Dataset>  (441) 
ChEMBL_Kinases

>  <Ligand_Instance>  (441) 
nan

>  <PDB_ID>  (441) 
nan

>  <Standardized_SMILES>  (441) 
O=Nc1c(-c2c(O)[nH]c3c(Cl)cccc23)[nH]c2ccccc12

>  <Name>  (441) 
nan

>  <Pocket>  (441) 
nan

>  <ATP_Site>  (441) 
nan

>  <Peripheral>  (441) 
nan

>  <Num_H_Atoms_ProtBoundConf>  (441) 
nan

>  <Num_Resolved_Atoms>  (441) 
nan

>  <Num_Not_Resolved_Atoms>  (441) 
nan

$$$$
CHEMBL1095498
     RDKit          3D

  0  0  0  0  0  0  0  0  0  0999 V3000
M  V30 BEGIN CTAB
M  V30 COUNTS 60 64 0 0 0
M  V30 BEGIN ATOM
M  V30 1 C 4.916065 1.808898 3.137710 0
M  V30 2 C 3.947462 0.645248 3.190090 0
M  V30 3 C 3.540424 0.494360 4.658337 0
M  V30 4 C 4.673266 -0.612276 2.790802 0
M  V30 5 N 2.798831 0.933542 2.361701 0
M  V30 6 C 2.481290 2.145459 1.867311 0
M  V30 7 C 1.321642 2.001664 1.132854 0
M  V30 8 C 0.503865 2.938884 0.370874 0
M  V30 9 C 1.098063 3.581580 -0.706022 0
M  V30 10 C 0.263138 4.460039 -1.386959 0
M  V30 11 N -1.039164 4.732798 -1.097676 0
M  V30 12 C -1.547055 4.059325 -0.024337 0
M  V30 13 N -2.802587 4.116035 0.509176 0
M  V30 14 C -2.895284 3.286304 1.575993 0
M  V30 15 C -1.645088 2.680371 1.721502 0
M  V30 16 C -0.808548 3.161354 0.727053 0
M  V30 17 C 0.963416 0.671365 1.207346 0
M  V30 18 C -0.134032 -0.129310 0.668989 0
M  V30 19 C -0.169080 -0.170622 -0.720448 0
M  V30 20 C -1.144151 -0.884266 -1.389367 0
M  V30 21 C -2.094727 -1.564021 -0.649793 0
M  V30 22 N -3.151735 -2.335400 -1.267642 0
M  V30 23 C -2.748433 -3.703053 -1.484455 0
M  V30 24 O -1.583187 -4.100337 -1.143119 0
M  V30 25 N -3.579221 -4.685173 -2.072356 0
M  V30 26 C -3.105568 -6.027702 -2.255615 0
M  V30 27 C -3.306605 -6.948008 -1.246183 0
M  V30 28 C -2.839786 -8.250526 -1.440479 0
M  V30 29 C -2.199123 -8.598465 -2.606772 0
M  V30 30 C -1.994052 -7.689091 -3.617944 0
M  V30 31 C -2.458454 -6.382820 -3.431296 0
M  V30 32 C -2.073957 -1.533082 0.741236 0
M  V30 33 C -1.090870 -0.813829 1.393973 0
M  V30 34 N 1.887291 0.046594 1.965681 0
M  V30 35 H 4.386951 2.699980 3.532172 0
M  V30 36 H 5.372289 1.974853 2.155459 0
M  V30 37 H 5.747664 1.527363 3.846411 0
M  V30 38 H 3.415234 1.484232 5.156370 0
M  V30 39 H 4.331207 -0.109162 5.143803 0
M  V30 40 H 2.589886 -0.107835 4.740667 0
M  V30 41 H 5.113686 -1.078730 3.706651 0
M  V30 42 H 5.532968 -0.414124 2.105094 0
M  V30 43 H 3.997810 -1.377585 2.322508 0
M  V30 44 H 2.974883 3.098881 1.971015 0
M  V30 45 H 2.106518 3.453399 -1.033096 0
M  V30 46 H 0.673633 4.988210 -2.234822 0
M  V30 47 H -3.637279 4.678550 0.217269 0
M  V30 48 H -3.746400 3.106953 2.205918 0
M  V30 49 H -1.317840 1.944108 2.470926 0
M  V30 50 H 0.524746 0.324363 -1.407141 0
M  V30 51 H -1.249021 -0.972630 -2.461941 0
M  V30 52 H -4.119200 -2.082800 -1.571790 0
M  V30 53 H -4.539551 -4.359332 -2.353717 0
M  V30 54 H -3.810238 -6.692865 -0.318831 0
M  V30 55 H -2.969644 -9.022472 -0.677539 0
M  V30 56 H -1.809004 -9.594291 -2.827038 0
M  V30 57 H -1.514894 -7.814757 -4.573984 0
M  V30 58 H -2.342793 -5.592330 -4.174391 0
M  V30 59 H -2.786250 -2.040958 1.385251 0
M  V30 60 H -0.952734 -0.701821 2.459480 0
M  V30 END ATOM
M  V30 BEGIN BOND
M  V30 1 1 1 2
M  V30 2 1 2 3
M  V30 3 1 2 4
M  V30 4 1 2 5
M  V30 5 1 5 6
M  V30 6 2 6 7
M  V30 7 1 7 8
M  V30 8 2 8 9
M  V30 9 1 9 10
M  V30 10 2 10 11
M  V30 11 1 11 12
M  V30 12 1 12 13
M  V30 13 1 13 14
M  V30 14 2 14 15
M  V30 15 1 15 16
M  V30 16 1 7 17
M  V30 17 1 17 18
M  V30 18 2 18 19
M  V30 19 1 19 20
M  V30 20 2 20 21
M  V30 21 1 21 22
M  V30 22 1 22 23
M  V30 23 2 23 24
M  V30 24 1 23 25
M  V30 25 1 25 26
M  V30 26 2 26 27
M  V30 27 1 27 28
M  V30 28 2 28 29
M  V30 29 1 29 30
M  V30 30 2 30 31
M  V30 31 1 21 32
M  V30 32 2 32 33
M  V30 33 2 17 34
M  V30 34 1 34 5
M  V30 35 1 16 8
M  V30 36 1 33 18
M  V30 37 2 16 12
M  V30 38 1 31 26
M  V30 39 1 1 35
M  V30 40 1 1 36
M  V30 41 1 1 37
M  V30 42 1 3 38
M  V30 43 1 3 39
M  V30 44 1 3 40
M  V30 45 1 4 41
M  V30 46 1 4 42
M  V30 47 1 4 43
M  V30 48 1 6 44
M  V30 49 1 9 45
M  V30 50 1 10 46
M  V30 51 1 13 47
M  V30 52 1 14 48
M  V30 53 1 15 49
M  V30 54 1 19 50
M  V30 55 1 20 51
M  V30 56 1 22 52
M  V30 57 1 25 53
M  V30 58 1 27 54
M  V30 59 1 28 55
M  V30 60 1 29 56
M  V30 61 1 30 57
M  V30 62 1 31 58
M  V30 63 1 32 59
M  V30 64 1 33 60
M  V30 END BOND
M  V30 END CTAB
M  END
>  <Dataset>  (442) 
ChEMBL_Kinases

>  <Ligand_Instance>  (442) 
nan

>  <PDB_ID>  (442) 
nan

>  <Standardized_SMILES>  (442) 
CC(C)(C)n1cc(-c2ccnc3[nH]ccc23)c(-c2ccc(NC(=O)Nc3ccccc3)cc2)n1

>  <Name>  (442) 
nan

>  <Pocket>  (442) 
nan

>  <ATP_Site>  (442) 
nan

>  <Peripheral>  (442) 
nan

>  <Num_H_Atoms_ProtBoundConf>  (442) 
nan

>  <Num_Resolved_Atoms>  (442) 
nan

>  <Num_Not_Resolved_Atoms>  (442) 
nan

$$$$
CHEMBL209486
     RDKit          3D

  0  0  0  0  0  0  0  0  0  0999 V3000
M  V30 BEGIN CTAB
M  V30 COUNTS 34 38 0 0 0
M  V30 BEGIN ATOM
M  V30 1 O 3.226555 -1.983791 2.796170 0
M  V30 2 C 2.132781 -1.382628 2.630695 0
M  V30 3 N 1.437659 -0.807593 3.761604 0
M  V30 4 C 0.267151 -0.223271 3.206530 0
M  V30 5 O -0.465273 0.328686 4.052652 0
M  V30 6 C 0.209677 -0.413747 1.775478 0
M  V30 7 C 1.343341 -1.121144 1.406955 0
M  V30 8 C 1.557515 -1.446553 0.109034 0
M  V30 9 C 2.763536 -2.204309 -0.316267 0
M  V30 10 C 2.938607 -2.503680 -1.591711 0
M  V30 11 C 3.992650 -3.183611 -2.076797 0
M  V30 12 C 4.945860 -3.574525 -1.080046 0
M  V30 13 S 4.120391 -2.860880 0.460892 0
M  V30 14 C 0.612653 -1.047843 -0.806417 0
M  V30 15 C -0.520715 -0.346531 -0.475778 0
M  V30 16 N -1.534724 0.117287 -1.228103 0
M  V30 17 C -2.357670 0.724126 -0.362814 0
M  V30 18 C -3.552605 1.357011 -0.696497 0
M  V30 19 C -4.310411 1.946105 0.294349 0
M  V30 20 C -3.849457 1.888142 1.615560 0
M  V30 21 O -4.609120 2.480169 2.618340 0
M  V30 22 C -2.657420 1.240507 1.844126 0
M  V30 23 C -1.861777 0.639989 0.919048 0
M  V30 24 C -0.689414 -0.042334 0.853259 0
M  V30 25 H 1.804125 -0.863133 4.751360 0
M  V30 26 H 2.341367 -2.299180 -2.475284 0
M  V30 27 H 4.491256 -3.601488 -2.923059 0
M  V30 28 H 5.932276 -4.101655 -0.834313 0
M  V30 29 H 0.734828 -1.283977 -1.870279 0
M  V30 30 H -1.635243 0.013615 -2.261229 0
M  V30 31 H -3.924482 1.414310 -1.694894 0
M  V30 32 H -5.235371 2.436143 0.037000 0
M  V30 33 H -5.274508 1.924238 3.155614 0
M  V30 34 H -2.375643 1.238059 2.863064 0
M  V30 END ATOM
M  V30 BEGIN BOND
M  V30 1 2 1 2
M  V30 2 1 2 3
M  V30 3 1 3 4
M  V30 4 2 4 5
M  V30 5 1 4 6
M  V30 6 2 6 7
M  V30 7 1 7 8
M  V30 8 1 8 9
M  V30 9 2 9 10
M  V30 10 1 10 11
M  V30 11 2 11 12
M  V30 12 1 12 13
M  V30 13 2 8 14
M  V30 14 1 14 15
M  V30 15 1 15 16
M  V30 16 1 16 17
M  V30 17 2 17 18
M  V30 18 1 18 19
M  V30 19 2 19 20
M  V30 20 1 20 21
M  V30 21 1 20 22
M  V30 22 2 22 23
M  V30 23 1 23 24
M  V30 24 1 7 2
M  V30 25 1 13 9
M  V30 26 2 24 15
M  V30 27 1 24 6
M  V30 28 1 23 17
M  V30 29 1 3 25
M  V30 30 1 10 26
M  V30 31 1 11 27
M  V30 32 1 12 28
M  V30 33 1 14 29
M  V30 34 1 16 30
M  V30 35 1 18 31
M  V30 36 1 19 32
M  V30 37 1 21 33
M  V30 38 1 22 34
M  V30 END BOND
M  V30 END CTAB
M  END
>  <Dataset>  (443) 
ChEMBL_Kinases

>  <Ligand_Instance>  (443) 
nan

>  <PDB_ID>  (443) 
nan

>  <Standardized_SMILES>  (443) 
O=C1NC(=O)c2c1c(-c1cccs1)cc1[nH]c3ccc(O)cc3c21

>  <Name>  (443) 
nan

>  <Pocket>  (443) 
nan

>  <ATP_Site>  (443) 
nan

>  <Peripheral>  (443) 
nan

>  <Num_H_Atoms_ProtBoundConf>  (443) 
nan

>  <Num_Resolved_Atoms>  (443) 
nan

>  <Num_Not_Resolved_Atoms>  (443) 
nan

$$$$
CHEMBL1084969
     RDKit          3D

  0  0  0  0  0  0  0  0  0  0999 V3000
M  V30 BEGIN CTAB
M  V30 COUNTS 52 55 0 0 0
M  V30 BEGIN ATOM
M  V30 1 C 0.540017 -5.821695 0.323710 0
M  V30 2 C 1.778559 -5.068422 0.638081 0
M  V30 3 O 2.100182 -4.771309 1.812643 0
M  V30 4 N 2.731310 -4.598687 -0.304604 0
M  V30 5 C 3.887059 -3.880876 0.121968 0
M  V30 6 C 3.876662 -2.446261 -0.379253 0
M  V30 7 N 2.860023 -2.337687 -1.375770 0
M  V30 8 C 1.811374 -1.388319 -1.383723 0
M  V30 9 C 1.703424 -0.426460 -0.406676 0
M  V30 10 C 0.700383 0.517967 -0.369783 0
M  V30 11 C -0.269564 0.533106 -1.349744 0
M  V30 12 N -1.316124 1.495865 -1.337377 0
M  V30 13 C -1.377070 2.474897 -0.307176 0
M  V30 14 N -0.794542 3.696597 -0.358875 0
M  V30 15 C -0.891868 4.577354 0.654803 0
M  V30 16 C -1.604325 4.267959 1.815726 0
M  V30 17 C -2.182721 3.021808 1.836446 0
M  V30 18 C -2.951569 2.631929 3.038169 0
M  V30 19 S -3.116119 3.789255 4.431015 0
M  V30 20 C -4.161660 2.544079 5.415026 0
M  V30 21 N -4.740866 2.662220 6.699694 0
M  V30 22 N -4.218104 1.599792 4.665954 0
M  V30 23 C -3.663005 1.533945 3.478604 0
M  V30 24 C -3.672276 0.422322 2.483801 0
M  V30 25 N -2.079945 2.151607 0.821318 0
M  V30 26 C -0.197085 -0.413591 -2.346127 0
M  V30 27 C 0.829775 -1.332479 -2.329731 0
M  V30 28 C 3.058552 -3.350031 -2.390726 0
M  V30 29 C 2.804129 -4.692910 -1.757848 0
M  V30 30 H -0.351043 -5.300385 0.754470 0
M  V30 31 H 0.404291 -5.915398 -0.753715 0
M  V30 32 H 0.598053 -6.839799 0.802932 0
M  V30 33 H 3.955302 -3.919959 1.219847 0
M  V30 34 H 4.822756 -4.403917 -0.233612 0
M  V30 35 H 3.815354 -1.769267 0.467662 0
M  V30 36 H 4.856905 -2.240569 -0.871668 0
M  V30 37 H 2.399344 -0.333743 0.413546 0
M  V30 38 H 0.616799 1.273406 0.398962 0
M  V30 39 H -2.035958 1.476159 -2.088971 0
M  V30 40 H -0.409187 5.542716 0.568683 0
M  V30 41 H -1.659273 5.001973 2.607352 0
M  V30 42 H -5.598847 3.212652 6.975056 0
M  V30 43 H -4.354856 2.190030 7.549477 0
M  V30 44 H -4.159688 0.729977 1.550844 0
M  V30 45 H -2.627848 0.052367 2.293310 0
M  V30 46 H -4.209981 -0.466592 2.866432 0
M  V30 47 H -0.958054 -0.404759 -3.118796 0
M  V30 48 H 0.802818 -2.032226 -3.148934 0
M  V30 49 H 2.403019 -3.251211 -3.269975 0
M  V30 50 H 4.137222 -3.357974 -2.724849 0
M  V30 51 H 1.850382 -5.104657 -2.130922 0
M  V30 52 H 3.622223 -5.427343 -1.982987 0
M  V30 END ATOM
M  V30 BEGIN BOND
M  V30 1 1 1 2
M  V30 2 2 2 3
M  V30 3 1 2 4
M  V30 4 1 4 5
M  V30 5 1 5 6
M  V30 6 1 6 7
M  V30 7 1 7 8
M  V30 8 2 8 9
M  V30 9 1 9 10
M  V30 10 2 10 11
M  V30 11 1 11 12
M  V30 12 1 12 13
M  V30 13 2 13 14
M  V30 14 1 14 15
M  V30 15 2 15 16
M  V30 16 1 16 17
M  V30 17 1 17 18
M  V30 18 1 18 19
M  V30 19 1 19 20
M  V30 20 1 20 21
M  V30 21 2 20 22
M  V30 22 1 22 23
M  V30 23 1 23 24
M  V30 24 2 17 25
M  V30 25 1 11 26
M  V30 26 2 26 27
M  V30 27 1 7 28
M  V30 28 1 28 29
M  V30 29 1 29 4
M  V30 30 1 27 8
M  V30 31 1 25 13
M  V30 32 2 23 18
M  V30 33 1 1 30
M  V30 34 1 1 31
M  V30 35 1 1 32
M  V30 36 1 5 33
M  V30 37 1 5 34
M  V30 38 1 6 35
M  V30 39 1 6 36
M  V30 40 1 9 37
M  V30 41 1 10 38
M  V30 42 1 12 39
M  V30 43 1 15 40
M  V30 44 1 16 41
M  V30 45 1 21 42
M  V30 46 1 21 43
M  V30 47 1 24 44
M  V30 48 1 24 45
M  V30 49 1 24 46
M  V30 50 1 26 47
M  V30 51 1 27 48
M  V30 52 1 28 49
M  V30 53 1 28 50
M  V30 54 1 29 51
M  V30 55 1 29 52
M  V30 END BOND
M  V30 END CTAB
M  END
>  <Dataset>  (444) 
ChEMBL_Kinases

>  <Ligand_Instance>  (444) 
nan

>  <PDB_ID>  (444) 
nan

>  <Standardized_SMILES>  (444) 
CC(=O)N1CCN(c2ccc(Nc3nccc(-c4sc(N)nc4C)n3)cc2)CC1

>  <Name>  (444) 
nan

>  <Pocket>  (444) 
nan

>  <ATP_Site>  (444) 
nan

>  <Peripheral>  (444) 
nan

>  <Num_H_Atoms_ProtBoundConf>  (444) 
nan

>  <Num_Resolved_Atoms>  (444) 
nan

>  <Num_Not_Resolved_Atoms>  (444) 
nan

$$$$
CHEMBL1095475
     RDKit          3D

  0  0  0  0  0  0  0  0  0  0999 V3000
M  V30 BEGIN CTAB
M  V30 COUNTS 75 80 0 0 0
M  V30 BEGIN ATOM
M  V30 1 C 4.951834 -1.224246 7.502413 0
M  V30 2 C 5.090543 -2.541483 6.775720 0
M  V30 3 N 5.652204 -2.351561 5.430880 0
M  V30 4 C 4.962120 -1.536067 4.491562 0
M  V30 5 O 3.886230 -1.019621 4.892002 0
M  V30 6 N 5.447546 -1.303866 3.161835 0
M  V30 7 C 4.627776 -0.456201 2.343194 0
M  V30 8 C 3.637815 -1.074480 1.576304 0
M  V30 9 C 2.840056 -0.245655 0.778973 0
M  V30 10 C 3.034907 1.126520 0.760776 0
M  V30 11 C 2.078819 1.754722 -0.146401 0
M  V30 12 N 2.304625 2.460235 -1.274032 0
M  V30 13 N 1.162230 2.857296 -1.804518 0
M  V30 14 C 0.879442 3.630931 -2.996091 0
M  V30 15 C 0.833847 5.107144 -2.690092 0
M  V30 16 C 0.133971 2.427601 -1.044675 0
M  V30 17 C 0.694769 1.720096 0.021649 0
M  V30 18 C 0.019294 1.053352 1.128569 0
M  V30 19 C 0.294759 1.588584 2.389186 0
M  V30 20 C -0.287579 1.040552 3.519473 0
M  V30 21 N -1.128308 -0.019396 3.403066 0
M  V30 22 C -1.411321 -0.556992 2.188479 0
M  V30 23 N -2.174092 -1.571016 1.751711 0
M  V30 24 C -2.096879 -1.681323 0.418985 0
M  V30 25 C -2.813177 -2.690788 -0.354550 0
M  V30 26 C -3.610526 -3.572689 0.318604 0
M  V30 27 C -4.302751 -4.544583 -0.385946 0
M  V30 28 C -4.154110 -4.579354 -1.756170 0
M  V30 29 C -3.372876 -3.727772 -2.497458 0
M  V30 30 C -3.218351 -3.766947 -3.970194 0
M  V30 31 N -4.141302 -2.914976 -4.594599 0
M  V30 32 C -5.519794 -3.099786 -4.430451 0
M  V30 33 C -5.888956 -1.942873 -3.490907 0
M  V30 34 C -4.855785 -0.881150 -3.784416 0
M  V30 35 C -3.860051 -1.540423 -4.712192 0
M  V30 36 C -2.706290 -2.777851 -1.729052 0
M  V30 37 C -1.244543 -0.700433 -0.078279 0
M  V30 38 C -0.839806 -0.023353 1.052627 0
M  V30 39 C 4.025550 1.694351 1.535223 0
M  V30 40 C 4.820402 0.906946 2.324458 0
M  V30 41 H 3.944735 -0.797334 7.359954 0
M  V30 42 H 5.710279 -0.509354 7.127315 0
M  V30 43 H 5.105490 -1.365519 8.609110 0
M  V30 44 H 4.116556 -3.049514 6.670951 0
M  V30 45 H 5.814528 -3.194698 7.330437 0
M  V30 46 H 6.564464 -2.807537 5.134212 0
M  V30 47 H 6.356776 -1.798568 2.968310 0
M  V30 48 H 3.531145 -2.149576 1.630072 0
M  V30 49 H 2.101835 -0.825817 0.223041 0
M  V30 50 H -0.057488 3.328208 -3.487295 0
M  V30 51 H 1.752488 3.477265 -3.690549 0
M  V30 52 H 0.990336 5.652572 -3.642368 0
M  V30 53 H 1.709923 5.338352 -2.044593 0
M  V30 54 H -0.132863 5.414320 -2.247106 0
M  V30 55 H -0.933278 2.533040 -1.122947 0
M  V30 56 H 0.959034 2.432071 2.521858 0
M  V30 57 H -0.062891 1.468510 4.491357 0
M  V30 58 H -2.718315 -2.138794 2.449859 0
M  V30 59 H -3.737316 -3.557608 1.393861 0
M  V30 60 H -4.935597 -5.245946 0.141446 0
M  V30 61 H -4.708339 -5.357416 -2.253344 0
M  V30 62 H -3.423293 -4.842747 -4.260086 0
M  V30 63 H -2.161224 -3.598014 -4.278267 0
M  V30 64 H -6.096846 -2.976559 -5.377276 0
M  V30 65 H -5.733060 -4.068650 -3.944489 0
M  V30 66 H -5.838277 -2.340008 -2.459579 0
M  V30 67 H -6.925117 -1.586729 -3.666199 0
M  V30 68 H -5.306942 0.026629 -4.236333 0
M  V30 69 H -4.319526 -0.650813 -2.838051 0
M  V30 70 H -2.801337 -1.388789 -4.347432 0
M  V30 71 H -3.976793 -1.126383 -5.738593 0
M  V30 72 H -2.055594 -2.042148 -2.168903 0
M  V30 73 H -0.967973 -0.515899 -1.103010 0
M  V30 74 H 4.066720 2.769213 1.425376 0
M  V30 75 H 5.571637 1.389676 2.904447 0
M  V30 END ATOM
M  V30 BEGIN BOND
M  V30 1 1 1 2
M  V30 2 1 2 3
M  V30 3 1 3 4
M  V30 4 2 4 5
M  V30 5 1 4 6
M  V30 6 1 6 7
M  V30 7 2 7 8
M  V30 8 1 8 9
M  V30 9 2 9 10
M  V30 10 1 10 11
M  V30 11 2 11 12
M  V30 12 1 12 13
M  V30 13 1 13 14
M  V30 14 1 14 15
M  V30 15 1 13 16
M  V30 16 2 16 17
M  V30 17 1 17 18
M  V30 18 2 18 19
M  V30 19 1 19 20
M  V30 20 2 20 21
M  V30 21 1 21 22
M  V30 22 1 22 23
M  V30 23 1 23 24
M  V30 24 1 24 25
M  V30 25 2 25 26
M  V30 26 1 26 27
M  V30 27 2 27 28
M  V30 28 1 28 29
M  V30 29 1 29 30
M  V30 30 1 30 31
M  V30 31 1 31 32
M  V30 32 1 32 33
M  V30 33 1 33 34
M  V30 34 1 34 35
M  V30 35 2 29 36
M  V30 36 2 24 37
M  V30 37 1 37 38
M  V30 38 1 10 39
M  V30 39 2 39 40
M  V30 40 1 40 7
M  V30 41 1 17 11
M  V30 42 1 38 18
M  V30 43 2 38 22
M  V30 44 1 36 25
M  V30 45 1 35 31
M  V30 46 1 1 41
M  V30 47 1 1 42
M  V30 48 1 1 43
M  V30 49 1 2 44
M  V30 50 1 2 45
M  V30 51 1 3 46
M  V30 52 1 6 47
M  V30 53 1 8 48
M  V30 54 1 9 49
M  V30 55 1 14 50
M  V30 56 1 14 51
M  V30 57 1 15 52
M  V30 58 1 15 53
M  V30 59 1 15 54
M  V30 60 1 16 55
M  V30 61 1 19 56
M  V30 62 1 20 57
M  V30 63 1 23 58
M  V30 64 1 26 59
M  V30 65 1 27 60
M  V30 66 1 28 61
M  V30 67 1 30 62
M  V30 68 1 30 63
M  V30 69 1 32 64
M  V30 70 1 32 65
M  V30 71 1 33 66
M  V30 72 1 33 67
M  V30 73 1 34 68
M  V30 74 1 34 69
M  V30 75 1 35 70
M  V30 76 1 35 71
M  V30 77 1 36 72
M  V30 78 1 37 73
M  V30 79 1 39 74
M  V30 80 1 40 75
M  V30 END BOND
M  V30 END CTAB
M  END
>  <Dataset>  (445) 
ChEMBL_Kinases

>  <Ligand_Instance>  (445) 
nan

>  <PDB_ID>  (445) 
nan

>  <Standardized_SMILES>  (445) 
CCNC(=O)Nc1ccc(-c2nn(CC)cc2-c2ccnc3[nH]c(-c4cccc(CN5CCCC5)c4)cc23)cc1

>  <Name>  (445) 
nan

>  <Pocket>  (445) 
nan

>  <ATP_Site>  (445) 
nan

>  <Peripheral>  (445) 
nan

>  <Num_H_Atoms_ProtBoundConf>  (445) 
nan

>  <Num_Resolved_Atoms>  (445) 
nan

>  <Num_Not_Resolved_Atoms>  (445) 
nan

$$$$
CHEMBL213593
     RDKit          3D

  0  0  0  0  0  0  0  0  0  0999 V3000
M  V30 BEGIN CTAB
M  V30 COUNTS 37 41 0 0 0
M  V30 BEGIN ATOM
M  V30 1 O 0.718552 2.482402 2.717463 0
M  V30 2 C 0.437426 1.255603 2.687514 0
M  V30 3 N 0.109400 0.359056 3.741150 0
M  V30 4 C -0.128453 -0.930039 3.204768 0
M  V30 5 O -0.425174 -1.807097 4.023384 0
M  V30 6 C 0.040918 -0.897707 1.784504 0
M  V30 7 C 0.376517 0.399222 1.479161 0
M  V30 8 C 0.620634 0.803624 0.160182 0
M  V30 9 C 0.972390 2.151210 -0.183692 0
M  V30 10 C -0.042455 3.043814 -0.475928 0
M  V30 11 Cl -1.711711 2.505159 -0.417416 0
M  V30 12 C 0.310058 4.338499 -0.805565 0
M  V30 13 C 1.621943 4.781408 -0.856803 0
M  V30 14 C 2.585287 3.833906 -0.552477 0
M  V30 15 C 2.307081 2.521653 -0.214280 0
M  V30 16 Cl 3.610928 1.405927 0.152828 0
M  V30 17 C 0.513325 -0.149298 -0.837521 0
M  V30 18 C 0.175766 -1.446358 -0.515265 0
M  V30 19 N 0.014233 -2.524277 -1.291490 0
M  V30 20 C -0.320482 -3.565680 -0.473860 0
M  V30 21 C -0.579174 -4.867036 -0.852159 0
M  V30 22 C -0.908220 -5.819040 0.097794 0
M  V30 23 C -0.968803 -5.421351 1.438654 0
M  V30 24 O -1.296650 -6.366893 2.391239 0
M  V30 25 C -0.696487 -4.104890 1.728144 0
M  V30 26 C -0.369336 -3.134376 0.832507 0
M  V30 27 C -0.056038 -1.809461 0.779748 0
M  V30 28 H 0.087577 0.744064 4.716127 0
M  V30 29 H -0.499541 5.020016 -1.030494 0
M  V30 30 H 1.871221 5.800415 -1.117707 0
M  V30 31 H 3.635167 4.132612 -0.578504 0
M  V30 32 H 0.703646 0.163733 -1.870455 0
M  V30 33 H 0.134649 -2.518178 -2.335644 0
M  V30 34 H -0.529136 -5.161206 -1.889863 0
M  V30 35 H -1.101737 -6.824384 -0.250021 0
M  V30 36 H -0.852658 -6.468525 3.293418 0
M  V30 37 H -0.763014 -3.882950 2.763529 0
M  V30 END ATOM
M  V30 BEGIN BOND
M  V30 1 2 1 2
M  V30 2 1 2 3
M  V30 3 1 3 4
M  V30 4 2 4 5
M  V30 5 1 4 6
M  V30 6 2 6 7
M  V30 7 1 7 8
M  V30 8 1 8 9
M  V30 9 2 9 10
M  V30 10 1 10 11
M  V30 11 1 10 12
M  V30 12 2 12 13
M  V30 13 1 13 14
M  V30 14 2 14 15
M  V30 15 1 15 16
M  V30 16 2 8 17
M  V30 17 1 17 18
M  V30 18 1 18 19
M  V30 19 1 19 20
M  V30 20 2 20 21
M  V30 21 1 21 22
M  V30 22 2 22 23
M  V30 23 1 23 24
M  V30 24 1 23 25
M  V30 25 2 25 26
M  V30 26 1 26 27
M  V30 27 1 7 2
M  V30 28 1 15 9
M  V30 29 2 27 18
M  V30 30 1 27 6
M  V30 31 1 26 20
M  V30 32 1 3 28
M  V30 33 1 12 29
M  V30 34 1 13 30
M  V30 35 1 14 31
M  V30 36 1 17 32
M  V30 37 1 19 33
M  V30 38 1 21 34
M  V30 39 1 22 35
M  V30 40 1 24 36
M  V30 41 1 25 37
M  V30 END BOND
M  V30 END CTAB
M  END
>  <Dataset>  (446) 
ChEMBL_Kinases

>  <Ligand_Instance>  (446) 
nan

>  <PDB_ID>  (446) 
nan

>  <Standardized_SMILES>  (446) 
O=C1NC(=O)c2c1c(-c1c(Cl)cccc1Cl)cc1[nH]c3ccc(O)cc3c21

>  <Name>  (446) 
nan

>  <Pocket>  (446) 
nan

>  <ATP_Site>  (446) 
nan

>  <Peripheral>  (446) 
nan

>  <Num_H_Atoms_ProtBoundConf>  (446) 
nan

>  <Num_Resolved_Atoms>  (446) 
nan

>  <Num_Not_Resolved_Atoms>  (446) 
nan

$$$$
CHEMBL2071618
     RDKit          3D

  0  0  0  0  0  0  0  0  0  0999 V3000
M  V30 BEGIN CTAB
M  V30 COUNTS 41 43 0 0 0
M  V30 BEGIN ATOM
M  V30 1 C 1.434154 -4.681170 2.543977 0
M  V30 2 C 2.499231 -4.112985 1.652477 0
M  V30 3 C 3.825095 -4.026647 2.378209 0
M  V30 4 C 2.636814 -5.093341 0.483257 0
M  V30 5 C 2.177940 -2.765863 1.135883 0
M  V30 6 C 3.093985 -2.134530 0.289056 0
M  V30 7 C 2.848264 -0.878463 -0.224945 0
M  V30 8 C 1.674154 -0.187178 0.080264 0
M  V30 9 N 1.363530 1.108896 -0.421356 0
M  V30 10 C 0.164432 1.809074 -0.106118 0
M  V30 11 N -0.821649 1.502954 -0.986952 0
M  V30 12 C -1.951575 2.188695 -0.657619 0
M  V30 13 C -3.246766 2.303054 -1.147230 0
M  V30 14 C -4.142447 3.153017 -0.490455 0
M  V30 15 C -3.759044 3.869332 0.623183 0
M  V30 16 N -4.695331 4.725246 1.266572 0 CHG=1 VAL=4
M  V30 17 O -4.374787 5.383508 2.272607 0
M  V30 18 O -5.976684 4.838138 0.782805 0 CHG=-1 VAL=1
M  V30 19 C -2.470895 3.777883 1.139018 0
M  V30 20 C -1.627922 2.924005 0.451302 0
M  V30 21 N -0.332394 2.687043 0.783046 0
M  V30 22 C 0.769240 -0.808449 0.915773 0
M  V30 23 C 1.024791 -2.064479 1.424140 0
M  V30 24 H 1.537538 -4.347819 3.585584 0
M  V30 25 H 0.443513 -4.557424 2.099627 0
M  V30 26 H 1.619906 -5.794898 2.583952 0
M  V30 27 H 4.343221 -5.007845 2.388162 0
M  V30 28 H 4.427801 -3.242115 1.865048 0
M  V30 29 H 3.630688 -3.646353 3.403270 0
M  V30 30 H 3.694872 -5.139460 0.159410 0
M  V30 31 H 2.041012 -4.779577 -0.394598 0
M  V30 32 H 2.353699 -6.102276 0.816259 0
M  V30 33 H 4.035905 -2.567741 -0.019084 0
M  V30 34 H 3.546355 -0.374751 -0.882111 0
M  V30 35 H 2.088282 1.545128 -1.061622 0
M  V30 36 H -3.478820 1.712329 -2.023791 0
M  V30 37 H -5.148730 3.200590 -0.923898 0
M  V30 38 H -2.174065 4.336960 2.006758 0
M  V30 39 H 0.345216 2.987585 1.504444 0
M  V30 40 H -0.161767 -0.310336 1.183928 0
M  V30 41 H 0.296072 -2.525786 2.076848 0
M  V30 END ATOM
M  V30 BEGIN BOND
M  V30 1 1 1 2
M  V30 2 1 2 3
M  V30 3 1 2 4
M  V30 4 1 2 5
M  V30 5 2 5 6
M  V30 6 1 6 7
M  V30 7 2 7 8
M  V30 8 1 8 9
M  V30 9 1 9 10
M  V30 10 2 10 11
M  V30 11 1 11 12
M  V30 12 2 12 13
M  V30 13 1 13 14
M  V30 14 2 14 15
M  V30 15 1 15 16
M  V30 16 2 16 17
M  V30 17 1 16 18
M  V30 18 1 15 19
M  V30 19 2 19 20
M  V30 20 1 20 21
M  V30 21 1 8 22
M  V30 22 2 22 23
M  V30 23 1 23 5
M  V30 24 1 21 10
M  V30 25 1 20 12
M  V30 26 1 1 24
M  V30 27 1 1 25
M  V30 28 1 1 26
M  V30 29 1 3 27
M  V30 30 1 3 28
M  V30 31 1 3 29
M  V30 32 1 4 30
M  V30 33 1 4 31
M  V30 34 1 4 32
M  V30 35 1 6 33
M  V30 36 1 7 34
M  V30 37 1 9 35
M  V30 38 1 13 36
M  V30 39 1 14 37
M  V30 40 1 19 38
M  V30 41 1 21 39
M  V30 42 1 22 40
M  V30 43 1 23 41
M  V30 END BOND
M  V30 END CTAB
M  END
>  <Dataset>  (447) 
ChEMBL_Kinases

>  <Ligand_Instance>  (447) 
nan

>  <PDB_ID>  (447) 
nan

>  <Standardized_SMILES>  (447) 
CC(C)(C)c1ccc(Nc2nc3ccc([N+](=O)[O-])cc3[nH]2)cc1

>  <Name>  (447) 
nan

>  <Pocket>  (447) 
nan

>  <ATP_Site>  (447) 
nan

>  <Peripheral>  (447) 
nan

>  <Num_H_Atoms_ProtBoundConf>  (447) 
nan

>  <Num_Resolved_Atoms>  (447) 
nan

>  <Num_Not_Resolved_Atoms>  (447) 
nan

$$$$
CHEMBL209505
     RDKit          3D

  0  0  0  0  0  0  0  0  0  0999 V3000
M  V30 BEGIN CTAB
M  V30 COUNTS 48 49 0 0 0
M  V30 BEGIN ATOM
M  V30 1 C -1.961454 -1.868974 2.721627 0
M  V30 2 C -0.943653 -2.674293 3.454563 0
M  V30 3 O -0.590367 -3.872107 2.802519 0
M  V30 4 C -0.055946 -3.933661 1.504390 0
M  V30 5 N 0.150176 -2.828345 0.738650 0
M  V30 6 C 0.656148 -2.909845 -0.504454 0
M  V30 7 N 0.839929 -1.706613 -1.282824 0
M  V30 8 C 1.471790 -0.679428 -0.512968 0
M  V30 9 O 1.725878 -1.043014 0.688330 0
M  V30 10 C 1.893452 0.738637 -0.840689 0
M  V30 11 C 0.971914 1.681300 -0.101017 0
M  V30 12 C 1.323594 2.231350 1.099602 0
M  V30 13 C 0.374751 3.032490 1.676494 0
M  V30 14 O 0.527208 3.696242 2.903045 0
M  V30 15 C 1.671323 3.621295 3.695734 0
M  V30 16 C -0.853650 3.267490 1.083436 0
M  V30 17 N -1.862195 4.089978 1.668755 0 CHG=1 VAL=4
M  V30 18 O -1.950346 5.098778 2.395541 0
M  V30 19 O -3.184484 3.790832 1.454326 0 CHG=-1 VAL=1
M  V30 20 C -1.197149 2.707213 -0.128592 0
M  V30 21 C -0.248398 1.876139 -0.756053 0
M  V30 22 O -0.520669 1.290589 -1.960771 0
M  V30 23 C -1.677823 1.394292 -2.726632 0
M  V30 24 C 0.984038 -4.137874 -1.041546 0
M  V30 25 C 0.770870 -5.258510 -0.254625 0
M  V30 26 N 1.093672 -6.556390 -0.727596 0
M  V30 27 C 0.254035 -5.173509 1.015014 0
M  V30 28 C 0.047712 -6.370221 1.818381 0
M  V30 29 N -0.108757 -7.312482 2.473982 0
M  V30 30 H -1.760378 -0.788381 3.015251 0
M  V30 31 H -1.827380 -1.879511 1.619366 0
M  V30 32 H -3.007174 -2.023187 3.026808 0
M  V30 33 H -0.040390 -2.043674 3.730635 0
M  V30 34 H -1.386070 -2.965492 4.446531 0
M  V30 35 H 0.635838 -1.395967 -2.250262 0
M  V30 36 H 2.950918 0.912515 -0.590048 0
M  V30 37 H 1.775280 0.825209 -1.934588 0
M  V30 38 H 2.274448 2.059942 1.576173 0
M  V30 39 H 2.606766 3.683832 3.088241 0
M  V30 40 H 1.600568 4.467594 4.441851 0
M  V30 41 H 1.666188 2.696845 4.283314 0
M  V30 42 H -2.121330 2.845670 -0.640157 0
M  V30 43 H -2.632942 1.378592 -2.152354 0
M  V30 44 H -1.642726 2.377918 -3.287500 0
M  V30 45 H -1.768770 0.603891 -3.499809 0
M  V30 46 H 1.392278 -4.211751 -2.039912 0
M  V30 47 H 1.867642 -6.978466 -0.136350 0
M  V30 48 H 0.559658 -6.924149 -1.559085 0
M  V30 END ATOM
M  V30 BEGIN BOND
M  V30 1 1 1 2
M  V30 2 1 2 3
M  V30 3 1 3 4
M  V30 4 2 4 5
M  V30 5 1 5 6
M  V30 6 1 6 7
M  V30 7 1 7 8
M  V30 8 2 8 9
M  V30 9 1 8 10
M  V30 10 1 10 11
M  V30 11 2 11 12
M  V30 12 1 12 13
M  V30 13 1 13 14
M  V30 14 1 14 15
M  V30 15 2 13 16
M  V30 16 1 16 17
M  V30 17 2 17 18
M  V30 18 1 17 19
M  V30 19 1 16 20
M  V30 20 2 20 21
M  V30 21 1 21 22
M  V30 22 1 22 23
M  V30 23 2 6 24
M  V30 24 1 24 25
M  V30 25 1 25 26
M  V30 26 2 25 27
M  V30 27 1 27 28
M  V30 28 3 28 29
M  V30 29 1 27 4
M  V30 30 1 21 11
M  V30 31 1 1 30
M  V30 32 1 1 31
M  V30 33 1 1 32
M  V30 34 1 2 33
M  V30 35 1 2 34
M  V30 36 1 7 35
M  V30 37 1 10 36
M  V30 38 1 10 37
M  V30 39 1 12 38
M  V30 40 1 15 39
M  V30 41 1 15 40
M  V30 42 1 15 41
M  V30 43 1 20 42
M  V30 44 1 23 43
M  V30 45 1 23 44
M  V30 46 1 23 45
M  V30 47 1 24 46
M  V30 48 1 26 47
M  V30 49 1 26 48
M  V30 END BOND
M  V30 END CTAB
M  END
>  <Dataset>  (448) 
ChEMBL_Kinases

>  <Ligand_Instance>  (448) 
nan

>  <PDB_ID>  (448) 
nan

>  <Standardized_SMILES>  (448) 
CCOc1nc(NC(=O)Cc2cc(OC)c([N+](=O)[O-])cc2OC)cc(N)c1C#N

>  <Name>  (448) 
nan

>  <Pocket>  (448) 
nan

>  <ATP_Site>  (448) 
nan

>  <Peripheral>  (448) 
nan

>  <Num_H_Atoms_ProtBoundConf>  (448) 
nan

>  <Num_Resolved_Atoms>  (448) 
nan

>  <Num_Not_Resolved_Atoms>  (448) 
nan

$$$$
CHEMBL4636120
     RDKit          3D

  0  0  0  0  0  0  0  0  0  0999 V3000
M  V30 BEGIN CTAB
M  V30 COUNTS 56 59 0 0 0
M  V30 BEGIN ATOM
M  V30 1 C 1.005692 -6.641236 2.270771 0
M  V30 2 O 1.181969 -6.983484 0.925917 0
M  V30 3 C 1.438213 -6.102405 -0.110854 0
M  V30 4 C 1.533458 -4.759684 0.182587 0
M  V30 5 C 1.786835 -3.841110 -0.812317 0
M  V30 6 C 1.924736 -2.393501 -0.746919 0
M  V30 7 C 3.006930 -1.816580 -1.420629 0
M  V30 8 N 3.236084 -0.482456 -1.428916 0
M  V30 9 C 2.389687 0.352544 -0.759393 0
M  V30 10 C 1.301787 -0.193356 -0.078375 0
M  V30 11 C 0.452432 0.771602 0.608480 0
M  V30 12 C -0.045358 0.707732 1.894432 0
M  V30 13 C -0.844779 1.713304 2.394544 0
M  V30 14 C -1.196654 2.826405 1.668049 0
M  V30 15 N -2.023155 3.827910 2.239588 0
M  V30 16 C -2.557733 3.798782 3.586428 0
M  V30 17 C -4.058610 3.650744 3.419519 0
M  V30 18 N -4.568575 4.814851 2.724605 0
M  V30 19 C -3.966425 5.052033 1.453041 0
M  V30 20 C -2.455084 5.029243 1.553489 0
M  V30 21 C -0.715133 2.917298 0.383213 0
M  V30 22 C 0.097975 1.897314 -0.129539 0
M  V30 23 C 1.067120 -1.552926 -0.069162 0
M  V30 24 C -0.080685 -2.110987 0.645287 0
M  V30 25 C 1.937547 -4.348904 -2.107935 0
M  V30 26 C 1.844685 -5.687985 -2.413459 0
M  V30 27 O 1.995106 -6.180618 -3.696974 0
M  V30 28 C 2.257402 -5.314980 -4.781888 0
M  V30 29 C 1.590292 -6.585784 -1.399260 0
M  V30 30 F 1.485844 -7.899187 -1.613948 0
M  V30 31 H 0.423597 -7.410982 2.832991 0
M  V30 32 H 0.534031 -5.625187 2.417285 0
M  V30 33 H 1.989705 -6.585091 2.779556 0
M  V30 34 H 1.430468 -4.306895 1.157154 0
M  V30 35 H 3.690632 -2.474545 -1.959687 0
M  V30 36 H 2.605376 1.413624 -0.788738 0
M  V30 37 H 0.244529 -0.170760 2.444786 0
M  V30 38 H -1.153245 1.521863 3.403617 0
M  V30 39 H -2.362694 4.794969 4.086528 0
M  V30 40 H -2.139808 3.056465 4.250333 0
M  V30 41 H -4.574178 3.590330 4.384233 0
M  V30 42 H -4.271311 2.749158 2.835224 0
M  V30 43 H -5.581893 4.614364 2.544929 0
M  V30 44 H -4.339069 4.404676 0.635363 0
M  V30 45 H -4.214287 6.121502 1.188240 0
M  V30 46 H -2.180467 5.895532 2.225122 0
M  V30 47 H -1.968096 5.234789 0.606987 0
M  V30 48 H -0.933045 3.736704 -0.251664 0
M  V30 49 H 0.454645 2.014221 -1.151148 0
M  V30 50 H -0.980229 -1.446269 0.516291 0
M  V30 51 H 0.074041 -2.419219 1.673019 0
M  V30 52 H -0.396485 -3.045959 0.095515 0
M  V30 53 H 2.142425 -3.715562 -2.984619 0
M  V30 54 H 3.103201 -4.649289 -4.526101 0
M  V30 55 H 1.402089 -4.651643 -5.023524 0
M  V30 56 H 2.601972 -5.917238 -5.649228 0
M  V30 END ATOM
M  V30 BEGIN BOND
M  V30 1 1 1 2
M  V30 2 1 2 3
M  V30 3 2 3 4
M  V30 4 1 4 5
M  V30 5 1 5 6
M  V30 6 2 6 7
M  V30 7 1 7 8
M  V30 8 2 8 9
M  V30 9 1 9 10
M  V30 10 1 10 11
M  V30 11 2 11 12
M  V30 12 1 12 13
M  V30 13 2 13 14
M  V30 14 1 14 15
M  V30 15 1 15 16
M  V30 16 1 16 17
M  V30 17 1 17 18
M  V30 18 1 18 19
M  V30 19 1 19 20
M  V30 20 1 14 21
M  V30 21 2 21 22
M  V30 22 2 10 23
M  V30 23 1 23 24
M  V30 24 2 5 25
M  V30 25 1 25 26
M  V30 26 1 26 27
M  V30 27 1 27 28
M  V30 28 2 26 29
M  V30 29 1 29 30
M  V30 30 1 29 3
M  V30 31 1 23 6
M  V30 32 1 22 11
M  V30 33 1 20 15
M  V30 34 1 1 31
M  V30 35 1 1 32
M  V30 36 1 1 33
M  V30 37 1 4 34
M  V30 38 1 7 35
M  V30 39 1 9 36
M  V30 40 1 12 37
M  V30 41 1 13 38
M  V30 42 1 16 39
M  V30 43 1 16 40
M  V30 44 1 17 41
M  V30 45 1 17 42
M  V30 46 1 18 43
M  V30 47 1 19 44
M  V30 48 1 19 45
M  V30 49 1 20 46
M  V30 50 1 20 47
M  V30 51 1 21 48
M  V30 52 1 22 49
M  V30 53 1 24 50
M  V30 54 1 24 51
M  V30 55 1 24 52
M  V30 56 1 25 53
M  V30 57 1 28 54
M  V30 58 1 28 55
M  V30 59 1 28 56
M  V30 END BOND
M  V30 END CTAB
M  END
>  <Dataset>  (449) 
ChEMBL_Kinases

>  <Ligand_Instance>  (449) 
nan

>  <PDB_ID>  (449) 
nan

>  <Standardized_SMILES>  (449) 
COc1cc(-c2cncc(-c3ccc(N4CCNCC4)cc3)c2C)cc(OC)c1F

>  <Name>  (449) 
nan

>  <Pocket>  (449) 
nan

>  <ATP_Site>  (449) 
nan

>  <Peripheral>  (449) 
nan

>  <Num_H_Atoms_ProtBoundConf>  (449) 
nan

>  <Num_Resolved_Atoms>  (449) 
nan

>  <Num_Not_Resolved_Atoms>  (449) 
nan

$$$$
CHEMBL1099346
     RDKit          3D

  0  0  0  0  0  0  0  0  0  0999 V3000
M  V30 BEGIN CTAB
M  V30 COUNTS 78 83 0 0 0
M  V30 BEGIN ATOM
M  V30 1 C -3.570304 -6.500832 2.282958 0
M  V30 2 C -2.249218 -7.075956 1.796910 0
M  V30 3 N -1.360741 -5.954862 1.486455 0
M  V30 4 C -0.523938 -5.397946 2.391837 0
M  V30 5 C 0.116168 -4.390523 1.687484 0
M  V30 6 C 1.122184 -3.491525 2.226950 0
M  V30 7 C 2.319997 -3.997319 2.685451 0
M  V30 8 C 3.210430 -3.067417 3.177210 0
M  V30 9 N 2.933299 -1.762473 3.208355 0
M  V30 10 C 1.768196 -1.278914 2.761402 0
M  V30 11 N 1.243175 -0.067029 2.675103 0
M  V30 12 C 0.019266 0.002946 2.155083 0
M  V30 13 C -0.951246 1.031164 1.845967 0
M  V30 14 C -2.174611 0.666600 1.320074 0
M  V30 15 C -3.165613 1.553019 0.987258 0
M  V30 16 C -4.462414 1.103007 0.426294 0
M  V30 17 N -4.417539 1.031391 -1.015465 0
M  V30 18 C -4.128934 2.274894 -1.653288 0
M  V30 19 C -5.491357 0.276077 -1.579980 0
M  V30 20 C -2.967762 2.893766 1.173382 0
M  V30 21 C -1.754154 3.268533 1.695981 0
M  V30 22 C -0.732653 2.373708 2.040386 0
M  V30 23 C 0.521837 2.904754 2.585259 0
M  V30 24 C -0.223170 -1.340664 1.895283 0
M  V30 25 C 0.829010 -2.144448 2.256139 0
M  V30 26 C -0.351862 -4.364266 0.369435 0
M  V30 27 C 0.126734 -3.413167 -0.637270 0
M  V30 28 C -0.575672 -2.454025 -1.332071 0
M  V30 29 C 0.082586 -1.661263 -2.240352 0
M  V30 30 C 1.434679 -1.818249 -2.460199 0
M  V30 31 N 2.141344 -1.002253 -3.402501 0
M  V30 32 C 2.651984 0.173969 -2.779138 0
M  V30 33 O 2.355348 0.212366 -1.538903 0
M  V30 34 N 3.391126 1.175290 -3.433547 0
M  V30 35 C 3.894240 2.342965 -2.800627 0
M  V30 36 C 5.165189 2.174335 -2.278860 0
M  V30 37 C 5.849433 3.198363 -1.613142 0
M  V30 38 C 5.226372 4.423904 -1.474447 0
M  V30 39 C 3.967187 4.588580 -1.992195 0
M  V30 40 C 3.296727 3.587908 -2.643560 0
M  V30 41 C 2.160022 -2.773958 -1.774825 0
M  V30 42 C 1.494605 -3.584835 -0.847888 0
M  V30 43 N -1.268243 -5.366802 0.321496 0
M  V30 44 H -3.947356 -5.695567 1.635526 0
M  V30 45 H -3.447397 -6.048564 3.296574 0
M  V30 46 H -4.306052 -7.312364 2.409316 0
M  V30 47 H -2.469411 -7.692943 0.923995 0
M  V30 48 H -1.818671 -7.665609 2.619388 0
M  V30 49 H -0.350420 -5.640801 3.440428 0
M  V30 50 H 2.461258 -5.048957 2.624981 0
M  V30 51 H 4.155438 -3.427237 3.543518 0
M  V30 52 H 1.767230 0.759805 2.999953 0
M  V30 53 H -2.440716 -0.371493 1.130465 0
M  V30 54 H -4.742163 0.102492 0.820630 0
M  V30 55 H -5.246052 1.864991 0.672420 0
M  V30 56 H -4.416836 2.193294 -2.738655 0
M  V30 57 H -4.634001 3.160908 -1.232324 0
M  V30 58 H -3.019539 2.422679 -1.666716 0
M  V30 59 H -5.299120 -0.836544 -1.561845 0
M  V30 60 H -5.524348 0.515941 -2.672136 0
M  V30 61 H -6.492218 0.480988 -1.140365 0
M  V30 62 H -3.713511 3.632136 0.929087 0
M  V30 63 H -1.612030 4.340172 1.838375 0
M  V30 64 H 1.412942 2.734416 1.915216 0
M  V30 65 H 0.431391 4.041473 2.551166 0
M  V30 66 H 0.691270 2.676062 3.636818 0
M  V30 67 H -1.103234 -1.840153 1.458698 0
M  V30 68 H -1.609492 -2.422275 -1.082623 0
M  V30 69 H -0.493046 -0.916123 -2.772091 0
M  V30 70 H 2.331283 -1.134614 -4.438215 0
M  V30 71 H 3.572583 1.033273 -4.454060 0
M  V30 72 H 5.750292 1.250253 -2.331040 0
M  V30 73 H 6.832442 3.083927 -1.203887 0
M  V30 74 H 5.717399 5.260326 -0.961630 0
M  V30 75 H 3.457122 5.536084 -1.897871 0
M  V30 76 H 2.305668 3.631247 -3.080826 0
M  V30 77 H 3.232362 -2.868764 -1.976825 0
M  V30 78 H 2.150075 -4.297743 -0.367422 0
M  V30 END ATOM
M  V30 BEGIN BOND
M  V30 1 1 1 2
M  V30 2 1 2 3
M  V30 3 1 3 4
M  V30 4 2 4 5
M  V30 5 1 5 6
M  V30 6 2 6 7
M  V30 7 1 7 8
M  V30 8 2 8 9
M  V30 9 1 9 10
M  V30 10 1 10 11
M  V30 11 1 11 12
M  V30 12 1 12 13
M  V30 13 2 13 14
M  V30 14 1 14 15
M  V30 15 1 15 16
M  V30 16 1 16 17
M  V30 17 1 17 18
M  V30 18 1 17 19
M  V30 19 2 15 20
M  V30 20 1 20 21
M  V30 21 2 21 22
M  V30 22 1 22 23
M  V30 23 2 12 24
M  V30 24 1 24 25
M  V30 25 1 5 26
M  V30 26 1 26 27
M  V30 27 2 27 28
M  V30 28 1 28 29
M  V30 29 2 29 30
M  V30 30 1 30 31
M  V30 31 1 31 32
M  V30 32 2 32 33
M  V30 33 1 32 34
M  V30 34 1 34 35
M  V30 35 2 35 36
M  V30 36 1 36 37
M  V30 37 2 37 38
M  V30 38 1 38 39
M  V30 39 2 39 40
M  V30 40 1 30 41
M  V30 41 2 41 42
M  V30 42 2 26 43
M  V30 43 1 43 3
M  V30 44 1 25 6
M  V30 45 1 42 27
M  V30 46 2 25 10
M  V30 47 1 40 35
M  V30 48 1 22 13
M  V30 49 1 1 44
M  V30 50 1 1 45
M  V30 51 1 1 46
M  V30 52 1 2 47
M  V30 53 1 2 48
M  V30 54 1 4 49
M  V30 55 1 7 50
M  V30 56 1 8 51
M  V30 57 1 11 52
M  V30 58 1 14 53
M  V30 59 1 16 54
M  V30 60 1 16 55
M  V30 61 1 18 56
M  V30 62 1 18 57
M  V30 63 1 18 58
M  V30 64 1 19 59
M  V30 65 1 19 60
M  V30 66 1 19 61
M  V30 67 1 20 62
M  V30 68 1 21 63
M  V30 69 1 23 64
M  V30 70 1 23 65
M  V30 71 1 23 66
M  V30 72 1 24 67
M  V30 73 1 28 68
M  V30 74 1 29 69
M  V30 75 1 31 70
M  V30 76 1 34 71
M  V30 77 1 36 72
M  V30 78 1 37 73
M  V30 79 1 38 74
M  V30 80 1 39 75
M  V30 81 1 40 76
M  V30 82 1 41 77
M  V30 83 1 42 78
M  V30 END BOND
M  V30 END CTAB
M  END
>  <Dataset>  (450) 
ChEMBL_Kinases

>  <Ligand_Instance>  (450) 
nan

>  <PDB_ID>  (450) 
nan

>  <Standardized_SMILES>  (450) 
CCn1cc(-c2ccnc3[nH]c(-c4cc(CN(C)C)ccc4C)cc23)c(-c2ccc(NC(=O)Nc3ccccc3)cc2)n1

>  <Name>  (450) 
nan

>  <Pocket>  (450) 
nan

>  <ATP_Site>  (450) 
nan

>  <Peripheral>  (450) 
nan

>  <Num_H_Atoms_ProtBoundConf>  (450) 
nan

>  <Num_Resolved_Atoms>  (450) 
nan

>  <Num_Not_Resolved_Atoms>  (450) 
nan

$$$$
CHEMBL592702
     RDKit          3D

  0  0  0  0  0  0  0  0  0  0999 V3000
M  V30 BEGIN CTAB
M  V30 COUNTS 51 54 0 0 0
M  V30 BEGIN ATOM
M  V30 1 C 0.471742 -4.671467 0.926798 0
M  V30 2 N 0.091582 -4.249194 -0.385871 0
M  V30 3 C -1.280639 -3.873742 -0.485613 0
M  V30 4 C -1.570334 -2.791689 -1.466115 0
M  V30 5 C -1.335815 -1.397118 -0.978640 0
M  V30 6 N -0.098489 -1.257036 -0.253225 0
M  V30 7 C 0.149873 -0.055034 0.457858 0
M  V30 8 N 1.233572 0.664806 0.042087 0
M  V30 9 C 1.595868 1.825417 0.616024 0
M  V30 10 C 2.773213 2.497685 0.079147 0
M  V30 11 C 3.433154 1.902085 -0.975454 0
M  V30 12 C 4.559603 2.567516 -1.471792 0
M  V30 13 N 5.043915 3.733183 -1.003422 0
M  V30 14 C 4.388618 4.311710 0.033769 0
M  V30 15 C 3.265936 3.690860 0.561259 0
M  V30 16 C 0.853317 2.318165 1.665035 0
M  V30 17 N -0.219714 1.631378 2.096857 0
M  V30 18 C -0.565062 0.472454 1.509023 0
M  V30 19 N -1.695681 -0.263986 1.955903 0
M  V30 20 C -2.062458 -1.573676 2.482766 0
M  V30 21 C -2.603288 -1.145819 3.854435 0
M  V30 22 C -3.473550 0.022804 3.427766 0
M  V30 23 C -3.050449 0.312710 1.981502 0
M  V30 24 C 1.083868 -2.076826 -0.019420 0
M  V30 25 C 1.015318 -3.285479 -0.898645 0
M  V30 26 H 0.009299 -5.680183 1.078171 0
M  V30 27 H 1.569713 -4.836121 0.939433 0
M  V30 28 H 0.110878 -4.055955 1.753846 0
M  V30 29 H -1.777876 -3.625564 0.458122 0
M  V30 30 H -1.831901 -4.785601 -0.863435 0
M  V30 31 H -1.137357 -2.996742 -2.485646 0
M  V30 32 H -2.682718 -2.852807 -1.663849 0
M  V30 33 H -1.215819 -0.762541 -1.905733 0
M  V30 34 H -2.194550 -0.960489 -0.455404 0
M  V30 35 H 3.132563 0.972548 -1.425877 0
M  V30 36 H 5.127950 2.144784 -2.310065 0
M  V30 37 H 4.735697 5.248226 0.447797 0
M  V30 38 H 2.777203 4.173338 1.374341 0
M  V30 39 H 1.133451 3.250062 2.135575 0
M  V30 40 H -2.868358 -2.008158 1.863262 0
M  V30 41 H -1.189141 -2.227480 2.603233 0
M  V30 42 H -3.135903 -1.947201 4.361403 0
M  V30 43 H -1.704279 -0.756681 4.402911 0
M  V30 44 H -4.559270 -0.214226 3.483378 0
M  V30 45 H -3.209520 0.886441 4.070581 0
M  V30 46 H -3.042964 1.404490 1.808994 0
M  V30 47 H -3.717529 -0.250652 1.300165 0
M  V30 48 H 1.063841 -2.370651 1.056812 0
M  V30 49 H 2.004680 -1.478237 -0.218374 0
M  V30 50 H 2.028307 -3.755957 -0.922103 0
M  V30 51 H 0.817204 -2.951060 -1.914910 0
M  V30 END ATOM
M  V30 BEGIN BOND
M  V30 1 1 1 2
M  V30 2 1 2 3
M  V30 3 1 3 4
M  V30 4 1 4 5
M  V30 5 1 5 6
M  V30 6 1 6 7
M  V30 7 2 7 8
M  V30 8 1 8 9
M  V30 9 1 9 10
M  V30 10 2 10 11
M  V30 11 1 11 12
M  V30 12 2 12 13
M  V30 13 1 13 14
M  V30 14 2 14 15
M  V30 15 2 9 16
M  V30 16 1 16 17
M  V30 17 2 17 18
M  V30 18 1 18 19
M  V30 19 1 19 20
M  V30 20 1 20 21
M  V30 21 1 21 22
M  V30 22 1 22 23
M  V30 23 1 6 24
M  V30 24 1 24 25
M  V30 25 1 25 2
M  V30 26 1 18 7
M  V30 27 1 23 19
M  V30 28 1 15 10
M  V30 29 1 1 26
M  V30 30 1 1 27
M  V30 31 1 1 28
M  V30 32 1 3 29
M  V30 33 1 3 30
M  V30 34 1 4 31
M  V30 35 1 4 32
M  V30 36 1 5 33
M  V30 37 1 5 34
M  V30 38 1 11 35
M  V30 39 1 12 36
M  V30 40 1 14 37
M  V30 41 1 15 38
M  V30 42 1 16 39
M  V30 43 1 20 40
M  V30 44 1 20 41
M  V30 45 1 21 42
M  V30 46 1 21 43
M  V30 47 1 22 44
M  V30 48 1 22 45
M  V30 49 1 23 46
M  V30 50 1 23 47
M  V30 51 1 24 48
M  V30 52 1 24 49
M  V30 53 1 25 50
M  V30 54 1 25 51
M  V30 END BOND
M  V30 END CTAB
M  END
>  <Dataset>  (451) 
ChEMBL_Kinases

>  <Ligand_Instance>  (451) 
nan

>  <PDB_ID>  (451) 
nan

>  <Standardized_SMILES>  (451) 
CN1CCCN(c2nc(-c3ccncc3)cnc2N2CCCC2)CC1

>  <Name>  (451) 
nan

>  <Pocket>  (451) 
nan

>  <ATP_Site>  (451) 
nan

>  <Peripheral>  (451) 
nan

>  <Num_H_Atoms_ProtBoundConf>  (451) 
nan

>  <Num_Resolved_Atoms>  (451) 
nan

>  <Num_Not_Resolved_Atoms>  (451) 
nan

$$$$
CHEMBL574819
     RDKit          3D

  0  0  0  0  0  0  0  0  0  0999 V3000
M  V30 BEGIN CTAB
M  V30 COUNTS 36 39 0 0 0
M  V30 BEGIN ATOM
M  V30 1 O -0.246646 -0.642616 4.922610 0
M  V30 2 C 0.130587 -0.597106 3.730522 0
M  V30 3 N 0.668193 -1.565879 2.977403 0
M  V30 4 C 0.995359 -1.271031 1.709836 0
M  V30 5 C 1.591359 -2.366881 0.902463 0
M  V30 6 N 0.581668 -3.139027 0.204384 0
M  V30 7 C 1.182752 -4.185288 -0.563874 0
M  V30 8 C 0.219632 -4.419626 -1.726006 0
M  V30 9 C -0.146757 -2.996114 -2.064832 0 CFG=1
M  V30 10 O -1.406361 -2.884267 -2.636098 0
M  V30 11 C -0.031130 -2.252166 -0.764779 0
M  V30 12 N 0.825829 -0.089953 1.145920 0
M  V30 13 C 0.303742 0.980044 1.759203 0
M  V30 14 C -0.027611 0.631081 3.089202 0
M  V30 15 S -0.739546 2.235679 3.795878 0
M  V30 16 C -0.511952 3.156954 2.259736 0
M  V30 17 C -0.814029 4.430616 2.018052 0
M  V30 18 C -0.572632 4.981848 0.777779 0
M  V30 19 C -0.013976 4.097647 -0.119362 0
M  V30 20 Cl 0.315641 4.763787 -1.733823 0
M  V30 21 C 0.302684 2.782633 0.115601 0
M  V30 22 C 0.051352 2.257298 1.362547 0
M  V30 23 H 0.786865 -2.472838 3.445337 0
M  V30 24 H 2.277760 -2.980681 1.519119 0
M  V30 25 H 2.232714 -1.900742 0.127569 0
M  V30 26 H 2.169091 -3.898431 -0.929575 0
M  V30 27 H 1.288076 -5.138089 -0.007709 0
M  V30 28 H 0.732597 -4.920135 -2.569272 0
M  V30 29 H -0.659293 -4.995143 -1.385933 0
M  V30 30 H 0.606993 -2.648989 -2.823975 0
M  V30 31 H -2.122148 -2.968886 -1.972743 0
M  V30 32 H 0.602133 -1.371893 -0.955798 0
M  V30 33 H -1.055607 -1.981980 -0.438723 0
M  V30 34 H -1.247438 5.023282 2.799254 0
M  V30 35 H -0.794012 6.002688 0.520859 0
M  V30 36 H 0.737780 2.217331 -0.695789 0
M  V30 END ATOM
M  V30 BEGIN BOND
M  V30 1 2 1 2
M  V30 2 1 2 3
M  V30 3 1 3 4
M  V30 4 1 4 5
M  V30 5 1 5 6
M  V30 6 1 6 7
M  V30 7 1 7 8
M  V30 8 1 8 9
M  V30 9 1 9 10
M  V30 10 1 9 11
M  V30 11 2 4 12
M  V30 12 1 12 13
M  V30 13 2 13 14
M  V30 14 1 14 15
M  V30 15 1 15 16
M  V30 16 2 16 17
M  V30 17 1 17 18
M  V30 18 2 18 19
M  V30 19 1 19 20
M  V30 20 1 19 21
M  V30 21 2 21 22
M  V30 22 1 14 2
M  V30 23 1 22 16
M  V30 24 1 11 6
M  V30 25 1 22 13
M  V30 26 1 3 23
M  V30 27 1 5 24
M  V30 28 1 5 25
M  V30 29 1 7 26
M  V30 30 1 7 27
M  V30 31 1 8 28
M  V30 32 1 8 29
M  V30 33 1 9 30 CFG=3
M  V30 34 1 10 31
M  V30 35 1 11 32
M  V30 36 1 11 33
M  V30 37 1 17 34
M  V30 38 1 18 35
M  V30 39 1 21 36
M  V30 END BOND
M  V30 END CTAB
M  END
>  <Dataset>  (452) 
ChEMBL_Kinases

>  <Ligand_Instance>  (452) 
nan

>  <PDB_ID>  (452) 
nan

>  <Standardized_SMILES>  (452) 
O=c1[nH]c(CN2CC[C@@H](O)C2)nc2c1sc1ccc(Cl)cc12

>  <Name>  (452) 
nan

>  <Pocket>  (452) 
nan

>  <ATP_Site>  (452) 
nan

>  <Peripheral>  (452) 
nan

>  <Num_H_Atoms_ProtBoundConf>  (452) 
nan

>  <Num_Resolved_Atoms>  (452) 
nan

>  <Num_Not_Resolved_Atoms>  (452) 
nan

$$$$
CHEMBL1099347
     RDKit          3D

  0  0  0  0  0  0  0  0  0  0999 V3000
M  V30 BEGIN CTAB
M  V30 COUNTS 75 80 0 0 0
M  V30 BEGIN ATOM
M  V30 1 C 4.627884 -6.721754 1.029593 0
M  V30 2 C 5.118020 -5.890215 2.202503 0
M  V30 3 N 4.392078 -4.618030 2.253690 0
M  V30 4 C 4.776217 -3.472553 1.624320 0
M  V30 5 C 3.841855 -2.502418 1.911028 0
M  V30 6 C 4.040216 -1.180373 1.342427 0
M  V30 7 C 5.186299 -0.545277 1.791786 0
M  V30 8 C 5.533410 0.728734 1.345821 0
M  V30 9 N 4.718277 1.342320 0.452690 0
M  V30 10 C 3.612222 0.746141 0.010813 0
M  V30 11 N 2.643494 1.111357 -0.854380 0
M  V30 12 C 1.714910 0.119402 -0.961583 0
M  V30 13 C 0.524353 0.148251 -1.800533 0
M  V30 14 C -0.376210 -0.905661 -1.849502 0
M  V30 15 C -1.462897 -0.793861 -2.658051 0
M  V30 16 C -1.755334 0.290773 -3.447640 0
M  V30 17 C -2.873068 0.558626 -4.357273 0
M  V30 18 N -2.619724 0.117558 -5.729586 0
M  V30 19 C -3.758323 0.476345 -6.582115 0
M  V30 20 C -2.460137 -1.329453 -5.783424 0
M  V30 21 C -0.843582 1.353289 -3.395891 0
M  V30 22 C 0.276175 1.265347 -2.576927 0
M  V30 23 C 2.080552 -0.949178 -0.133765 0
M  V30 24 C 3.249426 -0.506673 0.434920 0
M  V30 25 C 2.893495 -3.087340 2.722342 0
M  V30 26 C 1.746592 -2.335185 3.215689 0
M  V30 27 C 0.513286 -2.890111 2.861795 0
M  V30 28 C -0.660947 -2.248081 3.281510 0
M  V30 29 C -0.593565 -1.085093 4.033269 0
M  V30 30 N -1.876877 -0.559128 4.379881 0
M  V30 31 C -2.493866 0.358053 3.489886 0
M  V30 32 O -1.829017 0.615728 2.473006 0
M  V30 33 N -3.745058 0.961329 3.676434 0
M  V30 34 C -4.439172 1.874784 2.852831 0
M  V30 35 C -5.666730 2.348801 3.235277 0
M  V30 36 C -6.399749 3.231924 2.489268 0
M  V30 37 C -5.928027 3.707198 1.278173 0
M  V30 38 C -4.682086 3.261074 0.834808 0
M  V30 39 C -4.011108 2.373840 1.643260 0
M  V30 40 C 0.636456 -0.552333 4.372502 0
M  V30 41 C 1.797515 -1.178788 3.962864 0
M  V30 42 N 3.263169 -4.375431 2.908259 0
M  V30 43 H 3.585200 -6.452551 0.822284 0
M  V30 44 H 4.673351 -7.796347 1.234167 0
M  V30 45 H 5.216428 -6.488037 0.104588 0
M  V30 46 H 6.206054 -5.715500 2.039751 0
M  V30 47 H 4.948783 -6.494660 3.104781 0
M  V30 48 H 5.693676 -3.436431 1.013701 0
M  V30 49 H 5.905773 -0.953947 2.505331 0
M  V30 50 H 6.418716 1.253305 1.675946 0
M  V30 51 H 2.647323 2.031050 -1.346931 0
M  V30 52 H -0.209297 -1.782822 -1.260574 0
M  V30 53 H -2.198197 -1.581778 -2.736291 0
M  V30 54 H -3.802362 -0.011464 -4.062222 0
M  V30 55 H -3.186508 1.614465 -4.356851 0
M  V30 56 H -4.633178 0.740977 -5.976531 0
M  V30 57 H -4.014775 -0.415730 -7.178219 0
M  V30 58 H -3.442687 1.336098 -7.208069 0
M  V30 59 H -2.937385 -1.702703 -6.735788 0
M  V30 60 H -2.978219 -1.860677 -4.967323 0
M  V30 61 H -1.402904 -1.628371 -5.821641 0
M  V30 62 H -0.932231 2.286151 -3.964336 0
M  V30 63 H 0.986530 2.094470 -2.536278 0
M  V30 64 H 1.576997 -1.900490 0.029867 0
M  V30 65 H 0.425454 -3.811214 2.266927 0
M  V30 66 H -1.592899 -2.716073 2.985244 0
M  V30 67 H -2.398718 -0.811030 5.264892 0
M  V30 68 H -4.191121 0.660594 4.572634 0
M  V30 69 H -6.092961 2.006879 4.184076 0
M  V30 70 H -7.358646 3.553695 2.866684 0
M  V30 71 H -6.513249 4.404378 0.695334 0
M  V30 72 H -4.278111 3.606852 -0.104305 0
M  V30 73 H -3.056915 2.066199 1.247527 0
M  V30 74 H 0.626022 0.349817 4.954407 0
M  V30 75 H 2.755750 -0.790158 4.208091 0
M  V30 END ATOM
M  V30 BEGIN BOND
M  V30 1 1 1 2
M  V30 2 1 2 3
M  V30 3 1 3 4
M  V30 4 2 4 5
M  V30 5 1 5 6
M  V30 6 2 6 7
M  V30 7 1 7 8
M  V30 8 2 8 9
M  V30 9 1 9 10
M  V30 10 1 10 11
M  V30 11 1 11 12
M  V30 12 1 12 13
M  V30 13 2 13 14
M  V30 14 1 14 15
M  V30 15 2 15 16
M  V30 16 1 16 17
M  V30 17 1 17 18
M  V30 18 1 18 19
M  V30 19 1 18 20
M  V30 20 1 16 21
M  V30 21 2 21 22
M  V30 22 2 12 23
M  V30 23 1 23 24
M  V30 24 1 5 25
M  V30 25 1 25 26
M  V30 26 2 26 27
M  V30 27 1 27 28
M  V30 28 2 28 29
M  V30 29 1 29 30
M  V30 30 1 30 31
M  V30 31 2 31 32
M  V30 32 1 31 33
M  V30 33 1 33 34
M  V30 34 2 34 35
M  V30 35 1 35 36
M  V30 36 2 36 37
M  V30 37 1 37 38
M  V30 38 2 38 39
M  V30 39 1 29 40
M  V30 40 2 40 41
M  V30 41 2 25 42
M  V30 42 1 42 3
M  V30 43 1 24 6
M  V30 44 1 41 26
M  V30 45 2 24 10
M  V30 46 1 39 34
M  V30 47 1 22 13
M  V30 48 1 1 43
M  V30 49 1 1 44
M  V30 50 1 1 45
M  V30 51 1 2 46
M  V30 52 1 2 47
M  V30 53 1 4 48
M  V30 54 1 7 49
M  V30 55 1 8 50
M  V30 56 1 11 51
M  V30 57 1 14 52
M  V30 58 1 15 53
M  V30 59 1 17 54
M  V30 60 1 17 55
M  V30 61 1 19 56
M  V30 62 1 19 57
M  V30 63 1 19 58
M  V30 64 1 20 59
M  V30 65 1 20 60
M  V30 66 1 20 61
M  V30 67 1 21 62
M  V30 68 1 22 63
M  V30 69 1 23 64
M  V30 70 1 27 65
M  V30 71 1 28 66
M  V30 72 1 30 67
M  V30 73 1 33 68
M  V30 74 1 35 69
M  V30 75 1 36 70
M  V30 76 1 37 71
M  V30 77 1 38 72
M  V30 78 1 39 73
M  V30 79 1 40 74
M  V30 80 1 41 75
M  V30 END BOND
M  V30 END CTAB
M  END
>  <Dataset>  (453) 
ChEMBL_Kinases

>  <Ligand_Instance>  (453) 
nan

>  <PDB_ID>  (453) 
nan

>  <Standardized_SMILES>  (453) 
CCn1cc(-c2ccnc3[nH]c(-c4ccc(CN(C)C)cc4)cc23)c(-c2ccc(NC(=O)Nc3ccccc3)cc2)n1

>  <Name>  (453) 
nan

>  <Pocket>  (453) 
nan

>  <ATP_Site>  (453) 
nan

>  <Peripheral>  (453) 
nan

>  <Num_H_Atoms_ProtBoundConf>  (453) 
nan

>  <Num_Resolved_Atoms>  (453) 
nan

>  <Num_Not_Resolved_Atoms>  (453) 
nan

$$$$
CHEMBL570924
     RDKit          3D

  0  0  0  0  0  0  0  0  0  0999 V3000
M  V30 BEGIN CTAB
M  V30 COUNTS 65 70 0 0 0
M  V30 BEGIN ATOM
M  V30 1 C 2.873237 3.477135 3.790272 0
M  V30 2 C 1.953348 2.388466 4.118910 0
M  V30 3 C 2.006901 1.206737 3.371165 0
M  V30 4 N 2.856755 0.925399 2.300834 0
M  V30 5 C 3.343322 1.282826 1.045224 0
M  V30 6 C 4.629088 1.842645 1.021448 0
M  V30 7 C 5.432870 1.998357 2.228032 0
M  V30 8 N 6.065780 2.111397 3.207733 0
M  V30 9 C 5.279398 2.282176 -0.111250 0
M  V30 10 N 4.580029 2.137056 -1.247886 0
M  V30 11 C 3.349663 1.608266 -1.282719 0
M  V30 12 C 2.689050 1.166011 -0.159997 0
M  V30 13 C 1.354414 0.592577 -0.233946 0
M  V30 14 C 0.694430 0.482905 -1.435855 0
M  V30 15 C -0.546510 -0.086038 -1.263647 0
M  V30 16 C -1.590919 -0.419892 -2.094312 0
M  V30 17 C -2.736116 -0.996752 -1.589584 0
M  V30 18 C -3.926164 -1.410001 -2.332798 0
M  V30 19 N -3.938645 -2.755665 -2.800572 0
M  V30 20 C -2.920296 -3.124356 -3.721749 0
M  V30 21 C -1.854532 -4.010152 -3.113886 0
M  V30 22 N -2.422030 -5.245164 -2.600420 0 CHG=1 VAL=4
M  V30 23 C -2.143732 -6.341319 -3.500274 0
M  V30 24 O -1.851147 -5.519801 -1.405958 0 CHG=-1 VAL=1
M  V30 25 C -3.853520 -5.099630 -2.357489 0
M  V30 26 C -4.045267 -3.728103 -1.727925 0
M  V30 27 C -2.754634 -1.210010 -0.211208 0
M  V30 28 C -1.713487 -0.880995 0.641520 0
M  V30 29 C -0.562182 -0.295827 0.097391 0
M  V30 30 O 0.533621 0.102201 0.645404 0
M  V30 31 C 1.087257 0.224305 3.744155 0
M  V30 32 C 0.162496 0.323640 4.755824 0
M  V30 33 C 0.211163 1.533032 5.414430 0
M  V30 34 N -0.544553 1.975106 6.451426 0
M  V30 35 C -0.210791 3.216370 6.833885 0
M  V30 36 C 0.821036 3.628440 6.012174 0
M  V30 37 C 1.059442 2.576990 5.151535 0
M  V30 38 H 2.421118 4.450107 4.146927 0
M  V30 39 H 3.846221 3.423310 4.274098 0
M  V30 40 H 2.973385 3.509895 2.690312 0
M  V30 41 H 3.394338 0.037740 2.503201 0
M  V30 42 H 6.268409 2.711905 -0.119119 0
M  V30 43 H 2.910952 1.554381 -2.268698 0
M  V30 44 H 1.038633 0.782045 -2.429949 0
M  V30 45 H -1.541766 -0.236884 -3.152188 0
M  V30 46 H -4.012895 -0.755108 -3.247685 0
M  V30 47 H -4.817805 -1.192070 -1.710217 0
M  V30 48 H -2.421293 -2.221856 -4.114397 0
M  V30 49 H -3.343133 -3.624675 -4.638181 0
M  V30 50 H -1.151218 -4.282167 -3.927833 0
M  V30 51 H -1.305965 -3.464347 -2.338956 0
M  V30 52 H -2.751576 -7.227547 -3.305084 0
M  V30 53 H -2.278501 -5.970127 -4.555699 0
M  V30 54 H -1.075539 -6.629882 -3.410288 0
M  V30 55 H -4.440077 -5.180402 -3.303622 0
M  V30 56 H -4.166779 -5.918713 -1.669653 0
M  V30 57 H -4.978886 -3.615735 -1.179334 0
M  V30 58 H -3.162448 -3.592776 -1.046991 0
M  V30 59 H -3.619045 -1.662041 0.291278 0
M  V30 60 H -1.775700 -1.066346 1.704998 0
M  V30 61 H 1.082404 -0.721657 3.198302 0
M  V30 62 H -0.509349 -0.471072 4.982494 0
M  V30 63 H -1.302004 1.434641 6.916461 0
M  V30 64 H -0.669634 3.782972 7.638083 0
M  V30 65 H 1.338315 4.580273 6.036642 0
M  V30 END ATOM
M  V30 BEGIN BOND
M  V30 1 1 1 2
M  V30 2 2 2 3
M  V30 3 1 3 4
M  V30 4 1 4 5
M  V30 5 2 5 6
M  V30 6 1 6 7
M  V30 7 3 7 8
M  V30 8 1 6 9
M  V30 9 2 9 10
M  V30 10 1 10 11
M  V30 11 2 11 12
M  V30 12 1 12 13
M  V30 13 2 13 14
M  V30 14 1 14 15
M  V30 15 2 15 16
M  V30 16 1 16 17
M  V30 17 1 17 18
M  V30 18 1 18 19
M  V30 19 1 19 20
M  V30 20 1 20 21
M  V30 21 1 21 22
M  V30 22 1 22 23
M  V30 23 1 22 24
M  V30 24 1 22 25
M  V30 25 1 25 26
M  V30 26 2 17 27
M  V30 27 1 27 28
M  V30 28 2 28 29
M  V30 29 1 29 30
M  V30 30 1 3 31
M  V30 31 2 31 32
M  V30 32 1 32 33
M  V30 33 1 33 34
M  V30 34 1 34 35
M  V30 35 2 35 36
M  V30 36 1 36 37
M  V30 37 1 37 2
M  V30 38 1 12 5
M  V30 39 1 30 13
M  V30 40 2 37 33
M  V30 41 1 29 15
M  V30 42 1 26 19
M  V30 43 1 1 38
M  V30 44 1 1 39
M  V30 45 1 1 40
M  V30 46 1 4 41
M  V30 47 1 9 42
M  V30 48 1 11 43
M  V30 49 1 14 44
M  V30 50 1 16 45
M  V30 51 1 18 46
M  V30 52 1 18 47
M  V30 53 1 20 48
M  V30 54 1 20 49
M  V30 55 1 21 50
M  V30 56 1 21 51
M  V30 57 1 23 52
M  V30 58 1 23 53
M  V30 59 1 23 54
M  V30 60 1 25 55
M  V30 61 1 25 56
M  V30 62 1 26 57
M  V30 63 1 26 58
M  V30 64 1 27 59
M  V30 65 1 28 60
M  V30 66 1 31 61
M  V30 67 1 32 62
M  V30 68 1 34 63
M  V30 69 1 35 64
M  V30 70 1 36 65
M  V30 END BOND
M  V30 END CTAB
M  END
>  <Dataset>  (454) 
ChEMBL_Kinases

>  <Ligand_Instance>  (454) 
nan

>  <PDB_ID>  (454) 
nan

>  <Standardized_SMILES>  (454) 
Cc1c(Nc2c(C#N)cncc2-c2cc3cc(CN4CC[N+](C)([O-])CC4)ccc3o2)ccc2[nH]ccc12

>  <Name>  (454) 
nan

>  <Pocket>  (454) 
nan

>  <ATP_Site>  (454) 
nan

>  <Peripheral>  (454) 
nan

>  <Num_H_Atoms_ProtBoundConf>  (454) 
nan

>  <Num_Resolved_Atoms>  (454) 
nan

>  <Num_Not_Resolved_Atoms>  (454) 
nan

$$$$
CHEMBL1099348
     RDKit          3D

  0  0  0  0  0  0  0  0  0  0999 V3000
M  V30 BEGIN CTAB
M  V30 COUNTS 78 83 0 0 0
M  V30 BEGIN ATOM
M  V30 1 C -3.756100 -6.963291 2.173666 0
M  V30 2 C -2.422727 -7.516782 1.677526 0
M  V30 3 N -1.511794 -6.385166 1.444839 0
M  V30 4 C -0.672955 -5.838026 2.315945 0
M  V30 5 C -0.053600 -4.822605 1.622276 0
M  V30 6 C 0.955146 -3.934656 2.178453 0
M  V30 7 C 2.136730 -4.451443 2.603179 0
M  V30 8 C 3.028685 -3.530526 3.117874 0
M  V30 9 N 2.762748 -2.216740 3.199624 0
M  V30 10 C 1.588660 -1.734950 2.773033 0
M  V30 11 N 1.045634 -0.515030 2.724778 0
M  V30 12 C -0.183797 -0.447527 2.214170 0
M  V30 13 C -1.152842 0.581629 1.961962 0
M  V30 14 C -2.361143 0.234114 1.381101 0
M  V30 15 C -3.372554 1.113821 1.089633 0
M  V30 16 C -3.203137 2.444530 1.384342 0
M  V30 17 C -4.248437 3.459288 1.101584 0
M  V30 18 N -4.130149 4.059686 -0.207324 0
M  V30 19 C -2.887586 4.736730 -0.408110 0
M  V30 20 C -4.436850 3.172980 -1.286395 0
M  V30 21 C -2.008160 2.802730 1.961222 0
M  V30 22 C -0.975714 1.910313 2.259640 0
M  V30 23 C 0.248291 2.417594 2.875155 0
M  V30 24 C -0.408658 -1.783826 1.919771 0
M  V30 25 C 0.650929 -2.591554 2.248334 0
M  V30 26 C -0.539217 -4.775113 0.321075 0
M  V30 27 C -0.093605 -3.816617 -0.683407 0
M  V30 28 C -0.790209 -2.836816 -1.360494 0
M  V30 29 C -0.138182 -2.050314 -2.273406 0
M  V30 30 C 1.202991 -2.197967 -2.548446 0
M  V30 31 N 1.870922 -1.390613 -3.484434 0
M  V30 32 C 2.491310 -0.173772 -3.087696 0
M  V30 33 O 2.481334 0.251490 -1.887065 0
M  V30 34 N 3.190938 0.711884 -3.959428 0
M  V30 35 C 3.755136 1.890206 -3.400411 0
M  V30 36 C 5.064482 1.646466 -2.970981 0
M  V30 37 C 5.834879 2.634548 -2.388438 0
M  V30 38 C 5.283830 3.907928 -2.227924 0
M  V30 39 C 3.994173 4.135988 -2.654379 0
M  V30 40 C 3.229084 3.149608 -3.234339 0
M  V30 41 C 1.920199 -3.177419 -1.877849 0
M  V30 42 C 1.270796 -3.990436 -0.941705 0
M  V30 43 N -1.449014 -5.779161 0.274103 0
M  V30 44 H -3.617744 -6.519780 3.166975 0
M  V30 45 H -4.115643 -6.218039 1.431440 0
M  V30 46 H -4.492232 -7.765621 2.244659 0
M  V30 47 H -2.555791 -8.135614 0.780115 0
M  V30 48 H -1.987509 -8.086141 2.515455 0
M  V30 49 H -0.529274 -6.142008 3.335414 0
M  V30 50 H 2.415921 -5.490423 2.568034 0
M  V30 51 H 4.020038 -3.784181 3.500856 0
M  V30 52 H 1.575892 0.300236 3.069983 0
M  V30 53 H -2.605419 -0.801368 1.103119 0
M  V30 54 H -4.287266 0.812562 0.643525 0
M  V30 55 H -4.099127 4.263396 1.854447 0
M  V30 56 H -5.232692 3.010762 1.243949 0
M  V30 57 H -2.807865 5.659675 0.207798 0
M  V30 58 H -1.983860 4.105936 -0.249891 0
M  V30 59 H -2.850022 5.063087 -1.472529 0
M  V30 60 H -4.952702 3.702073 -2.131003 0
M  V30 61 H -3.518458 2.739659 -1.746137 0
M  V30 62 H -5.110092 2.334692 -1.032484 0
M  V30 63 H -1.894855 3.866117 2.187310 0
M  V30 64 H 0.099530 3.539926 3.017393 0
M  V30 65 H 1.108848 2.369783 2.204475 0
M  V30 66 H 0.404122 2.075523 3.915579 0
M  V30 67 H -1.288538 -2.279325 1.473335 0
M  V30 68 H -1.829589 -2.809942 -1.067727 0
M  V30 69 H -0.739197 -1.301832 -2.769590 0
M  V30 70 H 1.962288 -1.615427 -4.519359 0
M  V30 71 H 3.249574 0.436821 -4.981976 0
M  V30 72 H 5.608243 0.692538 -3.041401 0
M  V30 73 H 6.847204 2.490430 -2.043525 0
M  V30 74 H 5.872315 4.682717 -1.777055 0
M  V30 75 H 3.524950 5.095200 -2.553988 0
M  V30 76 H 2.216689 3.213248 -3.602842 0
M  V30 77 H 2.977960 -3.280466 -2.107006 0
M  V30 78 H 1.938686 -4.715865 -0.486490 0
M  V30 END ATOM
M  V30 BEGIN BOND
M  V30 1 1 1 2
M  V30 2 1 2 3
M  V30 3 1 3 4
M  V30 4 2 4 5
M  V30 5 1 5 6
M  V30 6 2 6 7
M  V30 7 1 7 8
M  V30 8 2 8 9
M  V30 9 1 9 10
M  V30 10 1 10 11
M  V30 11 1 11 12
M  V30 12 1 12 13
M  V30 13 2 13 14
M  V30 14 1 14 15
M  V30 15 2 15 16
M  V30 16 1 16 17
M  V30 17 1 17 18
M  V30 18 1 18 19
M  V30 19 1 18 20
M  V30 20 1 16 21
M  V30 21 2 21 22
M  V30 22 1 22 23
M  V30 23 2 12 24
M  V30 24 1 24 25
M  V30 25 1 5 26
M  V30 26 1 26 27
M  V30 27 2 27 28
M  V30 28 1 28 29
M  V30 29 2 29 30
M  V30 30 1 30 31
M  V30 31 1 31 32
M  V30 32 2 32 33
M  V30 33 1 32 34
M  V30 34 1 34 35
M  V30 35 2 35 36
M  V30 36 1 36 37
M  V30 37 2 37 38
M  V30 38 1 38 39
M  V30 39 2 39 40
M  V30 40 1 30 41
M  V30 41 2 41 42
M  V30 42 2 26 43
M  V30 43 1 43 3
M  V30 44 1 25 6
M  V30 45 1 42 27
M  V30 46 2 25 10
M  V30 47 1 40 35
M  V30 48 1 22 13
M  V30 49 1 1 44
M  V30 50 1 1 45
M  V30 51 1 1 46
M  V30 52 1 2 47
M  V30 53 1 2 48
M  V30 54 1 4 49
M  V30 55 1 7 50
M  V30 56 1 8 51
M  V30 57 1 11 52
M  V30 58 1 14 53
M  V30 59 1 15 54
M  V30 60 1 17 55
M  V30 61 1 17 56
M  V30 62 1 19 57
M  V30 63 1 19 58
M  V30 64 1 19 59
M  V30 65 1 20 60
M  V30 66 1 20 61
M  V30 67 1 20 62
M  V30 68 1 21 63
M  V30 69 1 23 64
M  V30 70 1 23 65
M  V30 71 1 23 66
M  V30 72 1 24 67
M  V30 73 1 28 68
M  V30 74 1 29 69
M  V30 75 1 31 70
M  V30 76 1 34 71
M  V30 77 1 36 72
M  V30 78 1 37 73
M  V30 79 1 38 74
M  V30 80 1 39 75
M  V30 81 1 40 76
M  V30 82 1 41 77
M  V30 83 1 42 78
M  V30 END BOND
M  V30 END CTAB
M  END
>  <Dataset>  (455) 
ChEMBL_Kinases

>  <Ligand_Instance>  (455) 
nan

>  <PDB_ID>  (455) 
nan

>  <Standardized_SMILES>  (455) 
CCn1cc(-c2ccnc3[nH]c(-c4ccc(CN(C)C)cc4C)cc23)c(-c2ccc(NC(=O)Nc3ccccc3)cc2)n1

>  <Name>  (455) 
nan

>  <Pocket>  (455) 
nan

>  <ATP_Site>  (455) 
nan

>  <Peripheral>  (455) 
nan

>  <Num_H_Atoms_ProtBoundConf>  (455) 
nan

>  <Num_Resolved_Atoms>  (455) 
nan

>  <Num_Not_Resolved_Atoms>  (455) 
nan

$$$$
CHEMBL213585
     RDKit          3D

  0  0  0  0  0  0  0  0  0  0999 V3000
M  V30 BEGIN CTAB
M  V30 COUNTS 38 42 0 0 0
M  V30 BEGIN ATOM
M  V30 1 O 2.775218 1.982998 1.660080 0
M  V30 2 C 2.310497 0.834645 1.875865 0
M  V30 3 N 2.693823 -0.126290 2.869091 0
M  V30 4 C 1.885356 -1.279575 2.726152 0
M  V30 5 O 2.110529 -2.193500 3.524087 0
M  V30 6 C 0.960141 -1.098660 1.641421 0
M  V30 7 C 1.235725 0.158514 1.159794 0
M  V30 8 C 0.508726 0.666245 0.083063 0
M  V30 9 C 0.757792 1.987906 -0.466051 0
M  V30 10 C 1.628483 2.335611 -1.475535 0
M  V30 11 C 1.747630 3.647938 -1.883069 0
M  V30 12 C 0.977320 4.608504 -1.260094 0
M  V30 13 C 0.087401 4.300643 -0.238444 0
M  V30 14 O -0.658274 5.313406 0.346943 0
M  V30 15 C -0.015200 2.968402 0.155557 0
M  V30 16 Cl -1.158226 2.666758 1.447809 0
M  V30 17 C -0.468496 -0.091326 -0.480363 0
M  V30 18 C -0.716656 -1.329960 0.018745 0
M  V30 19 N -1.603984 -2.278311 -0.332991 0
M  V30 20 C -1.457383 -3.352612 0.480682 0
M  V30 21 C -2.170993 -4.531655 0.453347 0
M  V30 22 C -1.888996 -5.529803 1.362752 0
M  V30 23 C -0.869915 -5.302392 2.295646 0
M  V30 24 O -0.597882 -6.316112 3.204118 0
M  V30 25 C -0.210700 -4.095899 2.248889 0
M  V30 26 C -0.448442 -3.082342 1.376600 0
M  V30 27 C -0.006017 -1.841774 1.080765 0
M  V30 28 H 3.478771 0.125242 3.540770 0
M  V30 29 H 2.183152 1.511549 -1.895914 0
M  V30 30 H 2.439452 3.887058 -2.677245 0
M  V30 31 H 1.050728 5.654840 -1.561832 0
M  V30 32 H -0.271576 6.245705 0.334997 0
M  V30 33 H -1.044173 0.304059 -1.328886 0
M  V30 34 H -2.291833 -2.161155 -1.128789 0
M  V30 35 H -2.951748 -4.682374 -0.275811 0
M  V30 36 H -2.478661 -6.432987 1.296542 0
M  V30 37 H -0.589551 -7.276144 2.909379 0
M  V30 38 H 0.542685 -4.018286 2.994109 0
M  V30 END ATOM
M  V30 BEGIN BOND
M  V30 1 2 1 2
M  V30 2 1 2 3
M  V30 3 1 3 4
M  V30 4 2 4 5
M  V30 5 1 4 6
M  V30 6 2 6 7
M  V30 7 1 7 8
M  V30 8 1 8 9
M  V30 9 2 9 10
M  V30 10 1 10 11
M  V30 11 2 11 12
M  V30 12 1 12 13
M  V30 13 1 13 14
M  V30 14 2 13 15
M  V30 15 1 15 16
M  V30 16 2 8 17
M  V30 17 1 17 18
M  V30 18 1 18 19
M  V30 19 1 19 20
M  V30 20 2 20 21
M  V30 21 1 21 22
M  V30 22 2 22 23
M  V30 23 1 23 24
M  V30 24 1 23 25
M  V30 25 2 25 26
M  V30 26 1 26 27
M  V30 27 1 7 2
M  V30 28 1 15 9
M  V30 29 2 27 18
M  V30 30 1 27 6
M  V30 31 1 26 20
M  V30 32 1 3 28
M  V30 33 1 10 29
M  V30 34 1 11 30
M  V30 35 1 12 31
M  V30 36 1 14 32
M  V30 37 1 17 33
M  V30 38 1 19 34
M  V30 39 1 21 35
M  V30 40 1 22 36
M  V30 41 1 24 37
M  V30 42 1 25 38
M  V30 END BOND
M  V30 END CTAB
M  END
>  <Dataset>  (456) 
ChEMBL_Kinases

>  <Ligand_Instance>  (456) 
nan

>  <PDB_ID>  (456) 
nan

>  <Standardized_SMILES>  (456) 
O=C1NC(=O)c2c1c(-c1cccc(O)c1Cl)cc1[nH]c3ccc(O)cc3c21

>  <Name>  (456) 
nan

>  <Pocket>  (456) 
nan

>  <ATP_Site>  (456) 
nan

>  <Peripheral>  (456) 
nan

>  <Num_H_Atoms_ProtBoundConf>  (456) 
nan

>  <Num_Resolved_Atoms>  (456) 
nan

>  <Num_Not_Resolved_Atoms>  (456) 
nan

$$$$
CHEMBL2088580
     RDKit          3D

  0  0  0  0  0  0  0  0  0  0999 V3000
M  V30 BEGIN CTAB
M  V30 COUNTS 49 53 0 0 0
M  V30 BEGIN ATOM
M  V30 1 O 5.285335 -2.778435 0.147851 0
M  V30 2 C 4.474379 -1.869735 0.500741 0
M  V30 3 N 4.603564 -1.443912 1.841360 0
M  V30 4 C 5.566472 -1.981968 2.746574 0
M  V30 5 C 6.071453 -1.261134 3.920773 0
M  V30 6 C 4.977580 -2.275562 4.141329 0
M  V30 7 C 3.511039 -1.359343 -0.473140 0
M  V30 8 C 3.567141 -1.925686 -1.730189 0
M  V30 9 C 2.655424 -1.450135 -2.670120 0
M  V30 10 C 1.720288 -0.452839 -2.386746 0
M  V30 11 F 0.855570 -0.029520 -3.346065 0
M  V30 12 C 1.725437 0.070751 -1.093012 0
M  V30 13 C 0.721088 1.109950 -0.866736 0
M  V30 14 C 1.045461 2.428429 -1.103970 0
M  V30 15 O 2.171506 2.767867 -1.506899 0
M  V30 16 C 0.088071 3.395303 -0.886012 0
M  V30 17 C -1.140094 2.977814 -0.441856 0
M  V30 18 N -1.525417 1.691759 -0.187855 0
M  V30 19 N -2.741497 1.402984 0.239547 0
M  V30 20 C -3.059534 0.093826 0.473748 0
M  V30 21 O -4.341435 0.062511 0.897175 0
M  V30 22 C -5.210407 -0.893633 1.277030 0
M  V30 23 C -5.278496 -2.255521 1.434622 0
M  V30 24 C -6.367874 -2.973141 1.863037 0
M  V30 25 C -7.498680 -2.246950 2.161615 0
M  V30 26 F -8.555304 -2.992382 2.582060 0
M  V30 27 C -7.544967 -0.873989 2.040428 0
M  V30 28 C -6.394571 -0.200579 1.596407 0
M  V30 29 F -6.688081 1.146255 1.558857 0
M  V30 30 C -2.066777 -0.827748 0.239692 0
M  V30 31 C -0.800578 -0.522284 -0.205793 0
M  V30 32 C -0.550496 0.816428 -0.420649 0
M  V30 33 C 2.619146 -0.383961 -0.143628 0
M  V30 34 H 3.939139 -0.685764 2.163885 0
M  V30 35 H 6.209965 -2.774566 2.290747 0
M  V30 36 H 5.890012 -0.193216 4.063755 0
M  V30 37 H 7.067650 -1.616177 4.316964 0
M  V30 38 H 5.229019 -3.276686 4.528055 0
M  V30 39 H 4.004603 -1.847152 4.394962 0
M  V30 40 H 4.250627 -2.697210 -2.041610 0
M  V30 41 H 2.655788 -1.858715 -3.669593 0
M  V30 42 H 0.290889 4.437648 -1.055996 0
M  V30 43 H -1.876777 3.770973 -0.279020 0
M  V30 44 H -4.341778 -2.711563 1.172831 0
M  V30 45 H -6.206103 -4.029811 1.914952 0
M  V30 46 H -8.502959 -0.463661 2.313729 0
M  V30 47 H -2.354255 -1.825637 0.432984 0
M  V30 48 H -0.131925 -1.361644 -0.341753 0
M  V30 49 H 2.574260 0.060307 0.840534 0
M  V30 END ATOM
M  V30 BEGIN BOND
M  V30 1 2 1 2
M  V30 2 1 2 3
M  V30 3 1 3 4
M  V30 4 1 4 5
M  V30 5 1 5 6
M  V30 6 1 2 7
M  V30 7 2 7 8
M  V30 8 1 8 9
M  V30 9 2 9 10
M  V30 10 1 10 11
M  V30 11 1 10 12
M  V30 12 1 12 13
M  V30 13 1 13 14
M  V30 14 2 14 15
M  V30 15 1 14 16
M  V30 16 2 16 17
M  V30 17 1 17 18
M  V30 18 1 18 19
M  V30 19 2 19 20
M  V30 20 1 20 21
M  V30 21 1 21 22
M  V30 22 2 22 23
M  V30 23 1 23 24
M  V30 24 2 24 25
M  V30 25 1 25 26
M  V30 26 1 25 27
M  V30 27 2 27 28
M  V30 28 1 28 29
M  V30 29 1 20 30
M  V30 30 2 30 31
M  V30 31 1 31 32
M  V30 32 2 12 33
M  V30 33 1 6 4
M  V30 34 1 33 7
M  V30 35 2 32 13
M  V30 36 1 32 18
M  V30 37 1 28 22
M  V30 38 1 3 34
M  V30 39 1 4 35
M  V30 40 1 5 36
M  V30 41 1 5 37
M  V30 42 1 6 38
M  V30 43 1 6 39
M  V30 44 1 8 40
M  V30 45 1 9 41
M  V30 46 1 16 42
M  V30 47 1 17 43
M  V30 48 1 23 44
M  V30 49 1 24 45
M  V30 50 1 27 46
M  V30 51 1 30 47
M  V30 52 1 31 48
M  V30 53 1 33 49
M  V30 END BOND
M  V30 END CTAB
M  END
>  <Dataset>  (457) 
ChEMBL_Kinases

>  <Ligand_Instance>  (457) 
nan

>  <PDB_ID>  (457) 
nan

>  <Standardized_SMILES>  (457) 
O=C(NC1CC1)c1ccc(F)c(-c2c(=O)ccn3nc(Oc4ccc(F)cc4F)ccc23)c1

>  <Name>  (457) 
nan

>  <Pocket>  (457) 
nan

>  <ATP_Site>  (457) 
nan

>  <Peripheral>  (457) 
nan

>  <Num_H_Atoms_ProtBoundConf>  (457) 
nan

>  <Num_Resolved_Atoms>  (457) 
nan

>  <Num_Not_Resolved_Atoms>  (457) 
nan

$$$$
CHEMBL4640465
     RDKit          3D

  0  0  0  0  0  0  0  0  0  0999 V3000
M  V30 BEGIN CTAB
M  V30 COUNTS 36 39 0 0 0
M  V30 BEGIN ATOM
M  V30 1 N -1.948371 -4.543998 3.905616 0
M  V30 2 C -0.818369 -3.772969 3.560642 0
M  V30 3 C -0.940906 -2.813288 2.593504 0
M  V30 4 C 0.180498 -2.070039 2.272254 0
M  V30 5 C 0.196048 -1.012018 1.258998 0
M  V30 6 C 1.151978 -0.810232 0.284285 0
M  V30 7 N 0.798258 0.262844 -0.440428 0
M  V30 8 C 1.468910 0.854588 -1.550004 0
M  V30 9 C 2.528030 1.744207 -1.526633 0
M  V30 10 C 3.051190 2.213955 -2.714222 0
M  V30 11 C 2.518057 1.796544 -3.928481 0
M  V30 12 C 1.452117 0.901862 -3.978334 0
M  V30 13 C 0.933414 0.435298 -2.768499 0
M  V30 14 C -0.355175 0.783054 0.013477 0
M  V30 15 C -1.167558 1.860171 -0.338933 0
M  V30 16 N -2.291901 2.099229 0.356999 0
M  V30 17 C -2.720899 1.369626 1.398752 0
M  V30 18 C -1.914081 0.286744 1.761178 0
M  V30 19 C -0.750140 -0.000867 1.078690 0
M  V30 20 C 1.336804 -2.368421 2.966230 0
M  V30 21 C 1.430264 -3.343445 3.937916 0
M  V30 22 N 0.320450 -4.063516 4.240924 0
M  V30 23 H -2.695451 -5.232435 3.708283 0
M  V30 24 H -2.443581 -4.550246 4.846359 0
M  V30 25 H -1.853404 -2.608524 2.075424 0
M  V30 26 H 2.059699 -1.406343 0.103649 0
M  V30 27 H 2.868614 2.005339 -0.532438 0
M  V30 28 H 3.878799 2.908146 -2.658120 0
M  V30 29 H 2.946737 2.180064 -4.846461 0
M  V30 30 H 1.052210 0.589800 -4.930245 0
M  V30 31 H 0.109543 -0.254127 -2.889372 0
M  V30 32 H -0.865393 2.483664 -1.176330 0
M  V30 33 H -3.618379 1.587957 1.928251 0
M  V30 34 H -2.260516 -0.296839 2.597137 0
M  V30 35 H 2.221325 -1.790281 2.720649 0
M  V30 36 H 2.354845 -3.552375 4.464265 0
M  V30 END ATOM
M  V30 BEGIN BOND
M  V30 1 1 1 2
M  V30 2 2 2 3
M  V30 3 1 3 4
M  V30 4 1 4 5
M  V30 5 2 5 6
M  V30 6 1 6 7
M  V30 7 1 7 8
M  V30 8 2 8 9
M  V30 9 1 9 10
M  V30 10 2 10 11
M  V30 11 1 11 12
M  V30 12 2 12 13
M  V30 13 1 7 14
M  V30 14 2 14 15
M  V30 15 1 15 16
M  V30 16 2 16 17
M  V30 17 1 17 18
M  V30 18 2 18 19
M  V30 19 2 4 20
M  V30 20 1 20 21
M  V30 21 2 21 22
M  V30 22 1 22 2
M  V30 23 1 19 5
M  V30 24 1 13 8
M  V30 25 1 19 14
M  V30 26 1 1 23
M  V30 27 1 1 24
M  V30 28 1 3 25
M  V30 29 1 6 26
M  V30 30 1 9 27
M  V30 31 1 10 28
M  V30 32 1 11 29
M  V30 33 1 12 30
M  V30 34 1 13 31
M  V30 35 1 15 32
M  V30 36 1 17 33
M  V30 37 1 18 34
M  V30 38 1 20 35
M  V30 39 1 21 36
M  V30 END BOND
M  V30 END CTAB
M  END
>  <Dataset>  (458) 
ChEMBL_Kinases

>  <Ligand_Instance>  (458) 
nan

>  <PDB_ID>  (458) 
nan

>  <Standardized_SMILES>  (458) 
Nc1cc(-c2cn(-c3ccccc3)c3cnccc23)ccn1

>  <Name>  (458) 
nan

>  <Pocket>  (458) 
nan

>  <ATP_Site>  (458) 
nan

>  <Peripheral>  (458) 
nan

>  <Num_H_Atoms_ProtBoundConf>  (458) 
nan

>  <Num_Resolved_Atoms>  (458) 
nan

>  <Num_Not_Resolved_Atoms>  (458) 
nan

$$$$
CHEMBL4644273
     RDKit          3D

  0  0  0  0  0  0  0  0  0  0999 V3000
M  V30 BEGIN CTAB
M  V30 COUNTS 57 60 0 0 0
M  V30 BEGIN ATOM
M  V30 1 C 1.381369 2.004000 5.332011 0
M  V30 2 C 1.844884 0.695658 4.725933 0
M  V30 3 N 2.105568 0.917556 3.320722 0
M  V30 4 C 3.473970 1.303039 3.033773 0
M  V30 5 O 4.091075 1.964712 3.902682 0
M  V30 6 C 4.208700 0.974130 1.787289 0
M  V30 7 C 5.586747 0.927135 2.040430 0
M  V30 8 C 6.464228 0.628391 1.019192 0
M  V30 9 C 5.931535 0.385085 -0.228573 0
M  V30 10 C 4.589691 0.416509 -0.539586 0
M  V30 11 C 3.749439 0.719554 0.512048 0
M  V30 12 N 2.386883 0.738611 0.106471 0
M  V30 13 C 2.145510 0.828180 -1.332816 0
M  V30 14 C 1.222105 0.693633 0.941307 0
M  V30 15 N 0.076221 0.563560 0.229195 0
M  V30 16 C -1.142224 0.520940 0.832306 0
M  V30 17 N -2.189874 0.372585 -0.115016 0
M  V30 18 C -2.717084 -0.923477 -0.370887 0
M  V30 19 C -2.263047 -2.023306 0.307086 0
M  V30 20 C -2.648886 -3.337896 0.212342 0
M  V30 21 C -3.664186 -3.518931 -0.738428 0
M  V30 22 N -4.113575 -4.882407 -0.885965 0
M  V30 23 S -4.323638 -5.565380 -2.461838 0
M  V30 24 C -2.763265 -5.583504 -3.339275 0
M  V30 25 O -4.843460 -6.954692 -2.318796 0
M  V30 26 O -5.298176 -4.742286 -3.216236 0
M  V30 27 C -4.205367 -2.481897 -1.488304 0
M  V30 28 C -3.714739 -1.191627 -1.286544 0
M  V30 29 O -4.215270 -0.112057 -2.007122 0
M  V30 30 C -5.237931 -0.279395 -2.972219 0
M  V30 31 N -1.204166 0.610908 2.170555 0
M  V30 32 C -0.108742 0.741127 2.940040 0
M  V30 33 C 1.117221 0.782173 2.313868 0
M  V30 34 H 0.516855 1.852481 6.035277 0
M  V30 35 H 1.018524 2.736172 4.580857 0
M  V30 36 H 2.167789 2.472753 5.984141 0
M  V30 37 H 2.819928 0.392022 5.245549 0
M  V30 38 H 1.079840 -0.068805 4.950291 0
M  V30 39 H 5.905853 1.131889 3.049938 0
M  V30 40 H 7.507408 0.604773 1.262459 0
M  V30 41 H 6.653893 0.154519 -0.996116 0
M  V30 42 H 4.187582 0.222640 -1.518194 0
M  V30 43 H 1.086726 1.216272 -1.430848 0
M  V30 44 H 2.750665 1.622953 -1.819010 0
M  V30 45 H 2.138676 -0.137506 -1.836066 0
M  V30 46 H -2.611055 1.157011 -0.649232 0
M  V30 47 H -1.466106 -1.825410 1.041429 0
M  V30 48 H -2.218305 -4.127886 0.799893 0
M  V30 49 H -4.304474 -5.429974 -0.003754 0
M  V30 50 H -2.853855 -5.237985 -4.379142 0
M  V30 51 H -2.019396 -4.961484 -2.762517 0
M  V30 52 H -2.329429 -6.616904 -3.376004 0
M  V30 53 H -4.986466 -2.679432 -2.206730 0
M  V30 54 H -4.805390 -0.897041 -3.814438 0
M  V30 55 H -5.541594 0.719736 -3.363279 0
M  V30 56 H -6.100239 -0.816942 -2.533636 0
M  V30 57 H -0.256933 0.811766 4.004579 0
M  V30 END ATOM
M  V30 BEGIN BOND
M  V30 1 1 1 2
M  V30 2 1 2 3
M  V30 3 1 3 4
M  V30 4 2 4 5
M  V30 5 1 4 6
M  V30 6 2 6 7
M  V30 7 1 7 8
M  V30 8 2 8 9
M  V30 9 1 9 10
M  V30 10 2 10 11
M  V30 11 1 11 12
M  V30 12 1 12 13
M  V30 13 1 12 14
M  V30 14 2 14 15
M  V30 15 1 15 16
M  V30 16 1 16 17
M  V30 17 1 17 18
M  V30 18 2 18 19
M  V30 19 1 19 20
M  V30 20 2 20 21
M  V30 21 1 21 22
M  V30 22 1 22 23
M  V30 23 1 23 24
M  V30 24 2 23 25
M  V30 25 2 23 26
M  V30 26 1 21 27
M  V30 27 2 27 28
M  V30 28 1 28 29
M  V30 29 1 29 30
M  V30 30 2 16 31
M  V30 31 1 31 32
M  V30 32 2 32 33
M  V30 33 1 33 3
M  V30 34 1 11 6
M  V30 35 1 33 14
M  V30 36 1 28 18
M  V30 37 1 1 34
M  V30 38 1 1 35
M  V30 39 1 1 36
M  V30 40 1 2 37
M  V30 41 1 2 38
M  V30 42 1 7 39
M  V30 43 1 8 40
M  V30 44 1 9 41
M  V30 45 1 10 42
M  V30 46 1 13 43
M  V30 47 1 13 44
M  V30 48 1 13 45
M  V30 49 1 17 46
M  V30 50 1 19 47
M  V30 51 1 20 48
M  V30 52 1 22 49
M  V30 53 1 24 50
M  V30 54 1 24 51
M  V30 55 1 24 52
M  V30 56 1 27 53
M  V30 57 1 30 54
M  V30 58 1 30 55
M  V30 59 1 30 56
M  V30 60 1 32 57
M  V30 END BOND
M  V30 END CTAB
M  END
>  <Dataset>  (459) 
ChEMBL_Kinases

>  <Ligand_Instance>  (459) 
nan

>  <PDB_ID>  (459) 
nan

>  <Standardized_SMILES>  (459) 
CCN1C(=O)c2ccccc2N(C)c2nc(Nc3ccc(NS(C)(=O)=O)cc3OC)ncc21

>  <Name>  (459) 
nan

>  <Pocket>  (459) 
nan

>  <ATP_Site>  (459) 
nan

>  <Peripheral>  (459) 
nan

>  <Num_H_Atoms_ProtBoundConf>  (459) 
nan

>  <Num_Resolved_Atoms>  (459) 
nan

>  <Num_Not_Resolved_Atoms>  (459) 
nan

$$$$
CHEMBL575254
     RDKit          3D

  0  0  0  0  0  0  0  0  0  0999 V3000
M  V30 BEGIN CTAB
M  V30 COUNTS 45 48 0 0 0
M  V30 BEGIN ATOM
M  V30 1 C -2.229152 -5.395225 -0.705207 0
M  V30 2 N -1.261498 -5.133785 0.321344 0
M  V30 3 C -1.680046 -4.109746 1.241433 0
M  V30 4 C 0.019834 -4.878736 -0.288162 0
M  V30 5 C -0.019376 -3.702516 -1.206340 0
M  V30 6 N 0.238289 -2.503440 -0.718624 0
M  V30 7 C 0.234749 -1.383461 -1.449371 0
M  V30 8 C -0.077320 -1.647475 -2.796932 0
M  V30 9 S -0.030922 -0.042898 -3.594270 0
M  V30 10 C 0.416694 0.902248 -2.022467 0
M  V30 11 C 0.622726 2.268089 -1.890861 0
M  V30 12 C 0.938074 2.681997 -0.621225 0
M  V30 13 C 1.011483 1.718088 0.349617 0
M  V30 14 C 1.352295 2.204945 1.707877 0
M  V30 15 C 0.926798 3.469612 2.071097 0
M  V30 16 C 1.181596 4.031412 3.304210 0
M  V30 17 C 1.911075 3.254185 4.210913 0
M  V30 18 O 2.142614 3.863619 5.440411 0
M  V30 19 C 1.205341 3.689572 6.493219 0
M  V30 20 F 1.041393 2.384553 6.847941 0
M  V30 21 F 1.671416 4.428200 7.583657 0
M  V30 22 F 0.015220 4.289747 6.101390 0
M  V30 23 C 2.350531 1.989222 3.880867 0
M  V30 24 C 2.079191 1.455089 2.638254 0
M  V30 25 C 0.804566 0.392468 0.187651 0
M  V30 26 C 0.484215 -0.111958 -1.048113 0
M  V30 27 C -0.353285 -2.934530 -3.317111 0
M  V30 28 O -0.603373 -2.915810 -4.543444 0
M  V30 29 N -0.316562 -3.974101 -2.476524 0
M  V30 30 H -3.248137 -5.547956 -0.253051 0
M  V30 31 H -2.325089 -4.481504 -1.332432 0
M  V30 32 H -1.933450 -6.235378 -1.341462 0
M  V30 33 H -1.532777 -4.488785 2.282157 0
M  V30 34 H -1.084581 -3.182462 1.127465 0
M  V30 35 H -2.746654 -3.813808 1.088448 0
M  V30 36 H 0.739577 -4.619197 0.538515 0
M  V30 37 H 0.395568 -5.775061 -0.828292 0
M  V30 38 H 0.518083 2.855353 -2.773457 0
M  V30 39 H 1.104160 3.739489 -0.486265 0
M  V30 40 H 0.353173 4.095707 1.374774 0
M  V30 41 H 0.831166 5.031530 3.558352 0
M  V30 42 H 2.909520 1.425171 4.610135 0
M  V30 43 H 2.403875 0.467832 2.336164 0
M  V30 44 H 0.896829 -0.253649 1.048399 0
M  V30 45 H -0.528995 -4.879650 -2.930533 0
M  V30 END ATOM
M  V30 BEGIN BOND
M  V30 1 1 1 2
M  V30 2 1 2 3
M  V30 3 1 2 4
M  V30 4 1 4 5
M  V30 5 2 5 6
M  V30 6 1 6 7
M  V30 7 2 7 8
M  V30 8 1 8 9
M  V30 9 1 9 10
M  V30 10 2 10 11
M  V30 11 1 11 12
M  V30 12 2 12 13
M  V30 13 1 13 14
M  V30 14 2 14 15
M  V30 15 1 15 16
M  V30 16 2 16 17
M  V30 17 1 17 18
M  V30 18 1 18 19
M  V30 19 1 19 20
M  V30 20 1 19 21
M  V30 21 1 19 22
M  V30 22 1 17 23
M  V30 23 2 23 24
M  V30 24 1 13 25
M  V30 25 2 25 26
M  V30 26 1 8 27
M  V30 27 2 27 28
M  V30 28 1 27 29
M  V30 29 1 29 5
M  V30 30 1 26 7
M  V30 31 1 26 10
M  V30 32 1 24 14
M  V30 33 1 1 30
M  V30 34 1 1 31
M  V30 35 1 1 32
M  V30 36 1 3 33
M  V30 37 1 3 34
M  V30 38 1 3 35
M  V30 39 1 4 36
M  V30 40 1 4 37
M  V30 41 1 11 38
M  V30 42 1 12 39
M  V30 43 1 15 40
M  V30 44 1 16 41
M  V30 45 1 23 42
M  V30 46 1 24 43
M  V30 47 1 25 44
M  V30 48 1 29 45
M  V30 END BOND
M  V30 END CTAB
M  END
>  <Dataset>  (460) 
ChEMBL_Kinases

>  <Ligand_Instance>  (460) 
nan

>  <PDB_ID>  (460) 
nan

>  <Standardized_SMILES>  (460) 
CN(C)Cc1nc2c(sc3ccc(-c4ccc(OC(F)(F)F)cc4)cc32)c(=O)[nH]1

>  <Name>  (460) 
nan

>  <Pocket>  (460) 
nan

>  <ATP_Site>  (460) 
nan

>  <Peripheral>  (460) 
nan

>  <Num_H_Atoms_ProtBoundConf>  (460) 
nan

>  <Num_Resolved_Atoms>  (460) 
nan

>  <Num_Not_Resolved_Atoms>  (460) 
nan

$$$$
CHEMBL4644231
     RDKit          3D

  0  0  0  0  0  0  0  0  0  0999 V3000
M  V30 BEGIN CTAB
M  V30 COUNTS 43 46 0 0 0
M  V30 BEGIN ATOM
M  V30 1 C -0.771367 -6.810359 0.744985 0
M  V30 2 O -1.014879 -5.509641 0.268810 0
M  V30 3 C -0.218026 -4.926782 -0.688545 0
M  V30 4 C 0.885403 -5.476826 -1.308745 0
M  V30 5 C 1.612164 -4.792572 -2.261251 0
M  V30 6 C 1.204507 -3.512060 -2.592119 0
M  V30 7 C 0.090635 -2.929028 -1.980483 0
M  V30 8 C -0.177295 -1.560340 -2.472993 0
M  V30 9 N 0.553899 -0.587442 -1.657767 0
M  V30 10 C 1.782263 -0.326939 -2.128814 0
M  V30 11 N 2.509273 0.559608 -1.425441 0
M  V30 12 C 1.963364 1.129274 -0.296867 0
M  V30 13 S 2.603121 2.379259 0.952191 0
M  V30 14 C 1.147321 2.368064 1.909469 0
M  V30 15 C 0.994584 3.210280 3.140949 0
M  V30 16 C 2.073779 3.999739 3.478861 0
M  V30 17 C 1.862798 4.758203 4.636954 0
M  V30 18 N 0.720648 4.688344 5.306143 0
M  V30 19 C -0.326554 3.914794 4.968197 0
M  V30 20 C -1.606982 3.839787 5.722842 0
M  V30 21 C -0.179452 3.134345 3.823289 0
M  V30 22 C 0.323294 1.518007 1.319813 0
M  V30 23 C 0.687566 0.855225 0.187677 0
M  V30 24 C -0.016055 -0.059923 -0.569692 0
M  V30 25 O -1.179703 -0.414758 -0.268516 0
M  V30 26 C -0.607581 -3.648806 -1.032972 0
M  V30 27 H 0.289628 -7.070373 0.761222 0
M  V30 28 H -1.292450 -7.545765 0.068336 0
M  V30 29 H -1.185954 -6.924735 1.776000 0
M  V30 30 H 1.141225 -6.481581 -0.996518 0
M  V30 31 H 2.465865 -5.285040 -2.706313 0
M  V30 32 H 1.825975 -3.039265 -3.348239 0
M  V30 33 H 0.037933 -1.448796 -3.540157 0
M  V30 34 H -1.265335 -1.330020 -2.314570 0
M  V30 35 H 2.326103 -0.688176 -2.976481 0
M  V30 36 H 3.007114 4.060341 2.936740 0
M  V30 37 H 2.651173 5.418820 4.996323 0
M  V30 38 H -2.478095 3.833151 5.010530 0
M  V30 39 H -1.709920 2.905788 6.312564 0
M  V30 40 H -1.653492 4.672448 6.451159 0
M  V30 41 H -0.998583 2.479737 3.492518 0
M  V30 42 H -0.649602 1.391466 1.799895 0
M  V30 43 H -1.453344 -3.126836 -0.610195 0
M  V30 END ATOM
M  V30 BEGIN BOND
M  V30 1 1 1 2
M  V30 2 1 2 3
M  V30 3 2 3 4
M  V30 4 1 4 5
M  V30 5 2 5 6
M  V30 6 1 6 7
M  V30 7 1 7 8
M  V30 8 1 8 9
M  V30 9 1 9 10
M  V30 10 2 10 11
M  V30 11 1 11 12
M  V30 12 1 12 13
M  V30 13 1 13 14
M  V30 14 1 14 15
M  V30 15 2 15 16
M  V30 16 1 16 17
M  V30 17 2 17 18
M  V30 18 1 18 19
M  V30 19 1 19 20
M  V30 20 2 19 21
M  V30 21 2 14 22
M  V30 22 1 22 23
M  V30 23 1 23 24
M  V30 24 2 24 25
M  V30 25 2 7 26
M  V30 26 1 26 3
M  V30 27 1 24 9
M  V30 28 2 23 12
M  V30 29 1 21 15
M  V30 30 1 1 27
M  V30 31 1 1 28
M  V30 32 1 1 29
M  V30 33 1 4 30
M  V30 34 1 5 31
M  V30 35 1 6 32
M  V30 36 1 8 33
M  V30 37 1 8 34
M  V30 38 1 10 35
M  V30 39 1 16 36
M  V30 40 1 17 37
M  V30 41 1 20 38
M  V30 42 1 20 39
M  V30 43 1 20 40
M  V30 44 1 21 41
M  V30 45 1 22 42
M  V30 46 1 26 43
M  V30 END BOND
M  V30 END CTAB
M  END
>  <Dataset>  (461) 
ChEMBL_Kinases

>  <Ligand_Instance>  (461) 
nan

>  <PDB_ID>  (461) 
nan

>  <Standardized_SMILES>  (461) 
COc1cccc(Cn2cnc3sc(-c4ccnc(C)c4)cc3c2=O)c1

>  <Name>  (461) 
nan

>  <Pocket>  (461) 
nan

>  <ATP_Site>  (461) 
nan

>  <Peripheral>  (461) 
nan

>  <Num_H_Atoms_ProtBoundConf>  (461) 
nan

>  <Num_Resolved_Atoms>  (461) 
nan

>  <Num_Not_Resolved_Atoms>  (461) 
nan

$$$$
CHEMBL4639890
     RDKit          2D

  0  0  0  0  0  0  0  0  0  0999 V3000
M  V30 BEGIN CTAB
M  V30 COUNTS 71 77 0 0 0
M  V30 BEGIN ATOM
M  V30 1 C 1.740177 5.907161 0.000000 0
M  V30 2 N 2.578966 4.663604 0.000000 0
M  V30 3 C 4.075312 4.768239 0.000000 0
M  V30 4 C 1.921409 3.315413 0.000000 0
M  V30 5 C 1.764617 1.823630 0.000000 0
M  V30 6 C 0.394298 1.213525 0.000000 0
M  V30 7 C 1.275976 0.000000 0.000000 0
M  V30 8 C 0.394298 -1.213525 0.000000 0
M  V30 9 C -1.032286 -0.750000 0.000000 0
M  V30 10 O -1.032286 0.750000 0.000000 0
M  V30 11 C -2.346338 -0.006684 0.000000 0
M  V30 12 C -3.630262 -0.772880 0.000000 0
M  V30 13 C -3.617052 -2.272822 0.000000 0
M  V30 14 C -2.311459 -3.011353 0.000000 0
M  V30 15 C -3.517173 -3.903684 0.000000 0
M  V30 16 C -1.986682 -4.475771 0.000000 0
M  V30 17 C -3.477026 -4.645695 0.000000 0
M  V30 18 C -4.369357 -3.439982 0.000000 0
M  V30 19 C -5.859701 -3.609906 0.000000 0
M  V30 20 C -6.457715 -4.985544 0.000000 0
M  V30 21 C -7.948059 -5.155468 0.000000 0
M  V30 22 C -8.546072 -6.531106 0.000000 0
M  V30 23 N -7.653741 -7.736820 0.000000 0
M  V30 24 C -6.163397 -7.566896 0.000000 0
M  V30 25 C -5.565384 -6.191258 0.000000 0
M  V30 26 C -4.075040 -6.021333 0.000000 0
M  V30 27 C -0.493576 -4.619420 0.000000 0
M  V30 28 C 0.104437 -3.243782 0.000000 0
M  V30 29 C -1.019076 -2.249942 0.000000 0
M  V30 30 C -2.189545 1.485098 0.000000 0
M  V30 31 C -0.819227 2.095203 0.000000 0
M  V30 32 C -0.662434 3.586986 0.000000 0
M  V30 33 O -2.158781 3.482352 0.000000 0
M  V30 34 C 0.707884 4.197091 0.000000 0
M  V30 35 O -0.130906 5.440648 0.000000 0
M  V30 36 H 1.059227 7.243689 0.000000 0
M  V30 37 H 0.815360 5.570611 0.000000 0
M  V30 38 H 2.983733 6.745950 0.000000 0
M  V30 39 H 5.571658 4.872874 0.000000 0
M  V30 40 H 4.361565 3.295806 0.000000 0
M  V30 41 H 3.970677 6.264585 0.000000 0
M  V30 42 H 3.039810 2.840645 0.000000 0
M  V30 43 H 2.976657 1.908385 0.000000 0
M  V30 44 H 2.050314 1.079424 0.000000 0
M  V30 45 H 1.928985 0.457215 0.000000 0
M  V30 46 H 2.390693 -1.003696 0.000000 0
M  V30 47 H 1.775071 -1.799585 0.000000 0
M  V30 48 H 0.133906 -2.690751 0.000000 0
M  V30 49 H -4.935855 -0.034350 0.000000 0
M  V30 50 H -4.722996 -3.286177 0.000000 0
M  V30 51 H -5.096500 -2.025370 0.000000 0
M  V30 52 H -4.722887 -4.796015 0.000000 0
M  V30 53 H -2.624842 -5.109398 0.000000 0
M  V30 54 H -3.918029 -2.458238 0.000000 0
M  V30 55 H -1.973472 -5.975713 0.000000 0
M  V30 56 H -4.304170 -1.941399 0.000000 0
M  V30 57 H -6.752032 -2.404192 0.000000 0
M  V30 58 H -8.840390 -3.949754 0.000000 0
M  V30 59 H -10.036416 -6.701031 0.000000 0
M  V30 60 H -5.271066 -8.772609 0.000000 0
M  V30 61 H -3.182709 -7.227047 0.000000 0
M  V30 62 H -0.792511 -6.089331 0.000000 0
M  V30 63 H 0.937035 -5.070364 0.000000 0
M  V30 64 H 1.410030 -3.982313 0.000000 0
M  V30 65 H 1.117763 -2.137812 0.000000 0
M  V30 66 H -2.394714 -1.651929 0.000000 0
M  V30 67 H -3.403071 2.366776 0.000000 0
M  V30 68 H -1.025317 5.042430 0.000000 0
M  V30 69 H -2.997570 4.725908 0.000000 0
M  V30 70 H 1.502694 5.469206 0.000000 0
M  V30 71 H 0.357408 6.858939 0.000000 0
M  V30 END ATOM
M  V30 BEGIN BOND
M  V30 1 1 1 2
M  V30 2 1 2 3
M  V30 3 1 2 4
M  V30 4 1 4 5
M  V30 5 1 6 5 CFG=1
M  V30 6 1 6 7
M  V30 7 1 7 8
M  V30 8 1 9 8 CFG=1
M  V30 9 1 9 10
M  V30 10 1 9 11
M  V30 11 2 11 12
M  V30 12 1 12 13
M  V30 13 1 13 14
M  V30 14 1 14 15 CFG=3
M  V30 15 1 14 16
M  V30 16 1 16 17
M  V30 17 2 17 18
M  V30 18 1 18 19
M  V30 19 2 19 20
M  V30 20 1 20 21
M  V30 21 2 21 22
M  V30 22 1 22 23
M  V30 23 2 23 24
M  V30 24 1 24 25
M  V30 25 2 25 26
M  V30 26 1 16 27
M  V30 27 1 27 28
M  V30 28 1 28 29
M  V30 29 1 11 30
M  V30 30 2 30 31
M  V30 31 1 31 32
M  V30 32 1 32 33
M  V30 33 1 32 34
M  V30 34 1 34 35
M  V30 35 1 34 4
M  V30 36 1 10 6
M  V30 37 1 29 14
M  V30 38 1 31 6
M  V30 39 1 29 9
M  V30 40 1 26 17
M  V30 41 1 25 20
M  V30 42 1 1 36
M  V30 43 1 1 37
M  V30 44 1 1 38
M  V30 45 1 3 39
M  V30 46 1 3 40
M  V30 47 1 3 41
M  V30 48 1 4 42 CFG=3
M  V30 49 1 5 43
M  V30 50 1 5 44
M  V30 51 1 7 45
M  V30 52 1 7 46
M  V30 53 1 8 47
M  V30 54 1 8 48
M  V30 55 1 12 49
M  V30 56 1 13 50
M  V30 57 1 13 51
M  V30 58 1 15 52
M  V30 59 1 15 53
M  V30 60 1 15 54
M  V30 61 1 16 55 CFG=1
M  V30 62 1 18 56
M  V30 63 1 19 57
M  V30 64 1 21 58
M  V30 65 1 22 59
M  V30 66 1 24 60
M  V30 67 1 26 61
M  V30 68 1 27 62
M  V30 69 1 27 63
M  V30 70 1 28 64
M  V30 71 1 28 65
M  V30 72 1 29 66 CFG=1
M  V30 73 1 30 67
M  V30 74 1 32 68 CFG=3
M  V30 75 1 33 69
M  V30 76 1 34 70 CFG=1
M  V30 77 1 35 71
M  V30 END BOND
M  V30 END CTAB
M  END
>  <Dataset>  (462) 
ChEMBL_Kinases

>  <Ligand_Instance>  (462) 
nan

>  <PDB_ID>  (462) 
nan

>  <Standardized_SMILES>  (462) 
CN(C)[C@H]1C[C@@]23CC[C@]4(O2)C(=CC[C@]2(C)[C@@H](c5ccc6ccncc6c5)CC[C@H]24)C=C3[C@@H](O)[C@@H]1O

>  <Name>  (462) 
nan

>  <Pocket>  (462) 
nan

>  <ATP_Site>  (462) 
nan

>  <Peripheral>  (462) 
nan

>  <Num_H_Atoms_ProtBoundConf>  (462) 
nan

>  <Num_Resolved_Atoms>  (462) 
nan

>  <Num_Not_Resolved_Atoms>  (462) 
nan

$$$$
CHEMBL4644226
     RDKit          3D

  0  0  0  0  0  0  0  0  0  0999 V3000
M  V30 BEGIN CTAB
M  V30 COUNTS 47 50 0 0 0
M  V30 BEGIN ATOM
M  V30 1 C 1.474252 -0.917652 7.958996 0
M  V30 2 N 1.384254 -0.532600 6.556622 0
M  V30 3 C 2.143352 0.433573 6.003089 0
M  V30 4 C 1.812700 0.548609 4.670035 0
M  V30 5 C 2.393696 1.472250 3.705178 0
M  V30 6 C 3.379622 2.342938 4.113719 0
M  V30 7 N 3.885940 3.181794 3.172457 0
M  V30 8 C 3.442720 3.160393 1.901673 0
M  V30 9 N 4.078039 4.102969 1.045594 0
M  V30 10 C 2.455200 2.289007 1.490453 0
M  V30 11 O 2.045842 2.320722 0.165243 0
M  V30 12 C 1.060078 1.483224 -0.337787 0
M  V30 13 C -0.305170 1.785427 -0.361939 0
M  V30 14 C -1.222181 0.889688 -0.883521 0
M  V30 15 C -0.816666 -0.341452 -1.401305 0
M  V30 16 C -1.846606 -1.228968 -1.933003 0
M  V30 17 O -3.020872 -0.838098 -1.898103 0
M  V30 18 N -1.532516 -2.492814 -2.472091 0
M  V30 19 C -2.594518 -3.324758 -2.982562 0
M  V30 20 C -3.214658 -4.210649 -2.100794 0
M  V30 21 C -4.235749 -5.027944 -2.541988 0
M  V30 22 C -4.634220 -4.953200 -3.876201 0
M  V30 23 C -4.026543 -4.078024 -4.760999 0
M  V30 24 Cl -4.528241 -3.979032 -6.455577 0
M  V30 25 C -3.014710 -3.271453 -4.314032 0
M  V30 26 C 0.530950 -0.636242 -1.375824 0
M  V30 27 C 1.447804 0.263601 -0.852381 0
M  V30 28 N 1.959001 1.459167 2.435548 0
M  V30 29 C 0.826188 -0.392851 4.466475 0
M  V30 30 N 0.581842 -1.031039 5.605682 0
M  V30 31 H 0.730386 -1.706792 8.176525 0
M  V30 32 H 2.480321 -1.322282 8.197621 0
M  V30 33 H 1.307665 -0.024075 8.588832 0
M  V30 34 H 2.889356 1.025874 6.508145 0
M  V30 35 H 3.695488 2.317155 5.140495 0
M  V30 36 H 4.025729 5.105947 0.762513 0
M  V30 37 H 4.804898 3.444040 0.634866 0
M  V30 38 H -0.546642 2.752917 0.054332 0
M  V30 39 H -2.265222 1.188374 -0.870707 0
M  V30 40 H -0.554156 -2.850757 -2.515771 0
M  V30 41 H -2.916873 -4.284860 -1.049524 0
M  V30 42 H -4.755334 -5.737651 -1.899078 0
M  V30 43 H -5.440097 -5.597061 -4.227816 0
M  V30 44 H -2.488712 -2.555848 -4.957150 0
M  V30 45 H 0.857166 -1.582589 -1.772099 0
M  V30 46 H 2.493711 -0.060818 -0.876453 0
M  V30 47 H 0.363573 -0.532431 3.484204 0
M  V30 END ATOM
M  V30 BEGIN BOND
M  V30 1 1 1 2
M  V30 2 1 2 3
M  V30 3 2 3 4
M  V30 4 1 4 5
M  V30 5 2 5 6
M  V30 6 1 6 7
M  V30 7 2 7 8
M  V30 8 1 8 9
M  V30 9 1 8 10
M  V30 10 1 10 11
M  V30 11 1 11 12
M  V30 12 2 12 13
M  V30 13 1 13 14
M  V30 14 2 14 15
M  V30 15 1 15 16
M  V30 16 2 16 17
M  V30 17 1 16 18
M  V30 18 1 18 19
M  V30 19 2 19 20
M  V30 20 1 20 21
M  V30 21 2 21 22
M  V30 22 1 22 23
M  V30 23 1 23 24
M  V30 24 2 23 25
M  V30 25 1 15 26
M  V30 26 2 26 27
M  V30 27 2 10 28
M  V30 28 1 4 29
M  V30 29 2 29 30
M  V30 30 1 30 2
M  V30 31 1 28 5
M  V30 32 1 27 12
M  V30 33 1 25 19
M  V30 34 1 1 31
M  V30 35 1 1 32
M  V30 36 1 1 33
M  V30 37 1 3 34
M  V30 38 1 6 35
M  V30 39 1 9 36
M  V30 40 1 9 37
M  V30 41 1 13 38
M  V30 42 1 14 39
M  V30 43 1 18 40
M  V30 44 1 20 41
M  V30 45 1 21 42
M  V30 46 1 22 43
M  V30 47 1 25 44
M  V30 48 1 26 45
M  V30 49 1 27 46
M  V30 50 1 29 47
M  V30 END BOND
M  V30 END CTAB
M  END
>  <Dataset>  (463) 
ChEMBL_Kinases

>  <Ligand_Instance>  (463) 
nan

>  <PDB_ID>  (463) 
nan

>  <Standardized_SMILES>  (463) 
Cn1cc(-c2cnc(N)c(Oc3ccc(C(=O)Nc4cccc(Cl)c4)cc3)n2)cn1

>  <Name>  (463) 
nan

>  <Pocket>  (463) 
nan

>  <ATP_Site>  (463) 
nan

>  <Peripheral>  (463) 
nan

>  <Num_H_Atoms_ProtBoundConf>  (463) 
nan

>  <Num_Resolved_Atoms>  (463) 
nan

>  <Num_Not_Resolved_Atoms>  (463) 
nan

$$$$
CHEMBL2079395
     RDKit          3D

  0  0  0  0  0  0  0  0  0  0999 V3000
M  V30 BEGIN CTAB
M  V30 COUNTS 51 55 0 0 0
M  V30 BEGIN ATOM
M  V30 1 C 1.689707 6.115108 -2.489098 0
M  V30 2 C 2.291708 4.999352 -1.707864 0
M  V30 3 C 1.472862 3.900360 -1.539133 0
M  V30 4 C 1.979149 2.833586 -0.821789 0
M  V30 5 N 1.388897 1.655002 -0.518350 0
M  V30 6 C 2.253942 0.901484 0.204196 0
M  V30 7 C 1.978353 -0.439116 0.717707 0
M  V30 8 C 0.773965 -1.037126 0.487014 0
M  V30 9 C 0.405270 -2.293227 0.921284 0
M  V30 10 C -0.920723 -2.816644 0.604375 0
M  V30 11 C -1.748354 -3.680419 1.293312 0
M  V30 12 N -2.853079 -3.834918 0.564891 0
M  V30 13 N -2.774930 -3.116778 -0.550736 0
M  V30 14 C -3.716117 -2.962147 -1.642931 0
M  V30 15 C -3.333351 -3.779772 -2.832066 0
M  V30 16 C -4.127813 -3.270946 -4.024250 0
M  V30 17 N -5.279216 -2.562407 -3.555983 0
M  V30 18 C -5.988948 -3.214786 -2.487155 0
M  V30 19 C -5.124577 -3.277108 -1.244872 0
M  V30 20 C -1.590950 -2.464513 -0.573327 0
M  V30 21 C 1.382619 -2.965186 1.652916 0
M  V30 22 N 2.577105 -2.403091 1.896293 0
M  V30 23 C 2.888905 -1.172825 1.450066 0
M  V30 24 N 4.166740 -0.602988 1.725062 0
M  V30 25 O 3.342955 1.608099 0.335100 0
M  V30 26 C 3.252926 2.773872 -0.251693 0
M  V30 27 C 4.025069 3.900375 -0.453191 0
M  V30 28 C 3.562502 4.989394 -1.162439 0
M  V30 29 O 4.335572 6.123071 -1.366832 0
M  V30 30 H 1.115684 5.669812 -3.340166 0
M  V30 31 H 2.415260 6.871161 -2.818865 0
M  V30 32 H 0.917518 6.628660 -1.852158 0
M  V30 33 H 0.462919 3.834271 -1.937450 0
M  V30 34 H 0.038109 -0.489279 -0.083512 0
M  V30 35 H -1.484702 -4.119345 2.252223 0
M  V30 36 H -3.728816 -1.889504 -1.994572 0
M  V30 37 H -3.688667 -4.817669 -2.659419 0
M  V30 38 H -2.251566 -3.741679 -3.070861 0
M  V30 39 H -4.364892 -4.102874 -4.708059 0
M  V30 40 H -3.464807 -2.510920 -4.523784 0
M  V30 41 H -5.863544 -2.185980 -4.311986 0
M  V30 42 H -6.290058 -4.231665 -2.846645 0
M  V30 43 H -6.912882 -2.606197 -2.304282 0
M  V30 44 H -5.469247 -2.433870 -0.578393 0
M  V30 45 H -5.225927 -4.264371 -0.742358 0
M  V30 46 H -1.205826 -1.786516 -1.349813 0
M  V30 47 H 1.119138 -3.959782 2.008723 0
M  V30 48 H 4.104321 0.260183 2.338194 0
M  V30 49 H 5.063205 -1.004353 1.354177 0
M  V30 50 H 5.018020 3.894849 -0.028129 0
M  V30 51 H 3.933980 7.051764 -1.467613 0
M  V30 END ATOM
M  V30 BEGIN BOND
M  V30 1 1 1 2
M  V30 2 2 2 3
M  V30 3 1 3 4
M  V30 4 1 4 5
M  V30 5 2 5 6
M  V30 6 1 6 7
M  V30 7 2 7 8
M  V30 8 1 8 9
M  V30 9 1 9 10
M  V30 10 1 10 11
M  V30 11 2 11 12
M  V30 12 1 12 13
M  V30 13 1 13 14
M  V30 14 1 14 15
M  V30 15 1 15 16
M  V30 16 1 16 17
M  V30 17 1 17 18
M  V30 18 1 18 19
M  V30 19 1 13 20
M  V30 20 2 9 21
M  V30 21 1 21 22
M  V30 22 2 22 23
M  V30 23 1 23 24
M  V30 24 1 6 25
M  V30 25 1 25 26
M  V30 26 1 26 27
M  V30 27 2 27 28
M  V30 28 1 28 29
M  V30 29 1 28 2
M  V30 30 2 26 4
M  V30 31 1 23 7
M  V30 32 2 20 10
M  V30 33 1 19 14
M  V30 34 1 1 30
M  V30 35 1 1 31
M  V30 36 1 1 32
M  V30 37 1 3 33
M  V30 38 1 8 34
M  V30 39 1 11 35
M  V30 40 1 14 36
M  V30 41 1 15 37
M  V30 42 1 15 38
M  V30 43 1 16 39
M  V30 44 1 16 40
M  V30 45 1 17 41
M  V30 46 1 18 42
M  V30 47 1 18 43
M  V30 48 1 19 44
M  V30 49 1 19 45
M  V30 50 1 20 46
M  V30 51 1 21 47
M  V30 52 1 24 48
M  V30 53 1 24 49
M  V30 54 1 27 50
M  V30 55 1 29 51
M  V30 END BOND
M  V30 END CTAB
M  END
>  <Dataset>  (464) 
ChEMBL_Kinases

>  <Ligand_Instance>  (464) 
nan

>  <PDB_ID>  (464) 
nan

>  <Standardized_SMILES>  (464) 
Cc1cc2nc(-c3cc(-c4cnn(C5CCNCC5)c4)cnc3N)oc2cc1O

>  <Name>  (464) 
nan

>  <Pocket>  (464) 
nan

>  <ATP_Site>  (464) 
nan

>  <Peripheral>  (464) 
nan

>  <Num_H_Atoms_ProtBoundConf>  (464) 
nan

>  <Num_Resolved_Atoms>  (464) 
nan

>  <Num_Not_Resolved_Atoms>  (464) 
nan

$$$$
CHEMBL570865
     RDKit          3D

  0  0  0  0  0  0  0  0  0  0999 V3000
M  V30 BEGIN CTAB
M  V30 COUNTS 62 66 0 0 0
M  V30 BEGIN ATOM
M  V30 1 C -1.583367 -3.905148 5.013048 0
M  V30 2 C -0.552510 -3.360981 4.704918 0
M  V30 3 C 0.675587 -2.697713 4.314332 0
M  V30 4 C 1.520158 -2.383994 5.357054 0
M  V30 5 C 2.702876 -1.754884 5.045449 0
M  V30 6 C 3.013942 -1.459028 3.748395 0
M  V30 7 C 2.177263 -1.766748 2.689223 0
M  V30 8 C 2.475303 -1.460115 1.295237 0
M  V30 9 C 3.658149 -0.832615 0.958203 0
M  V30 10 C 3.762619 -0.625818 -0.403031 0
M  V30 11 C 2.577758 -1.163851 -0.861805 0
M  V30 12 C 2.102185 -1.238581 -2.285622 0
M  V30 13 N 1.360201 -0.043216 -2.534615 0
M  V30 14 C 2.101294 1.171630 -2.375823 0
M  V30 15 C 1.146334 2.337056 -2.655719 0
M  V30 16 N -0.229727 1.891869 -2.516933 0
M  V30 17 C -1.091147 3.028640 -2.648938 0
M  V30 18 C -0.591435 0.911019 -3.507041 0
M  V30 19 C 0.589563 -0.031520 -3.740004 0
M  V30 20 O 1.902749 -1.615766 0.155532 0
M  V30 21 C 0.985086 -2.398766 2.979919 0
M  V30 22 C -0.042064 -2.814557 2.037302 0
M  V30 23 C -1.230251 -1.939695 1.986539 0
M  V30 24 C -1.195416 -0.836293 2.813976 0
M  V30 25 C -2.241163 0.067206 2.864254 0
M  V30 26 C -3.305470 -0.220096 2.032733 0
M  V30 27 C -3.376490 -1.311194 1.193292 0
M  V30 28 C -2.311537 -2.198977 1.165651 0
M  V30 29 C -2.311129 -3.399083 0.289301 0
M  V30 30 C -4.636769 -1.309788 0.458540 0
M  V30 31 C -5.299105 -0.253902 0.843952 0
M  V30 32 C -4.566602 0.553415 1.861855 0
M  V30 33 H -2.482287 -4.396815 5.293868 0
M  V30 34 H 1.313562 -2.598387 6.388311 0
M  V30 35 H 3.382874 -1.496149 5.826952 0
M  V30 36 H 3.952525 -0.964129 3.541016 0
M  V30 37 H 4.470989 -0.503613 1.626791 0
M  V30 38 H 4.548092 -0.168036 -0.987754 0
M  V30 39 H 1.442416 -2.102846 -2.381998 0
M  V30 40 H 2.983031 -1.365015 -2.954947 0
M  V30 41 H 2.404851 1.249584 -1.320620 0
M  V30 42 H 2.924439 1.290277 -3.101187 0
M  V30 43 H 1.311147 3.129385 -1.903672 0
M  V30 44 H 1.299889 2.778036 -3.648712 0
M  V30 45 H -0.726266 3.876194 -2.002707 0
M  V30 46 H -1.196177 3.402376 -3.684414 0
M  V30 47 H -2.108711 2.708086 -2.302985 0
M  V30 48 H -0.964493 1.332471 -4.445074 0
M  V30 49 H -1.393179 0.255564 -3.059043 0
M  V30 50 H 0.259099 -1.037253 -4.073192 0
M  V30 51 H 1.158882 0.392768 -4.598367 0
M  V30 52 H 0.295157 -2.992743 1.001058 0
M  V30 53 H -0.456795 -3.826573 2.348402 0
M  V30 54 H -0.343068 -0.621363 3.468887 0
M  V30 55 H -2.185898 0.911913 3.514267 0
M  V30 56 H -3.030462 -3.316272 -0.538784 0
M  V30 57 H -2.709705 -4.229481 0.939491 0
M  V30 58 H -1.315285 -3.717904 -0.017474 0
M  V30 59 H -4.979736 -2.039364 -0.275439 0
M  V30 60 H -6.278708 0.124475 0.548755 0
M  V30 61 H -4.387160 1.560955 1.436648 0
M  V30 62 H -5.177088 0.603116 2.766455 0
M  V30 END ATOM
M  V30 BEGIN BOND
M  V30 1 3 1 2
M  V30 2 1 2 3
M  V30 3 2 3 4
M  V30 4 1 4 5
M  V30 5 2 5 6
M  V30 6 1 6 7
M  V30 7 1 7 8
M  V30 8 2 8 9
M  V30 9 1 9 10
M  V30 10 2 10 11
M  V30 11 1 11 12
M  V30 12 1 12 13
M  V30 13 1 13 14
M  V30 14 1 14 15
M  V30 15 1 15 16
M  V30 16 1 16 17
M  V30 17 1 16 18
M  V30 18 1 18 19
M  V30 19 1 11 20
M  V30 20 2 7 21
M  V30 21 1 21 22
M  V30 22 1 22 23
M  V30 23 2 23 24
M  V30 24 1 24 25
M  V30 25 2 25 26
M  V30 26 1 26 27
M  V30 27 2 27 28
M  V30 28 1 28 29
M  V30 29 1 27 30
M  V30 30 2 30 31
M  V30 31 1 31 32
M  V30 32 1 21 3
M  V30 33 1 28 23
M  V30 34 1 20 8
M  V30 35 1 32 26
M  V30 36 1 19 13
M  V30 37 1 1 33
M  V30 38 1 4 34
M  V30 39 1 5 35
M  V30 40 1 6 36
M  V30 41 1 9 37
M  V30 42 1 10 38
M  V30 43 1 12 39
M  V30 44 1 12 40
M  V30 45 1 14 41
M  V30 46 1 14 42
M  V30 47 1 15 43
M  V30 48 1 15 44
M  V30 49 1 17 45
M  V30 50 1 17 46
M  V30 51 1 17 47
M  V30 52 1 18 48
M  V30 53 1 18 49
M  V30 54 1 19 50
M  V30 55 1 19 51
M  V30 56 1 22 52
M  V30 57 1 22 53
M  V30 58 1 24 54
M  V30 59 1 25 55
M  V30 60 1 29 56
M  V30 61 1 29 57
M  V30 62 1 29 58
M  V30 63 1 30 59
M  V30 64 1 31 60
M  V30 65 1 32 61
M  V30 66 1 32 62
M  V30 END BOND
M  V30 END CTAB
M  END
>  <Dataset>  (465) 
ChEMBL_Kinases

>  <Ligand_Instance>  (465) 
nan

>  <PDB_ID>  (465) 
nan

>  <Standardized_SMILES>  (465) 
C#Cc1cccc(-c2ccc(CN3CCN(C)CC3)o2)c1Cc1ccc2c(c1C)C=CC2

>  <Name>  (465) 
nan

>  <Pocket>  (465) 
nan

>  <ATP_Site>  (465) 
nan

>  <Peripheral>  (465) 
nan

>  <Num_H_Atoms_ProtBoundConf>  (465) 
nan

>  <Num_Resolved_Atoms>  (465) 
nan

>  <Num_Not_Resolved_Atoms>  (465) 
nan

$$$$
CHEMBL2088583
     RDKit          3D

  0  0  0  0  0  0  0  0  0  0999 V3000
M  V30 BEGIN CTAB
M  V30 COUNTS 46 50 0 0 0
M  V30 BEGIN ATOM
M  V30 1 C 7.867571 -1.017306 -1.252582 0
M  V30 2 C 6.435733 -0.593059 -1.148776 0
M  V30 3 N 5.478503 -0.910764 -2.059381 0
M  V30 4 N 4.372749 -0.347075 -1.594500 0
M  V30 5 C 4.602667 0.303930 -0.439182 0
M  V30 6 C 3.621381 1.036964 0.352769 0
M  V30 7 C 4.017717 1.654299 1.521540 0
M  V30 8 C 3.095609 2.359983 2.293215 0
M  V30 9 C 1.776940 2.435773 1.875553 0
M  V30 10 F 0.808292 3.096395 2.554694 0
M  V30 11 C 1.375966 1.816174 0.701192 0
M  V30 12 C 0.038890 1.807243 0.137885 0
M  V30 13 C -0.317271 2.810151 -0.736863 0
M  V30 14 O 0.478877 3.728595 -1.059707 0
M  V30 15 C -1.589750 2.789830 -1.264434 0
M  V30 16 C -2.466828 1.789420 -0.916986 0
M  V30 17 N -2.145169 0.781575 -0.053379 0
M  V30 18 N -3.010603 -0.175573 0.267854 0
M  V30 19 C -2.692990 -1.185574 1.131306 0
M  V30 20 O -3.753343 -1.990031 1.259409 0
M  V30 21 C -4.059797 -3.100201 1.929159 0
M  V30 22 C -3.468004 -3.971320 2.809341 0
M  V30 23 C -4.036177 -5.088783 3.372827 0
M  V30 24 C -5.338085 -5.358552 3.012532 0
M  V30 25 F -5.888509 -6.463769 3.574765 0
M  V30 26 C -6.031590 -4.551899 2.135483 0
M  V30 27 C -5.387559 -3.427640 1.599422 0
M  V30 28 F -6.261046 -2.776013 0.757438 0
M  V30 29 C -1.414239 -1.103941 1.617350 0
M  V30 30 C -0.508105 -0.132907 1.303450 0
M  V30 31 C -0.904486 0.844134 0.430195 0
M  V30 32 C 2.314555 1.113495 -0.058819 0
M  V30 33 O 5.868852 0.135170 -0.194597 0
M  V30 34 H 7.914220 -1.935397 -1.863972 0
M  V30 35 H 8.420328 -0.191790 -1.720525 0
M  V30 36 H 8.247030 -1.231861 -0.217883 0
M  V30 37 H 5.046884 1.581236 1.824830 0
M  V30 38 H 3.378547 2.845470 3.200562 0
M  V30 39 H -1.962258 3.534465 -1.959957 0
M  V30 40 H -3.484548 1.760897 -1.330088 0
M  V30 41 H -2.459007 -3.683303 3.031666 0
M  V30 42 H -3.400478 -5.646847 4.046040 0
M  V30 43 H -7.039950 -4.883596 1.944914 0
M  V30 44 H -1.177076 -1.898665 2.291329 0
M  V30 45 H 0.455065 -0.211312 1.770401 0
M  V30 46 H 2.068787 0.605509 -0.987588 0
M  V30 END ATOM
M  V30 BEGIN BOND
M  V30 1 1 1 2
M  V30 2 2 2 3
M  V30 3 1 3 4
M  V30 4 2 4 5
M  V30 5 1 5 6
M  V30 6 2 6 7
M  V30 7 1 7 8
M  V30 8 2 8 9
M  V30 9 1 9 10
M  V30 10 1 9 11
M  V30 11 1 11 12
M  V30 12 1 12 13
M  V30 13 2 13 14
M  V30 14 1 13 15
M  V30 15 2 15 16
M  V30 16 1 16 17
M  V30 17 1 17 18
M  V30 18 2 18 19
M  V30 19 1 19 20
M  V30 20 1 20 21
M  V30 21 2 21 22
M  V30 22 1 22 23
M  V30 23 2 23 24
M  V30 24 1 24 25
M  V30 25 1 24 26
M  V30 26 2 26 27
M  V30 27 1 27 28
M  V30 28 1 19 29
M  V30 29 2 29 30
M  V30 30 1 30 31
M  V30 31 2 11 32
M  V30 32 1 5 33
M  V30 33 1 33 2
M  V30 34 1 32 6
M  V30 35 2 31 12
M  V30 36 1 31 17
M  V30 37 1 27 21
M  V30 38 1 1 34
M  V30 39 1 1 35
M  V30 40 1 1 36
M  V30 41 1 7 37
M  V30 42 1 8 38
M  V30 43 1 15 39
M  V30 44 1 16 40
M  V30 45 1 22 41
M  V30 46 1 23 42
M  V30 47 1 26 43
M  V30 48 1 29 44
M  V30 49 1 30 45
M  V30 50 1 32 46
M  V30 END BOND
M  V30 END CTAB
M  END
>  <Dataset>  (466) 
ChEMBL_Kinases

>  <Ligand_Instance>  (466) 
nan

>  <PDB_ID>  (466) 
nan

>  <Standardized_SMILES>  (466) 
Cc1nnc(-c2ccc(F)c(-c3c(=O)ccn4nc(Oc5ccc(F)cc5F)ccc34)c2)o1

>  <Name>  (466) 
nan

>  <Pocket>  (466) 
nan

>  <ATP_Site>  (466) 
nan

>  <Peripheral>  (466) 
nan

>  <Num_H_Atoms_ProtBoundConf>  (466) 
nan

>  <Num_Resolved_Atoms>  (466) 
nan

>  <Num_Not_Resolved_Atoms>  (466) 
nan

$$$$
CHEMBL2088581
     RDKit          3D

  0  0  0  0  0  0  0  0  0  0999 V3000
M  V30 BEGIN CTAB
M  V30 COUNTS 52 56 0 0 0
M  V30 BEGIN ATOM
M  V30 1 O 1.107128 -3.256059 -1.331881 0
M  V30 2 C 1.951036 -2.597260 -2.034386 0
M  V30 3 C 2.530356 -1.845492 -0.958492 0
M  V30 4 C 3.533401 -2.278629 -0.133157 0
M  V30 5 C 3.953376 -1.399298 0.831836 0
M  V30 6 C 3.379035 -0.160239 0.940746 0
M  V30 7 F 3.814897 0.674256 1.902036 0
M  V30 8 C 2.375615 0.307509 0.135449 0
M  V30 9 C 1.746262 1.629065 0.214181 0
M  V30 10 C 2.138587 2.772567 -0.475713 0
M  V30 11 O 3.130507 2.585623 -1.216413 0
M  V30 12 C 1.427867 3.936371 -0.281061 0
M  V30 13 C 0.353225 3.923002 0.590747 0
M  V30 14 N -0.032107 2.808741 1.265647 0
M  V30 15 N -1.079981 2.911578 2.089995 0
M  V30 16 C -1.506632 1.839549 2.799379 0
M  V30 17 O -2.584522 1.875387 3.672539 0
M  V30 18 C -3.082164 0.859952 4.416037 0
M  V30 19 C -3.068831 1.014915 5.789458 0
M  V30 20 C -3.541126 0.068835 6.685645 0
M  V30 21 C -4.049072 -1.085894 6.138736 0
M  V30 22 F -4.523007 -2.037281 7.006360 0
M  V30 23 C -4.124354 -1.374443 4.767533 0
M  V30 24 C -3.616570 -0.339175 4.013648 0
M  V30 25 F -3.668601 -0.539299 2.652314 0
M  V30 26 C -0.851745 0.623205 2.670085 0
M  V30 27 C 0.223513 0.571238 1.804674 0
M  V30 28 C 0.667221 1.677695 1.070236 0
M  V30 29 C 1.947474 -0.594212 -0.852912 0
M  V30 30 N 1.121529 -3.505477 -2.702484 0
M  V30 31 C 0.058581 -4.467405 -2.477682 0
M  V30 32 C -1.038383 -3.823304 -3.334614 0
M  V30 33 C -0.225877 -3.328273 -4.533653 0
M  V30 34 C 1.222831 -3.669166 -4.164216 0
M  V30 35 H 3.915978 -3.273110 -0.300481 0
M  V30 36 H 4.744294 -1.710176 1.498729 0
M  V30 37 H 1.771402 4.783202 -0.835259 0
M  V30 38 H -0.199902 4.842016 0.735479 0
M  V30 39 H -2.671900 1.922602 6.267536 0
M  V30 40 H -3.524295 0.201246 7.754931 0
M  V30 41 H -4.514875 -2.259883 4.340247 0
M  V30 42 H -1.073989 -0.295404 3.166119 0
M  V30 43 H 0.771025 -0.363808 1.668170 0
M  V30 44 H 1.141289 -0.212251 -1.497882 0
M  V30 45 H -0.226558 -4.606202 -1.436153 0
M  V30 46 H 0.340652 -5.411004 -2.993330 0
M  V30 47 H -1.830941 -4.515534 -3.599184 0
M  V30 48 H -1.380689 -2.943066 -2.733337 0
M  V30 49 H -0.581797 -3.880968 -5.407211 0
M  V30 50 H -0.315200 -2.231956 -4.591764 0
M  V30 51 H 1.930106 -2.991062 -4.630233 0
M  V30 52 H 1.380270 -4.729768 -4.383304 0
M  V30 END ATOM
M  V30 BEGIN BOND
M  V30 1 2 1 2
M  V30 2 1 2 3
M  V30 3 2 3 4
M  V30 4 1 4 5
M  V30 5 2 5 6
M  V30 6 1 6 7
M  V30 7 1 6 8
M  V30 8 1 8 9
M  V30 9 1 9 10
M  V30 10 2 10 11
M  V30 11 1 10 12
M  V30 12 2 12 13
M  V30 13 1 13 14
M  V30 14 1 14 15
M  V30 15 2 15 16
M  V30 16 1 16 17
M  V30 17 1 17 18
M  V30 18 2 18 19
M  V30 19 1 19 20
M  V30 20 2 20 21
M  V30 21 1 21 22
M  V30 22 1 21 23
M  V30 23 2 23 24
M  V30 24 1 24 25
M  V30 25 1 16 26
M  V30 26 2 26 27
M  V30 27 1 27 28
M  V30 28 2 8 29
M  V30 29 1 2 30
M  V30 30 1 30 31
M  V30 31 1 31 32
M  V30 32 1 32 33
M  V30 33 1 33 34
M  V30 34 1 29 3
M  V30 35 1 34 30
M  V30 36 2 28 9
M  V30 37 1 28 14
M  V30 38 1 24 18
M  V30 39 1 4 35
M  V30 40 1 5 36
M  V30 41 1 12 37
M  V30 42 1 13 38
M  V30 43 1 19 39
M  V30 44 1 20 40
M  V30 45 1 23 41
M  V30 46 1 26 42
M  V30 47 1 27 43
M  V30 48 1 29 44
M  V30 49 1 31 45
M  V30 50 1 31 46
M  V30 51 1 32 47
M  V30 52 1 32 48
M  V30 53 1 33 49
M  V30 54 1 33 50
M  V30 55 1 34 51
M  V30 56 1 34 52
M  V30 END BOND
M  V30 END CTAB
M  END
>  <Dataset>  (467) 
ChEMBL_Kinases

>  <Ligand_Instance>  (467) 
nan

>  <PDB_ID>  (467) 
nan

>  <Standardized_SMILES>  (467) 
O=C(c1ccc(F)c(-c2c(=O)ccn3nc(Oc4ccc(F)cc4F)ccc23)c1)N1CCCC1

>  <Name>  (467) 
nan

>  <Pocket>  (467) 
nan

>  <ATP_Site>  (467) 
nan

>  <Peripheral>  (467) 
nan

>  <Num_H_Atoms_ProtBoundConf>  (467) 
nan

>  <Num_Resolved_Atoms>  (467) 
nan

>  <Num_Not_Resolved_Atoms>  (467) 
nan

$$$$
CHEMBL4640475
     RDKit          3D

  0  0  0  0  0  0  0  0  0  0999 V3000
M  V30 BEGIN CTAB
M  V30 COUNTS 27 29 0 0 0
M  V30 BEGIN ATOM
M  V30 1 N -1.988596 -2.666768 1.660157 0
M  V30 2 C -0.922052 -3.088433 2.497328 0
M  V30 3 O -1.170251 -4.054591 3.255386 0
M  V30 4 C 0.356775 -2.424281 2.453599 0
M  V30 5 C 1.409060 -2.810761 3.254299 0
M  V30 6 C 2.634181 -2.151004 3.190276 0
M  V30 7 C 2.784394 -1.100446 2.311921 0
M  V30 8 C 1.749376 -0.685426 1.492933 0
M  V30 9 N 1.648332 0.295681 0.568128 0
M  V30 10 C 0.410738 0.241913 0.082526 0
M  V30 11 C -0.235805 1.064620 -0.936008 0
M  V30 12 C -1.561413 0.888838 -1.347946 0
M  V30 13 N -2.089423 1.700222 -2.305706 0
M  V30 14 C -1.369390 2.679265 -2.877618 0
M  V30 15 N -0.088886 2.879763 -2.507387 0
M  V30 16 C 0.471614 2.088238 -1.553463 0
M  V30 17 N -0.258886 -0.767249 0.700032 0
M  V30 18 C 0.553977 -1.367442 1.589754 0
M  V30 19 H -2.334964 -2.366418 0.727594 0
M  V30 20 H -2.329376 -2.366993 0.725391 0
M  V30 21 H 1.191658 -3.643650 3.908198 0
M  V30 22 H 3.423366 -2.498188 3.842091 0
M  V30 23 H 3.738909 -0.573373 2.250265 0
M  V30 24 H 2.378835 0.983552 0.265572 0
M  V30 25 H -2.119167 0.090336 -0.869086 0
M  V30 26 H -1.948875 3.219134 -3.612887 0
M  V30 27 H 1.511530 2.289100 -1.287117 0
M  V30 END ATOM
M  V30 BEGIN BOND
M  V30 1 1 1 2
M  V30 2 2 2 3
M  V30 3 1 2 4
M  V30 4 2 4 5
M  V30 5 1 5 6
M  V30 6 2 6 7
M  V30 7 1 7 8
M  V30 8 1 8 9
M  V30 9 1 9 10
M  V30 10 1 10 11
M  V30 11 2 11 12
M  V30 12 1 12 13
M  V30 13 2 13 14
M  V30 14 1 14 15
M  V30 15 2 15 16
M  V30 16 2 10 17
M  V30 17 1 17 18
M  V30 18 1 18 4
M  V30 19 2 18 8
M  V30 20 1 16 11
M  V30 21 1 1 19
M  V30 22 1 1 20
M  V30 23 1 5 21
M  V30 24 1 6 22
M  V30 25 1 7 23
M  V30 26 1 9 24
M  V30 27 1 12 25
M  V30 28 1 14 26
M  V30 29 1 16 27
M  V30 END BOND
M  V30 END CTAB
M  END
>  <Dataset>  (468) 
ChEMBL_Kinases

>  <Ligand_Instance>  (468) 
nan

>  <PDB_ID>  (468) 
nan

>  <Standardized_SMILES>  (468) 
NC(=O)c1cccc2[nH]c(-c3cncnc3)nc12

>  <Name>  (468) 
nan

>  <Pocket>  (468) 
nan

>  <ATP_Site>  (468) 
nan

>  <Peripheral>  (468) 
nan

>  <Num_H_Atoms_ProtBoundConf>  (468) 
nan

>  <Num_Resolved_Atoms>  (468) 
nan

>  <Num_Not_Resolved_Atoms>  (468) 
nan

$$$$
CHEMBL591986
     RDKit          3D

  0  0  0  0  0  0  0  0  0  0999 V3000
M  V30 BEGIN CTAB
M  V30 COUNTS 48 51 0 0 0
M  V30 BEGIN ATOM
M  V30 1 C -4.631884 -3.892051 2.024505 0
M  V30 2 C -3.477178 -3.216049 1.633384 0
M  V30 3 C -2.657861 -3.618812 0.626896 0
M  V30 4 C -1.482036 -2.819533 0.320350 0
M  V30 5 C -0.579075 -3.124516 -0.674493 0
M  V30 6 N 0.488929 -2.338241 -0.903974 0
M  V30 7 C 0.660578 -1.232654 -0.131990 0
M  V30 8 N 1.810572 -0.458371 -0.451227 0
M  V30 9 C 1.758843 0.932983 -0.874651 0
M  V30 10 C 2.550604 0.937987 -2.168103 0
M  V30 11 C 3.744126 0.101982 -1.742252 0
M  V30 12 C 3.269023 -0.605503 -0.516137 0
M  V30 13 C -0.213132 -0.885463 0.874169 0
M  V30 14 N -0.017720 0.279861 1.689409 0
M  V30 15 C 1.163253 0.276631 2.505593 0
M  V30 16 C 1.781424 1.573992 2.824850 0
M  V30 17 C 0.958761 2.792003 2.845546 0
M  V30 18 N 0.013169 2.998742 1.812077 0
M  V30 19 C -1.230203 2.311409 2.113445 0
M  V30 20 C -1.198984 1.032820 1.311170 0
M  V30 21 N -1.259684 -1.712335 1.052110 0
M  V30 22 C -2.988802 -4.766500 -0.048928 0
M  V30 23 C -4.143911 -5.416348 0.364104 0
M  V30 24 N -4.940934 -5.015676 1.350457 0
M  V30 25 H -5.263787 -3.566330 2.813304 0
M  V30 26 H -3.285008 -2.322132 2.213611 0
M  V30 27 H -0.728970 -3.992590 -1.268101 0
M  V30 28 H 2.369209 1.513085 -0.153283 0
M  V30 29 H 0.738542 1.323115 -1.007435 0
M  V30 30 H 2.892963 1.945677 -2.455157 0
M  V30 31 H 1.980166 0.431014 -2.971650 0
M  V30 32 H 4.596510 0.771441 -1.569601 0
M  V30 33 H 4.051564 -0.584500 -2.560014 0
M  V30 34 H 3.784127 -0.245698 0.373318 0
M  V30 35 H 3.544196 -1.680556 -0.643008 0
M  V30 36 H 0.917137 -0.297426 3.451688 0
M  V30 37 H 1.938235 -0.358929 2.027596 0
M  V30 38 H 2.224251 1.475782 3.864680 0
M  V30 39 H 2.708020 1.751449 2.200242 0
M  V30 40 H 0.406209 2.901010 3.825050 0
M  V30 41 H 1.641263 3.674819 2.839950 0
M  V30 42 H 0.404277 2.792988 0.888851 0
M  V30 43 H -1.256290 2.065247 3.183749 0
M  V30 44 H -2.132427 2.889091 1.789132 0
M  V30 45 H -2.107999 0.456224 1.626563 0
M  V30 46 H -1.309799 1.199465 0.234861 0
M  V30 47 H -2.374000 -5.120536 -0.847021 0
M  V30 48 H -4.372240 -6.325279 -0.198911 0
M  V30 END ATOM
M  V30 BEGIN BOND
M  V30 1 2 1 2
M  V30 2 1 2 3
M  V30 3 1 3 4
M  V30 4 2 4 5
M  V30 5 1 5 6
M  V30 6 2 6 7
M  V30 7 1 7 8
M  V30 8 1 8 9
M  V30 9 1 9 10
M  V30 10 1 10 11
M  V30 11 1 11 12
M  V30 12 1 7 13
M  V30 13 1 13 14
M  V30 14 1 14 15
M  V30 15 1 15 16
M  V30 16 1 16 17
M  V30 17 1 17 18
M  V30 18 1 18 19
M  V30 19 1 19 20
M  V30 20 2 13 21
M  V30 21 2 3 22
M  V30 22 1 22 23
M  V30 23 2 23 24
M  V30 24 1 24 1
M  V30 25 1 21 4
M  V30 26 1 12 8
M  V30 27 1 20 14
M  V30 28 1 1 25
M  V30 29 1 2 26
M  V30 30 1 5 27
M  V30 31 1 9 28
M  V30 32 1 9 29
M  V30 33 1 10 30
M  V30 34 1 10 31
M  V30 35 1 11 32
M  V30 36 1 11 33
M  V30 37 1 12 34
M  V30 38 1 12 35
M  V30 39 1 15 36
M  V30 40 1 15 37
M  V30 41 1 16 38
M  V30 42 1 16 39
M  V30 43 1 17 40
M  V30 44 1 17 41
M  V30 45 1 18 42
M  V30 46 1 19 43
M  V30 47 1 19 44
M  V30 48 1 20 45
M  V30 49 1 20 46
M  V30 50 1 22 47
M  V30 51 1 23 48
M  V30 END BOND
M  V30 END CTAB
M  END
>  <Dataset>  (469) 
ChEMBL_Kinases

>  <Ligand_Instance>  (469) 
nan

>  <PDB_ID>  (469) 
nan

>  <Standardized_SMILES>  (469) 
c1cc(-c2cnc(N3CCCC3)c(N3CCCNCC3)n2)ccn1

>  <Name>  (469) 
nan

>  <Pocket>  (469) 
nan

>  <ATP_Site>  (469) 
nan

>  <Peripheral>  (469) 
nan

>  <Num_H_Atoms_ProtBoundConf>  (469) 
nan

>  <Num_Resolved_Atoms>  (469) 
nan

>  <Num_Not_Resolved_Atoms>  (469) 
nan

$$$$
CHEMBL213713
     RDKit          3D

  0  0  0  0  0  0  0  0  0  0999 V3000
M  V30 BEGIN CTAB
M  V30 COUNTS 51 53 0 0 0
M  V30 BEGIN ATOM
M  V30 1 C 3.379994 1.722568 -5.076037 0
M  V30 2 O 3.142410 1.532212 -3.694266 0
M  V30 3 C 4.083255 1.796519 -2.730166 0
M  V30 4 C 5.322790 2.274339 -3.167718 0
M  V30 5 C 6.318208 2.563830 -2.274679 0
M  V30 6 F 7.483741 3.018159 -2.779214 0
M  V30 7 C 6.107711 2.387662 -0.935545 0
M  V30 8 F 7.124385 2.687840 -0.094062 0
M  V30 9 C 4.884948 1.919171 -0.533952 0
M  V30 10 F 4.774531 1.828835 0.803037 0
M  V30 11 C 3.839130 1.605385 -1.369041 0
M  V30 12 C 2.529885 1.139244 -0.999278 0
M  V30 13 O 1.664477 1.480485 -1.856948 0
M  V30 14 C 1.944071 0.390375 0.079646 0
M  V30 15 C 2.621974 -0.330926 1.030238 0
M  V30 16 N 1.991715 -1.034794 1.988410 0
M  V30 17 C 0.643185 -1.066761 2.060976 0
M  V30 18 N -0.004603 -1.813357 3.078710 0
M  V30 19 C -1.446565 -1.835914 3.131351 0
M  V30 20 C -2.102617 -2.402023 1.902227 0
M  V30 21 C -3.603326 -2.205426 2.129041 0
M  V30 22 N -4.002539 -3.089529 3.187809 0
M  V30 23 S -5.711611 -3.158165 3.369952 0
M  V30 24 C -6.496678 -3.775620 1.903097 0
M  V30 25 O -6.307748 -1.844816 3.741477 0
M  V30 26 O -6.003736 -4.129898 4.481925 0
M  V30 27 C -3.334342 -2.885037 4.432560 0
M  V30 28 C -1.859604 -2.726532 4.277244 0
M  V30 29 N -0.048016 -0.372318 1.144733 0
M  V30 30 C 0.572882 0.349472 0.163600 0
M  V30 31 N -0.353327 1.002374 -0.691482 0
M  V30 32 H 4.318889 1.213384 -5.403789 0
M  V30 33 H 3.500385 2.787660 -5.359572 0
M  V30 34 H 2.576176 1.218598 -5.668106 0
M  V30 35 H 5.487957 2.415349 -4.240471 0
M  V30 36 H 3.683255 -0.414688 1.074160 0
M  V30 37 H 0.584485 -2.336872 3.776071 0
M  V30 38 H -1.833204 -0.810321 3.343735 0
M  V30 39 H -1.776741 -1.983174 0.953382 0
M  V30 40 H -1.951364 -3.520300 1.893875 0
M  V30 41 H -4.189094 -2.450072 1.234496 0
M  V30 42 H -3.725709 -1.128397 2.392081 0
M  V30 43 H -5.809424 -4.422227 1.315880 0
M  V30 44 H -6.802329 -2.956390 1.219198 0
M  V30 45 H -7.366208 -4.383159 2.199563 0
M  V30 46 H -3.502108 -3.808045 5.055620 0
M  V30 47 H -3.776388 -2.067910 5.044406 0
M  V30 48 H -1.398143 -2.322713 5.196056 0
M  V30 49 H -1.414541 -3.752673 4.132210 0
M  V30 50 H -0.970164 1.804197 -0.430038 0
M  V30 51 H -0.542606 0.763690 -1.707741 0
M  V30 END ATOM
M  V30 BEGIN BOND
M  V30 1 1 1 2
M  V30 2 1 2 3
M  V30 3 2 3 4
M  V30 4 1 4 5
M  V30 5 1 5 6
M  V30 6 2 5 7
M  V30 7 1 7 8
M  V30 8 1 7 9
M  V30 9 1 9 10
M  V30 10 2 9 11
M  V30 11 1 11 12
M  V30 12 2 12 13
M  V30 13 1 12 14
M  V30 14 2 14 15
M  V30 15 1 15 16
M  V30 16 2 16 17
M  V30 17 1 17 18
M  V30 18 1 18 19
M  V30 19 1 19 20
M  V30 20 1 20 21
M  V30 21 1 21 22
M  V30 22 1 22 23
M  V30 23 1 23 24
M  V30 24 2 23 25
M  V30 25 2 23 26
M  V30 26 1 22 27
M  V30 27 1 27 28
M  V30 28 1 17 29
M  V30 29 2 29 30
M  V30 30 1 30 31
M  V30 31 1 11 3
M  V30 32 1 30 14
M  V30 33 1 28 19
M  V30 34 1 1 32
M  V30 35 1 1 33
M  V30 36 1 1 34
M  V30 37 1 4 35
M  V30 38 1 15 36
M  V30 39 1 18 37
M  V30 40 1 19 38
M  V30 41 1 20 39
M  V30 42 1 20 40
M  V30 43 1 21 41
M  V30 44 1 21 42
M  V30 45 1 24 43
M  V30 46 1 24 44
M  V30 47 1 24 45
M  V30 48 1 27 46
M  V30 49 1 27 47
M  V30 50 1 28 48
M  V30 51 1 28 49
M  V30 52 1 31 50
M  V30 53 1 31 51
M  V30 END BOND
M  V30 END CTAB
M  END
>  <Dataset>  (470) 
ChEMBL_Kinases

>  <Ligand_Instance>  (470) 
nan

>  <PDB_ID>  (470) 
nan

>  <Standardized_SMILES>  (470) 
COc1cc(F)c(F)c(F)c1C(=O)c1cnc(NC2CCN(S(C)(=O)=O)CC2)nc1N

>  <Name>  (470) 
nan

>  <Pocket>  (470) 
nan

>  <ATP_Site>  (470) 
nan

>  <Peripheral>  (470) 
nan

>  <Num_H_Atoms_ProtBoundConf>  (470) 
nan

>  <Num_Resolved_Atoms>  (470) 
nan

>  <Num_Not_Resolved_Atoms>  (470) 
nan

$$$$
CHEMBL207400
     RDKit          3D

  0  0  0  0  0  0  0  0  0  0999 V3000
M  V30 BEGIN CTAB
M  V30 COUNTS 28 30 0 0 0
M  V30 BEGIN ATOM
M  V30 1 C 0.528238 -3.669405 2.647261 0
M  V30 2 N 1.073278 -2.493396 1.995905 0
M  V30 3 N 2.386941 -2.330777 2.030730 0
M  V30 4 C 2.733281 -1.201403 1.387343 0
M  V30 5 C 4.038800 -0.540244 1.121920 0
M  V30 6 F 5.052242 -1.279774 1.668320 0
M  V30 7 F 4.068694 0.742756 1.661773 0
M  V30 8 F 4.256838 -0.455000 -0.233720 0
M  V30 9 C 1.563884 -0.630465 0.926484 0
M  V30 10 C 1.200570 0.501626 0.209863 0
M  V30 11 O 2.092781 1.273959 -0.164026 0
M  V30 12 C -0.137806 0.718022 -0.055125 0
M  V30 13 C -0.493297 1.851483 -0.771788 0
M  V30 14 C -1.839444 2.048700 -1.026045 0
M  V30 15 Cl -2.307280 3.481080 -1.933562 0
M  V30 16 C -2.856000 1.198031 -0.617651 0
M  V30 17 C -2.480619 0.059358 0.104146 0
M  V30 18 C -1.141242 -0.152553 0.366549 0
M  V30 19 N -0.772319 -1.260307 1.069122 0
M  V30 20 O -1.742850 -2.120901 1.488129 0
M  V30 21 C 0.534261 -1.460401 1.321108 0
M  V30 22 H 1.004319 -3.805207 3.662565 0
M  V30 23 H -0.541938 -3.604440 2.837466 0
M  V30 24 H 0.835833 -4.598003 2.096833 0
M  V30 25 H 0.238001 2.565840 -1.127115 0
M  V30 26 H -3.889672 1.434581 -0.863979 0
M  V30 27 H -3.247717 -0.614958 0.431796 0
M  V30 28 H -1.952172 -2.911188 0.868310 0
M  V30 END ATOM
M  V30 BEGIN BOND
M  V30 1 1 1 2
M  V30 2 1 2 3
M  V30 3 2 3 4
M  V30 4 1 4 5
M  V30 5 1 5 6
M  V30 6 1 5 7
M  V30 7 1 5 8
M  V30 8 1 4 9
M  V30 9 1 9 10
M  V30 10 2 10 11
M  V30 11 1 10 12
M  V30 12 2 12 13
M  V30 13 1 13 14
M  V30 14 1 14 15
M  V30 15 2 14 16
M  V30 16 1 16 17
M  V30 17 2 17 18
M  V30 18 1 18 19
M  V30 19 1 19 20
M  V30 20 1 19 21
M  V30 21 1 21 2
M  V30 22 2 21 9
M  V30 23 1 18 12
M  V30 24 1 1 22
M  V30 25 1 1 23
M  V30 26 1 1 24
M  V30 27 1 13 25
M  V30 28 1 16 26
M  V30 29 1 17 27
M  V30 30 1 20 28
M  V30 END BOND
M  V30 END CTAB
M  END
>  <Dataset>  (471) 
ChEMBL_Kinases

>  <Ligand_Instance>  (471) 
nan

>  <PDB_ID>  (471) 
nan

>  <Standardized_SMILES>  (471) 
Cn1nc(C(F)(F)F)c2c(=O)c3cc(Cl)ccc3n(O)c21

>  <Name>  (471) 
nan

>  <Pocket>  (471) 
nan

>  <ATP_Site>  (471) 
nan

>  <Peripheral>  (471) 
nan

>  <Num_H_Atoms_ProtBoundConf>  (471) 
nan

>  <Num_Resolved_Atoms>  (471) 
nan

>  <Num_Not_Resolved_Atoms>  (471) 
nan

$$$$
CHEMBL2079397
     RDKit          3D

  0  0  0  0  0  0  0  0  0  0999 V3000
M  V30 BEGIN CTAB
M  V30 COUNTS 49 53 0 0 0
M  V30 BEGIN ATOM
M  V30 1 N 2.124642 -6.645528 2.359432 0
M  V30 2 C 1.020497 -6.130439 1.601832 0
M  V30 3 C 0.028700 -6.935997 1.112394 0
M  V30 4 C -1.033455 -6.398964 0.377157 0
M  V30 5 C -1.077247 -5.046579 0.146170 0
M  V30 6 N -1.883070 -4.150078 -0.485256 0
M  V30 7 C -1.391688 -2.927143 -0.367086 0
M  V30 8 C -1.923250 -1.669265 -0.884210 0
M  V30 9 C -1.293647 -0.477239 -0.676580 0
M  V30 10 C -1.743572 0.746778 -1.138965 0
M  V30 11 C -0.943263 1.948164 -0.825802 0
M  V30 12 C -0.759130 3.134625 -1.539659 0
M  V30 13 N 0.067559 3.904760 -0.810480 0
M  V30 14 N 0.415010 3.293305 0.303173 0
M  V30 15 C 1.270726 3.683414 1.409649 0
M  V30 16 C 0.638162 3.391550 2.717512 0
M  V30 17 C 1.271884 2.357932 3.573861 0
M  V30 18 N 2.651533 2.087631 3.347950 0
M  V30 19 C 2.836181 1.787633 1.945247 0
M  V30 20 C 2.634669 3.089089 1.217444 0
M  V30 21 C -0.186335 2.067547 0.347319 0
M  V30 22 C -2.918345 0.744650 -1.862493 0
M  V30 23 N -3.560829 -0.426849 -2.081173 0
M  V30 24 C -3.093540 -1.614453 -1.613630 0
M  V30 25 N -3.829984 -2.785068 -1.890219 0
M  V30 26 O -0.283597 -3.024219 0.329944 0
M  V30 27 C -0.054742 -4.269382 0.658767 0
M  V30 28 C 1.023710 -4.760373 1.397163 0
M  V30 29 H 1.800122 -6.585005 3.359440 0
M  V30 30 H 3.040639 -6.999291 1.992449 0
M  V30 31 H 0.051880 -8.012852 1.289090 0
M  V30 32 H -1.837804 -6.994808 -0.028134 0
M  V30 33 H -0.373829 -0.492462 -0.107313 0
M  V30 34 H -1.232913 3.315606 -2.494935 0
M  V30 35 H 1.400322 4.783347 1.318737 0
M  V30 36 H -0.416584 3.042597 2.528146 0
M  V30 37 H 0.495518 4.314412 3.328170 0
M  V30 38 H 1.174965 2.628288 4.663539 0
M  V30 39 H 0.726500 1.370297 3.521082 0
M  V30 40 H 3.217055 2.941399 3.554553 0
M  V30 41 H 3.900422 1.506327 1.802810 0
M  V30 42 H 2.235318 0.955801 1.581770 0
M  V30 43 H 2.844842 2.956128 0.126950 0
M  V30 44 H 3.423360 3.779909 1.576565 0
M  V30 45 H -0.128005 1.288810 1.117870 0
M  V30 46 H -3.265762 1.695098 -2.220371 0
M  V30 47 H -4.117804 -3.548609 -1.226169 0
M  V30 48 H -4.142011 -2.936366 -2.876054 0
M  V30 49 H 1.789095 -4.091578 1.767946 0
M  V30 END ATOM
M  V30 BEGIN BOND
M  V30 1 1 1 2
M  V30 2 2 2 3
M  V30 3 1 3 4
M  V30 4 2 4 5
M  V30 5 1 5 6
M  V30 6 2 6 7
M  V30 7 1 7 8
M  V30 8 2 8 9
M  V30 9 1 9 10
M  V30 10 1 10 11
M  V30 11 1 11 12
M  V30 12 2 12 13
M  V30 13 1 13 14
M  V30 14 1 14 15
M  V30 15 1 15 16
M  V30 16 1 16 17
M  V30 17 1 17 18
M  V30 18 1 18 19
M  V30 19 1 19 20
M  V30 20 1 14 21
M  V30 21 2 10 22
M  V30 22 1 22 23
M  V30 23 2 23 24
M  V30 24 1 24 25
M  V30 25 1 7 26
M  V30 26 1 26 27
M  V30 27 2 27 28
M  V30 28 1 28 2
M  V30 29 1 27 5
M  V30 30 1 24 8
M  V30 31 2 21 11
M  V30 32 1 20 15
M  V30 33 1 1 29
M  V30 34 1 1 30
M  V30 35 1 3 31
M  V30 36 1 4 32
M  V30 37 1 9 33
M  V30 38 1 12 34
M  V30 39 1 15 35
M  V30 40 1 16 36
M  V30 41 1 16 37
M  V30 42 1 17 38
M  V30 43 1 17 39
M  V30 44 1 18 40
M  V30 45 1 19 41
M  V30 46 1 19 42
M  V30 47 1 20 43
M  V30 48 1 20 44
M  V30 49 1 21 45
M  V30 50 1 22 46
M  V30 51 1 25 47
M  V30 52 1 25 48
M  V30 53 1 28 49
M  V30 END BOND
M  V30 END CTAB
M  END
>  <Dataset>  (472) 
ChEMBL_Kinases

>  <Ligand_Instance>  (472) 
nan

>  <PDB_ID>  (472) 
nan

>  <Standardized_SMILES>  (472) 
Nc1ccc2nc(-c3cc(-c4cnn(C5CCNCC5)c4)cnc3N)oc2c1

>  <Name>  (472) 
nan

>  <Pocket>  (472) 
nan

>  <ATP_Site>  (472) 
nan

>  <Peripheral>  (472) 
nan

>  <Num_H_Atoms_ProtBoundConf>  (472) 
nan

>  <Num_Resolved_Atoms>  (472) 
nan

>  <Num_Not_Resolved_Atoms>  (472) 
nan

$$$$
CHEMBL209448
     RDKit          3D

  0  0  0  0  0  0  0  0  0  0999 V3000
M  V30 BEGIN CTAB
M  V30 COUNTS 38 42 0 0 0
M  V30 BEGIN ATOM
M  V30 1 N 2.996668 -1.542988 3.185413 0
M  V30 2 C 3.023014 -2.099179 2.153424 0
M  V30 3 C 3.033092 -2.789209 0.888731 0
M  V30 4 C 4.010198 -3.744853 0.714571 0
M  V30 5 C 4.053646 -4.434450 -0.494690 0
M  V30 6 C 3.123084 -4.141736 -1.475206 0
M  V30 7 C 2.150702 -3.179605 -1.281267 0
M  V30 8 C 2.087554 -2.481857 -0.089135 0
M  V30 9 C 1.105638 -1.448054 0.222311 0
M  V30 10 C 1.402163 -0.137233 -0.089496 0
M  V30 11 C 0.484781 0.846459 0.199090 0
M  V30 12 N 0.521732 2.177209 0.003625 0
M  V30 13 C -0.655932 2.682479 0.475732 0
M  V30 14 C -1.048737 4.020839 0.476267 0
M  V30 15 C -2.278088 4.380908 0.991550 0
M  V30 16 C -3.108591 3.377816 1.506855 0
M  V30 17 O -4.346412 3.732164 2.026781 0
M  V30 18 C -2.644682 2.082788 1.467912 0
M  V30 19 C -1.446182 1.670801 0.973735 0
M  V30 20 C -0.715077 0.537841 0.790560 0
M  V30 21 C -1.008420 -0.750900 1.097949 0
M  V30 22 C -0.110179 -1.752509 0.820541 0
M  V30 23 C -0.585194 -3.088871 1.217607 0
M  V30 24 O 0.006186 -4.173930 1.092070 0
M  V30 25 N -1.883954 -2.811156 1.775758 0
M  V30 26 C -2.128845 -1.418158 1.701131 0
M  V30 27 O -3.220171 -1.052898 2.152440 0
M  V30 28 H 4.732127 -3.959389 1.498557 0
M  V30 29 H 4.838170 -5.185782 -0.604894 0
M  V30 30 H 3.161002 -4.681778 -2.415828 0
M  V30 31 H 1.412464 -2.932413 -2.031320 0
M  V30 32 H 2.351335 0.097873 -0.556184 0
M  V30 33 H 1.336567 2.667653 -0.435723 0
M  V30 34 H -0.410348 4.773863 0.082579 0
M  V30 35 H -2.545949 5.427266 0.973981 0
M  V30 36 H -4.446671 3.757833 3.049211 0
M  V30 37 H -3.327794 1.381016 1.875225 0
M  V30 38 H -2.444180 -3.628993 2.142319 0
M  V30 END ATOM
M  V30 BEGIN BOND
M  V30 1 3 1 2
M  V30 2 1 2 3
M  V30 3 2 3 4
M  V30 4 1 4 5
M  V30 5 2 5 6
M  V30 6 1 6 7
M  V30 7 2 7 8
M  V30 8 1 8 9
M  V30 9 2 9 10
M  V30 10 1 10 11
M  V30 11 1 11 12
M  V30 12 1 12 13
M  V30 13 2 13 14
M  V30 14 1 14 15
M  V30 15 2 15 16
M  V30 16 1 16 17
M  V30 17 1 16 18
M  V30 18 2 18 19
M  V30 19 1 19 20
M  V30 20 1 20 21
M  V30 21 2 21 22
M  V30 22 1 22 23
M  V30 23 2 23 24
M  V30 24 1 23 25
M  V30 25 1 25 26
M  V30 26 2 26 27
M  V30 27 1 8 3
M  V30 28 1 22 9
M  V30 29 2 20 11
M  V30 30 1 26 21
M  V30 31 1 19 13
M  V30 32 1 4 28
M  V30 33 1 5 29
M  V30 34 1 6 30
M  V30 35 1 7 31
M  V30 36 1 10 32
M  V30 37 1 12 33
M  V30 38 1 14 34
M  V30 39 1 15 35
M  V30 40 1 17 36
M  V30 41 1 18 37
M  V30 42 1 25 38
M  V30 END BOND
M  V30 END CTAB
M  END
>  <Dataset>  (473) 
ChEMBL_Kinases

>  <Ligand_Instance>  (473) 
nan

>  <PDB_ID>  (473) 
nan

>  <Standardized_SMILES>  (473) 
N#Cc1ccccc1-c1cc2[nH]c3ccc(O)cc3c2c2c1C(=O)NC2=O

>  <Name>  (473) 
nan

>  <Pocket>  (473) 
nan

>  <ATP_Site>  (473) 
nan

>  <Peripheral>  (473) 
nan

>  <Num_H_Atoms_ProtBoundConf>  (473) 
nan

>  <Num_Resolved_Atoms>  (473) 
nan

>  <Num_Not_Resolved_Atoms>  (473) 
nan

$$$$
CHEMBL2088582
     RDKit          3D

  0  0  0  0  0  0  0  0  0  0999 V3000
M  V30 BEGIN CTAB
M  V30 COUNTS 44 47 0 0 0
M  V30 BEGIN ATOM
M  V30 1 C 3.569371 3.798026 -3.431985 0
M  V30 2 O 2.906241 3.391491 -2.262957 0
M  V30 3 C 3.357975 2.465339 -1.385833 0
M  V30 4 O 4.319941 2.414727 -2.189033 0
M  V30 5 C 3.345040 1.635870 -0.220415 0
M  V30 6 C 4.422984 0.807852 -0.028279 0
M  V30 7 C 4.342262 0.034250 1.114963 0
M  V30 8 C 3.253945 0.113680 1.969145 0
M  V30 9 F 3.256524 -0.676904 3.061892 0
M  V30 10 C 2.208018 0.952636 1.733317 0
M  V30 11 C 1.108246 0.959043 2.693523 0
M  V30 12 C 1.108931 1.820571 3.787482 0
M  V30 13 O 2.078542 2.602689 3.937662 0
M  V30 14 C -0.004424 1.692725 4.593635 0
M  V30 15 C -1.002964 0.786175 4.310711 0
M  V30 16 N -0.952382 -0.023234 3.238120 0
M  V30 17 N -1.958511 -0.861250 3.051177 0
M  V30 18 C -1.996146 -1.714345 2.002067 0
M  V30 19 O -3.094818 -2.536360 1.915334 0
M  V30 20 C -3.230215 -3.459438 0.895547 0
M  V30 21 C -4.310011 -3.339868 0.033861 0
M  V30 22 C -4.438836 -4.267162 -0.983002 0
M  V30 23 C -3.562380 -5.304137 -1.196092 0
M  V30 24 F -3.781824 -6.167690 -2.235020 0
M  V30 25 C -2.468767 -5.436663 -0.334116 0
M  V30 26 C -2.360872 -4.504430 0.669052 0
M  V30 27 F -1.282680 -4.669124 1.501104 0
M  V30 28 C -0.917998 -1.645673 1.150375 0
M  V30 29 C 0.141501 -0.782427 1.323391 0
M  V30 30 C 0.112978 0.047442 2.401158 0
M  V30 31 C 2.244587 1.745481 0.602363 0
M  V30 32 H 2.896120 4.563053 -3.905136 0
M  V30 33 H 3.545111 2.950319 -4.178287 0
M  V30 34 H 4.557764 4.234478 -3.290328 0
M  V30 35 H 5.254691 0.773274 -0.716523 0
M  V30 36 H 5.168247 -0.649607 1.328495 0
M  V30 37 H -0.029493 2.364468 5.466603 0
M  V30 38 H -1.809118 0.811922 5.045537 0
M  V30 39 H -5.001499 -2.525373 0.197078 0
M  V30 40 H -5.285211 -4.172144 -1.656716 0
M  V30 41 H -1.764909 -6.243326 -0.480731 0
M  V30 42 H -0.928901 -2.312554 0.302883 0
M  V30 43 H 0.961977 -0.758969 0.639106 0
M  V30 44 H 1.418848 2.414346 0.406458 0
M  V30 END ATOM
M  V30 BEGIN BOND
M  V30 1 1 1 2
M  V30 2 1 2 3
M  V30 3 2 3 4
M  V30 4 1 3 5
M  V30 5 2 5 6
M  V30 6 1 6 7
M  V30 7 2 7 8
M  V30 8 1 8 9
M  V30 9 1 8 10
M  V30 10 1 10 11
M  V30 11 1 11 12
M  V30 12 2 12 13
M  V30 13 1 12 14
M  V30 14 2 14 15
M  V30 15 1 15 16
M  V30 16 1 16 17
M  V30 17 2 17 18
M  V30 18 1 18 19
M  V30 19 1 19 20
M  V30 20 2 20 21
M  V30 21 1 21 22
M  V30 22 2 22 23
M  V30 23 1 23 24
M  V30 24 1 23 25
M  V30 25 2 25 26
M  V30 26 1 26 27
M  V30 27 1 18 28
M  V30 28 2 28 29
M  V30 29 1 29 30
M  V30 30 2 10 31
M  V30 31 1 31 5
M  V30 32 2 30 11
M  V30 33 1 30 16
M  V30 34 1 26 20
M  V30 35 1 1 32
M  V30 36 1 1 33
M  V30 37 1 1 34
M  V30 38 1 6 35
M  V30 39 1 7 36
M  V30 40 1 14 37
M  V30 41 1 15 38
M  V30 42 1 21 39
M  V30 43 1 22 40
M  V30 44 1 25 41
M  V30 45 1 28 42
M  V30 46 1 29 43
M  V30 47 1 31 44
M  V30 END BOND
M  V30 END CTAB
M  END
>  <Dataset>  (474) 
ChEMBL_Kinases

>  <Ligand_Instance>  (474) 
nan

>  <PDB_ID>  (474) 
nan

>  <Standardized_SMILES>  (474) 
COC(=O)c1ccc(F)c(-c2c(=O)ccn3nc(Oc4ccc(F)cc4F)ccc23)c1

>  <Name>  (474) 
nan

>  <Pocket>  (474) 
nan

>  <ATP_Site>  (474) 
nan

>  <Peripheral>  (474) 
nan

>  <Num_H_Atoms_ProtBoundConf>  (474) 
nan

>  <Num_Resolved_Atoms>  (474) 
nan

>  <Num_Not_Resolved_Atoms>  (474) 
nan

$$$$
CHEMBL1099343
     RDKit          3D

  0  0  0  0  0  0  0  0  0  0999 V3000
M  V30 BEGIN CTAB
M  V30 COUNTS 71 76 0 0 0
M  V30 BEGIN ATOM
M  V30 1 C -0.042924 -5.931024 5.924825 0
M  V30 2 C -0.963348 -6.586044 4.896238 0
M  V30 3 N -1.080378 -5.698458 3.755025 0
M  V30 4 C -0.270758 -5.716460 2.682132 0
M  V30 5 C -0.654464 -4.737115 1.768555 0
M  V30 6 C 0.035345 -4.529466 0.524775 0
M  V30 7 C 0.031831 -5.623875 -0.299514 0
M  V30 8 C 0.656776 -5.594529 -1.548501 0
M  V30 9 N 1.260353 -4.434895 -1.895316 0
M  V30 10 C 1.284506 -3.340404 -1.112955 0
M  V30 11 N 1.801955 -2.101656 -1.225932 0
M  V30 12 C 1.518289 -1.388284 -0.107795 0
M  V30 13 C 1.905371 -0.004136 0.152571 0
M  V30 14 C 1.581786 0.663338 1.317065 0
M  V30 15 C 1.953796 1.972080 1.550089 0
M  V30 16 C 2.686317 2.675848 0.590762 0
M  V30 17 C 3.011790 1.997156 -0.585996 0
M  V30 18 N 3.755122 2.594393 -1.647919 0
M  V30 19 C 3.255431 3.315273 -2.767462 0
M  V30 20 C 4.182153 3.870563 -3.782320 0
M  V30 21 O 2.014015 3.418728 -2.792279 0
M  V30 22 C 2.629345 0.690543 -0.796209 0
M  V30 23 C 0.784641 -2.168233 0.793123 0
M  V30 24 C 0.665629 -3.368970 0.124330 0
M  V30 25 C -1.742634 -4.138445 2.369087 0
M  V30 26 C -2.456385 -3.038448 1.730247 0
M  V30 27 C -2.392602 -1.891505 2.530199 0
M  V30 28 C -2.998469 -0.705061 2.136151 0
M  V30 29 C -3.660050 -0.718001 0.925584 0
M  V30 30 N -4.298405 0.500122 0.490949 0
M  V30 31 C -3.435572 1.349281 -0.290732 0
M  V30 32 O -2.276669 0.831621 -0.430135 0
M  V30 33 N -3.800216 2.598609 -0.843357 0
M  V30 34 C -2.837764 3.346094 -1.604527 0
M  V30 35 C -2.609214 3.275884 -2.968103 0
M  V30 36 C -1.629087 4.087415 -3.507323 0
M  V30 37 C -0.888838 4.951585 -2.715875 0
M  V30 38 C -1.112379 5.027180 -1.349311 0
M  V30 39 C -2.097820 4.212700 -0.800142 0
M  V30 40 C -3.736904 -1.839589 0.117119 0
M  V30 41 C -3.124627 -3.002715 0.536667 0
M  V30 42 N -1.968341 -4.738723 3.554757 0
M  V30 43 H 0.946011 -5.803951 5.396849 0
M  V30 44 H -0.393627 -4.917681 6.186066 0
M  V30 45 H 0.132246 -6.585593 6.782017 0
M  V30 46 H -1.942038 -6.806547 5.380693 0
M  V30 47 H -0.454819 -7.510565 4.575998 0
M  V30 48 H 0.566965 -6.413016 2.565101 0
M  V30 49 H -0.433715 -6.578274 -0.077577 0
M  V30 50 H 0.718942 -6.386630 -2.276590 0
M  V30 51 H 2.324018 -1.791531 -2.052612 0
M  V30 52 H 1.014462 0.149498 2.083768 0
M  V30 53 H 1.702029 2.499025 2.462266 0
M  V30 54 H 3.010978 3.701473 0.705653 0
M  V30 55 H 4.767016 2.435677 -1.505975 0
M  V30 56 H 4.289172 4.968331 -3.699260 0
M  V30 57 H 3.818281 3.641650 -4.817748 0
M  V30 58 H 5.181922 3.390909 -3.636464 0
M  V30 59 H 2.878895 0.160530 -1.706160 0
M  V30 60 H 0.401215 -1.924656 1.758243 0
M  V30 61 H -1.889485 -1.795734 3.501855 0
M  V30 62 H -2.970700 0.202439 2.727631 0
M  V30 63 H -5.284051 0.856780 0.656101 0
M  V30 64 H -4.791597 2.853497 -0.621625 0
M  V30 65 H -3.224057 2.586414 -3.490238 0
M  V30 66 H -1.461826 4.019319 -4.584533 0
M  V30 67 H -0.111707 5.592433 -3.156344 0
M  V30 68 H -0.520127 5.714255 -0.737152 0
M  V30 69 H -2.214839 4.326756 0.270484 0
M  V30 70 H -4.252939 -1.859817 -0.833172 0
M  V30 71 H -3.105952 -3.936796 0.013777 0
M  V30 END ATOM
M  V30 BEGIN BOND
M  V30 1 1 1 2
M  V30 2 1 2 3
M  V30 3 1 3 4
M  V30 4 2 4 5
M  V30 5 1 5 6
M  V30 6 2 6 7
M  V30 7 1 7 8
M  V30 8 2 8 9
M  V30 9 1 9 10
M  V30 10 1 10 11
M  V30 11 1 11 12
M  V30 12 1 12 13
M  V30 13 2 13 14
M  V30 14 1 14 15
M  V30 15 2 15 16
M  V30 16 1 16 17
M  V30 17 1 17 18
M  V30 18 1 18 19
M  V30 19 1 19 20
M  V30 20 2 19 21
M  V30 21 2 17 22
M  V30 22 2 12 23
M  V30 23 1 23 24
M  V30 24 1 5 25
M  V30 25 1 25 26
M  V30 26 2 26 27
M  V30 27 1 27 28
M  V30 28 2 28 29
M  V30 29 1 29 30
M  V30 30 1 30 31
M  V30 31 2 31 32
M  V30 32 1 31 33
M  V30 33 1 33 34
M  V30 34 2 34 35
M  V30 35 1 35 36
M  V30 36 2 36 37
M  V30 37 1 37 38
M  V30 38 2 38 39
M  V30 39 1 29 40
M  V30 40 2 40 41
M  V30 41 2 25 42
M  V30 42 1 42 3
M  V30 43 1 24 6
M  V30 44 1 41 26
M  V30 45 2 24 10
M  V30 46 1 39 34
M  V30 47 1 22 13
M  V30 48 1 1 43
M  V30 49 1 1 44
M  V30 50 1 1 45
M  V30 51 1 2 46
M  V30 52 1 2 47
M  V30 53 1 4 48
M  V30 54 1 7 49
M  V30 55 1 8 50
M  V30 56 1 11 51
M  V30 57 1 14 52
M  V30 58 1 15 53
M  V30 59 1 16 54
M  V30 60 1 18 55
M  V30 61 1 20 56
M  V30 62 1 20 57
M  V30 63 1 20 58
M  V30 64 1 22 59
M  V30 65 1 23 60
M  V30 66 1 27 61
M  V30 67 1 28 62
M  V30 68 1 30 63
M  V30 69 1 33 64
M  V30 70 1 35 65
M  V30 71 1 36 66
M  V30 72 1 37 67
M  V30 73 1 38 68
M  V30 74 1 39 69
M  V30 75 1 40 70
M  V30 76 1 41 71
M  V30 END BOND
M  V30 END CTAB
M  END
>  <Dataset>  (475) 
ChEMBL_Kinases

>  <Ligand_Instance>  (475) 
nan

>  <PDB_ID>  (475) 
nan

>  <Standardized_SMILES>  (475) 
CCn1cc(-c2ccnc3[nH]c(-c4cccc(NC(C)=O)c4)cc23)c(-c2ccc(NC(=O)Nc3ccccc3)cc2)n1

>  <Name>  (475) 
nan

>  <Pocket>  (475) 
nan

>  <ATP_Site>  (475) 
nan

>  <Peripheral>  (475) 
nan

>  <Num_H_Atoms_ProtBoundConf>  (475) 
nan

>  <Num_Resolved_Atoms>  (475) 
nan

>  <Num_Not_Resolved_Atoms>  (475) 
nan

$$$$
CHEMBL1099344
     RDKit          3D

  0  0  0  0  0  0  0  0  0  0999 V3000
M  V30 BEGIN CTAB
M  V30 COUNTS 71 76 0 0 0
M  V30 BEGIN ATOM
M  V30 1 C -2.878226 -7.376963 2.691979 0
M  V30 2 C -1.517735 -7.666998 2.096123 0
M  V30 3 N -0.807608 -6.456929 1.722281 0
M  V30 4 C 0.043998 -5.664071 2.407620 0
M  V30 5 C 0.436286 -4.622757 1.559947 0
M  V30 6 C 1.370722 -3.566647 1.992530 0
M  V30 7 C 2.663489 -3.891891 2.373111 0
M  V30 8 C 3.518448 -2.878456 2.774939 0
M  V30 9 N 3.150275 -1.577078 2.814296 0
M  V30 10 C 1.881245 -1.242237 2.442615 0
M  V30 11 N 1.269837 -0.043895 2.390590 0
M  V30 12 C -0.000173 -0.227871 1.955371 0
M  V30 13 C -1.016953 0.805841 1.751755 0
M  V30 14 C -2.300221 0.555756 1.303885 0
M  V30 15 C -3.200954 1.608481 1.140684 0
M  V30 16 C -2.842071 2.911554 1.417699 0
M  V30 17 N -3.894487 3.851443 1.191430 0
M  V30 18 C -4.868697 4.272926 2.142513 0
M  V30 19 C -5.853396 5.262305 1.646587 0
M  V30 20 O -4.717765 3.718181 3.261255 0
M  V30 21 C -1.560263 3.178887 1.867207 0
M  V30 22 C -0.689679 2.119510 2.019799 0
M  V30 23 C -0.154640 -1.584031 1.739165 0
M  V30 24 C 1.026964 -2.228825 2.044283 0
M  V30 25 C -0.230309 -4.852108 0.350172 0
M  V30 26 C 0.019088 -3.885623 -0.712681 0
M  V30 27 C -0.927146 -3.088979 -1.310157 0
M  V30 28 C -0.619770 -2.193124 -2.313581 0
M  V30 29 C 0.706606 -2.149082 -2.679914 0
M  V30 30 N 1.048253 -1.218049 -3.728019 0
M  V30 31 C 1.409937 0.103118 -3.285014 0
M  V30 32 O 1.372093 0.247801 -2.019026 0
M  V30 33 N 1.790606 1.218174 -4.097274 0
M  V30 34 C 2.105590 2.435972 -3.399807 0
M  V30 35 C 3.415851 2.690540 -2.985454 0
M  V30 36 C 3.704213 3.856112 -2.320585 0
M  V30 37 C 2.730817 4.792470 -2.046526 0
M  V30 38 C 1.446980 4.508204 -2.470538 0
M  V30 39 C 1.104409 3.355974 -3.140195 0
M  V30 40 C 1.720784 -2.908925 -2.137032 0
M  V30 41 C 1.346406 -3.783888 -1.139046 0
M  V30 42 N -0.967840 -5.973976 0.505500 0
M  V30 43 H -2.772026 -6.770397 3.594933 0
M  V30 44 H -3.326236 -8.335700 2.969670 0
M  V30 45 H -3.563491 -6.885141 1.958668 0
M  V30 46 H -1.548605 -8.400079 1.292114 0
M  V30 47 H -0.926213 -8.126532 2.928655 0
M  V30 48 H 0.302907 -5.888965 3.417549 0
M  V30 49 H 3.019273 -4.912965 2.364066 0
M  V30 50 H 4.549140 -3.096323 3.083275 0
M  V30 51 H 1.700213 0.866594 2.641758 0
M  V30 52 H -2.551968 -0.475214 1.095397 0
M  V30 53 H -4.174828 1.302764 0.786578 0
M  V30 54 H -3.830347 4.181862 0.202491 0
M  V30 55 H -6.594690 4.805728 0.941406 0
M  V30 56 H -6.439684 5.679911 2.511590 0
M  V30 57 H -5.359633 6.093046 1.096841 0
M  V30 58 H -1.354418 4.202124 2.059992 0
M  V30 59 H 0.291419 2.415053 2.374956 0
M  V30 60 H -1.072982 -2.030975 1.385995 0
M  V30 61 H -1.951100 -3.196171 -0.951414 0
M  V30 62 H -1.368054 -1.573069 -2.775781 0
M  V30 63 H 1.082238 -1.331259 -4.784591 0
M  V30 64 H 1.794230 1.007032 -5.133478 0
M  V30 65 H 4.198491 1.955935 -3.196476 0
M  V30 66 H 4.735225 4.044876 -2.000548 0
M  V30 67 H 2.923536 5.722183 -1.524276 0
M  V30 68 H 0.682141 5.256688 -2.248683 0
M  V30 69 H 0.091836 3.155984 -3.462043 0
M  V30 70 H 2.747095 -2.811534 -2.486175 0
M  V30 71 H 2.118840 -4.395732 -0.691360 0
M  V30 END ATOM
M  V30 BEGIN BOND
M  V30 1 1 1 2
M  V30 2 1 2 3
M  V30 3 1 3 4
M  V30 4 2 4 5
M  V30 5 1 5 6
M  V30 6 2 6 7
M  V30 7 1 7 8
M  V30 8 2 8 9
M  V30 9 1 9 10
M  V30 10 1 10 11
M  V30 11 1 11 12
M  V30 12 1 12 13
M  V30 13 2 13 14
M  V30 14 1 14 15
M  V30 15 2 15 16
M  V30 16 1 16 17
M  V30 17 1 17 18
M  V30 18 1 18 19
M  V30 19 2 18 20
M  V30 20 1 16 21
M  V30 21 2 21 22
M  V30 22 2 12 23
M  V30 23 1 23 24
M  V30 24 1 5 25
M  V30 25 1 25 26
M  V30 26 2 26 27
M  V30 27 1 27 28
M  V30 28 2 28 29
M  V30 29 1 29 30
M  V30 30 1 30 31
M  V30 31 2 31 32
M  V30 32 1 31 33
M  V30 33 1 33 34
M  V30 34 2 34 35
M  V30 35 1 35 36
M  V30 36 2 36 37
M  V30 37 1 37 38
M  V30 38 2 38 39
M  V30 39 1 29 40
M  V30 40 2 40 41
M  V30 41 2 25 42
M  V30 42 1 42 3
M  V30 43 1 24 6
M  V30 44 1 41 26
M  V30 45 2 24 10
M  V30 46 1 39 34
M  V30 47 1 22 13
M  V30 48 1 1 43
M  V30 49 1 1 44
M  V30 50 1 1 45
M  V30 51 1 2 46
M  V30 52 1 2 47
M  V30 53 1 4 48
M  V30 54 1 7 49
M  V30 55 1 8 50
M  V30 56 1 11 51
M  V30 57 1 14 52
M  V30 58 1 15 53
M  V30 59 1 17 54
M  V30 60 1 19 55
M  V30 61 1 19 56
M  V30 62 1 19 57
M  V30 63 1 21 58
M  V30 64 1 22 59
M  V30 65 1 23 60
M  V30 66 1 27 61
M  V30 67 1 28 62
M  V30 68 1 30 63
M  V30 69 1 33 64
M  V30 70 1 35 65
M  V30 71 1 36 66
M  V30 72 1 37 67
M  V30 73 1 38 68
M  V30 74 1 39 69
M  V30 75 1 40 70
M  V30 76 1 41 71
M  V30 END BOND
M  V30 END CTAB
M  END
>  <Dataset>  (476) 
ChEMBL_Kinases

>  <Ligand_Instance>  (476) 
nan

>  <PDB_ID>  (476) 
nan

>  <Standardized_SMILES>  (476) 
CCn1cc(-c2ccnc3[nH]c(-c4ccc(NC(C)=O)cc4)cc23)c(-c2ccc(NC(=O)Nc3ccccc3)cc2)n1

>  <Name>  (476) 
nan

>  <Pocket>  (476) 
nan

>  <ATP_Site>  (476) 
nan

>  <Peripheral>  (476) 
nan

>  <Num_H_Atoms_ProtBoundConf>  (476) 
nan

>  <Num_Resolved_Atoms>  (476) 
nan

>  <Num_Not_Resolved_Atoms>  (476) 
nan

$$$$
CHEMBL4632420
     RDKit          3D

  0  0  0  0  0  0  0  0  0  0999 V3000
M  V30 BEGIN CTAB
M  V30 COUNTS 30 32 0 0 0
M  V30 BEGIN ATOM
M  V30 1 C -1.620154 -2.021724 4.107315 0
M  V30 2 O -0.913265 -2.103143 2.882775 0
M  V30 3 C -0.518727 -3.281120 2.285225 0
M  V30 4 O -0.748203 -4.414524 2.770705 0
M  V30 5 C 0.207352 -3.194751 1.014569 0
M  V30 6 C 0.648516 -4.308278 0.330844 0
M  V30 7 C 1.329568 -4.187462 -0.864089 0
M  V30 8 C 1.584474 -2.924994 -1.403576 0
M  V30 9 C 1.161720 -1.783896 -0.753989 0
M  V30 10 N 1.220031 -0.446561 -0.956882 0
M  V30 11 C 0.616269 0.219064 0.043873 0
M  V30 12 C 0.462222 1.661146 0.202719 0
M  V30 13 C 0.980348 2.498969 -0.763076 0
M  V30 14 C 0.832785 3.882002 -0.611097 0
M  V30 15 N 0.181208 4.359655 0.487243 0
M  V30 16 C -0.308234 3.502984 1.404521 0
M  V30 17 C -0.198139 2.135579 1.316595 0
M  V30 18 N 0.181798 -0.746014 0.873473 0
M  V30 19 C 0.498602 -1.971984 0.414814 0
M  V30 20 H -2.607364 -1.550584 3.829339 0
M  V30 21 H -1.119252 -1.302529 4.788534 0
M  V30 22 H -1.860458 -2.983232 4.557728 0
M  V30 23 H 0.456859 -5.295654 0.739340 0
M  V30 24 H 1.662961 -5.082183 -1.376768 0
M  V30 25 H 2.121136 -2.803049 -2.347180 0
M  V30 26 H 1.679095 -0.028869 -1.787832 0
M  V30 27 H 1.501892 2.169901 -1.646254 0
M  V30 28 H 1.194148 4.623739 -1.296615 0
M  V30 29 H -0.831799 3.906498 2.285577 0
M  V30 30 H -0.592516 1.453875 2.055076 0
M  V30 END ATOM
M  V30 BEGIN BOND
M  V30 1 1 1 2
M  V30 2 1 2 3
M  V30 3 2 3 4
M  V30 4 1 3 5
M  V30 5 2 5 6
M  V30 6 1 6 7
M  V30 7 2 7 8
M  V30 8 1 8 9
M  V30 9 1 9 10
M  V30 10 1 10 11
M  V30 11 1 11 12
M  V30 12 2 12 13
M  V30 13 1 13 14
M  V30 14 2 14 15
M  V30 15 1 15 16
M  V30 16 2 16 17
M  V30 17 2 11 18
M  V30 18 1 18 19
M  V30 19 1 19 5
M  V30 20 2 19 9
M  V30 21 1 17 12
M  V30 22 1 1 20
M  V30 23 1 1 21
M  V30 24 1 1 22
M  V30 25 1 6 23
M  V30 26 1 7 24
M  V30 27 1 8 25
M  V30 28 1 10 26
M  V30 29 1 13 27
M  V30 30 1 14 28
M  V30 31 1 16 29
M  V30 32 1 17 30
M  V30 END BOND
M  V30 END CTAB
M  END
>  <Dataset>  (477) 
ChEMBL_Kinases

>  <Ligand_Instance>  (477) 
nan

>  <PDB_ID>  (477) 
nan

>  <Standardized_SMILES>  (477) 
COC(=O)c1cccc2[nH]c(-c3ccncc3)nc12

>  <Name>  (477) 
nan

>  <Pocket>  (477) 
nan

>  <ATP_Site>  (477) 
nan

>  <Peripheral>  (477) 
nan

>  <Num_H_Atoms_ProtBoundConf>  (477) 
nan

>  <Num_Resolved_Atoms>  (477) 
nan

>  <Num_Not_Resolved_Atoms>  (477) 
nan

$$$$
CHEMBL1257114
     RDKit          3D

  0  0  0  0  0  0  0  0  0  0999 V3000
M  V30 BEGIN CTAB
M  V30 COUNTS 52 56 0 0 0
M  V30 BEGIN ATOM
M  V30 1 C 2.673161 -4.805579 6.706058 0
M  V30 2 C 2.776854 -3.606578 5.840147 0
M  V30 3 C 3.889901 -2.812489 5.611460 0
M  V30 4 C 3.913320 -1.722092 4.800848 0
M  V30 5 C 2.772458 -1.322226 4.124281 0
M  V30 6 N 2.609937 -0.304087 3.306227 0
M  V30 7 C 1.680678 0.050425 2.733337 0
M  V30 8 N 1.547116 1.202278 1.824251 0
M  V30 9 C 1.781709 1.125631 0.444306 0
M  V30 10 O 2.120937 0.036985 -0.053028 0
M  V30 11 C 1.606538 2.383994 -0.365179 0
M  V30 12 S -0.112287 2.402763 -0.911114 0
M  V30 13 C -0.381553 1.034160 -2.060429 0
M  V30 14 N 0.665630 0.266616 -2.315858 0
M  V30 15 C 0.591448 -0.787386 -3.177048 0
M  V30 16 C -0.655397 -0.967294 -3.740859 0
M  V30 17 C -1.690858 -0.129201 -3.425261 0
M  V30 18 O -2.740601 -0.456452 -4.041004 0
M  V30 19 N -1.603346 0.909366 -2.571114 0
M  V30 20 C -2.759896 1.720651 -2.322410 0
M  V30 21 C -3.595438 1.232441 -1.207199 0
M  V30 22 C -4.620152 0.302139 -1.390260 0
M  V30 23 C -5.437809 -0.190894 -0.398047 0
M  V30 24 C -5.259726 0.245771 0.887838 0
M  V30 25 C -4.275046 1.156700 1.139644 0
M  V30 26 C -3.484346 1.618332 0.111157 0
M  V30 27 S -0.406994 -2.410199 -4.799731 0
M  V30 28 C 1.078726 -3.041555 -3.917567 0
M  V30 29 C 1.684417 -1.706198 -3.539871 0
M  V30 30 S 0.440745 -1.292630 3.332373 0
M  V30 31 C 1.663146 -2.094480 4.337931 0
M  V30 32 C 1.629467 -3.215086 5.167829 0
M  V30 33 H 1.693540 -4.802257 7.265470 0
M  V30 34 H 2.831381 -5.742620 6.162425 0
M  V30 35 H 3.446080 -4.800013 7.529740 0
M  V30 36 H 4.773140 -3.153471 6.158643 0
M  V30 37 H 4.883567 -1.222598 4.746104 0
M  V30 38 H 1.264662 2.031799 2.358821 0
M  V30 39 H 1.752368 3.272848 0.301619 0
M  V30 40 H 2.341829 2.456902 -1.183190 0
M  V30 41 H -3.382396 1.872750 -3.235327 0
M  V30 42 H -2.401748 2.758415 -2.063758 0
M  V30 43 H -4.842456 -0.099698 -2.368006 0
M  V30 44 H -6.212090 -0.902478 -0.573946 0
M  V30 45 H -5.879250 -0.119734 1.677123 0
M  V30 46 H -4.143625 1.494912 2.161696 0
M  V30 47 H -2.747705 2.329518 0.398042 0
M  V30 48 H 0.823830 -3.640237 -3.043395 0
M  V30 49 H 1.777993 -3.552289 -4.609773 0
M  V30 50 H 2.314036 -1.897366 -2.649710 0
M  V30 51 H 2.306574 -1.319352 -4.382074 0
M  V30 52 H 0.661874 -3.685399 5.201475 0
M  V30 END ATOM
M  V30 BEGIN BOND
M  V30 1 1 1 2
M  V30 2 2 2 3
M  V30 3 1 3 4
M  V30 4 2 4 5
M  V30 5 1 5 6
M  V30 6 2 6 7
M  V30 7 1 7 8
M  V30 8 1 8 9
M  V30 9 2 9 10
M  V30 10 1 9 11
M  V30 11 1 11 12
M  V30 12 1 12 13
M  V30 13 2 13 14
M  V30 14 1 14 15
M  V30 15 2 15 16
M  V30 16 1 16 17
M  V30 17 2 17 18
M  V30 18 1 17 19
M  V30 19 1 19 20
M  V30 20 1 20 21
M  V30 21 2 21 22
M  V30 22 1 22 23
M  V30 23 2 23 24
M  V30 24 1 24 25
M  V30 25 2 25 26
M  V30 26 1 16 27
M  V30 27 1 27 28
M  V30 28 1 28 29
M  V30 29 1 7 30
M  V30 30 1 30 31
M  V30 31 2 31 32
M  V30 32 1 32 2
M  V30 33 1 31 5
M  V30 34 1 19 13
M  V30 35 1 26 21
M  V30 36 1 29 15
M  V30 37 1 1 33
M  V30 38 1 1 34
M  V30 39 1 1 35
M  V30 40 1 3 36
M  V30 41 1 4 37
M  V30 42 1 8 38
M  V30 43 1 11 39
M  V30 44 1 11 40
M  V30 45 1 20 41
M  V30 46 1 20 42
M  V30 47 1 22 43
M  V30 48 1 23 44
M  V30 49 1 24 45
M  V30 50 1 25 46
M  V30 51 1 26 47
M  V30 52 1 28 48
M  V30 53 1 28 49
M  V30 54 1 29 50
M  V30 55 1 29 51
M  V30 56 1 32 52
M  V30 END BOND
M  V30 END CTAB
M  END
>  <Dataset>  (478) 
ChEMBL_Kinases

>  <Ligand_Instance>  (478) 
nan

>  <PDB_ID>  (478) 
nan

>  <Standardized_SMILES>  (478) 
Cc1ccc2nc(NC(=O)CSc3nc4c(c(=O)n3Cc3ccccc3)SCC4)sc2c1

>  <Name>  (478) 
nan

>  <Pocket>  (478) 
nan

>  <ATP_Site>  (478) 
nan

>  <Peripheral>  (478) 
nan

>  <Num_H_Atoms_ProtBoundConf>  (478) 
nan

>  <Num_Resolved_Atoms>  (478) 
nan

>  <Num_Not_Resolved_Atoms>  (478) 
nan

$$$$
CHEMBL1257090
     RDKit          3D

  0  0  0  0  0  0  0  0  0  0999 V3000
M  V30 BEGIN CTAB
M  V30 COUNTS 53 57 0 0 0
M  V30 BEGIN ATOM
M  V30 1 C 5.440635 -2.649058 0.809369 0
M  V30 2 O 4.224159 -2.020753 0.485063 0
M  V30 3 C 3.265603 -1.796528 1.483808 0
M  V30 4 C 3.587626 -2.224572 2.781525 0
M  V30 5 C 2.728797 -2.060586 3.847109 0
M  V30 6 C 1.515585 -1.452781 3.612825 0
M  V30 7 C 1.194907 -1.032126 2.347216 0
M  V30 8 C 2.019501 -1.176845 1.263572 0
M  V30 9 N 1.937136 -0.847528 -0.112883 0
M  V30 10 C 2.312373 0.237445 -0.811080 0
M  V30 11 S 2.917121 1.570889 0.207901 0
M  V30 12 C 1.608321 2.763886 0.562393 0
M  V30 13 C 0.465484 2.219975 1.319687 0
M  V30 14 O 0.167831 2.198896 2.536720 0
M  V30 15 N -0.463126 1.601509 0.404968 0
M  V30 16 C -1.691021 0.976847 0.703242 0
M  V30 17 N -2.683159 0.296263 0.116018 0
M  V30 18 C -3.672763 -0.042299 0.941584 0
M  V30 19 C -4.757131 -0.755516 0.412410 0
M  V30 20 C -5.797802 -1.121457 1.221735 0
M  V30 21 C -5.869282 -0.838177 2.554187 0
M  V30 22 C -6.920799 -1.151972 3.551669 0
M  V30 23 C -4.819387 -0.139495 3.103064 0
M  V30 24 C -3.752974 0.243417 2.308436 0
M  V30 25 S -2.196686 1.134508 2.505490 0
M  V30 26 N 2.197091 0.328177 -2.129743 0
M  V30 27 C 1.682420 -0.679790 -2.895181 0
M  V30 28 C 1.286809 -1.806943 -2.207517 0
M  V30 29 C 1.417385 -1.873370 -0.850755 0
M  V30 30 O 1.008266 -2.976295 -0.364843 0
M  V30 31 S 0.682486 -2.884228 -3.509528 0
M  V30 32 C 0.396238 -1.569973 -4.740600 0
M  V30 33 C 1.528746 -0.636501 -4.361466 0
M  V30 34 H 6.049579 -2.768507 -0.108568 0
M  V30 35 H 5.235892 -3.615117 1.333505 0
M  V30 36 H 6.056246 -2.061678 1.523622 0
M  V30 37 H 4.523515 -2.711266 3.039023 0
M  V30 38 H 2.952189 -2.383191 4.856577 0
M  V30 39 H 0.746809 -1.263258 4.363144 0
M  V30 40 H 0.292283 -0.561794 2.067222 0
M  V30 41 H 1.285118 3.243053 -0.411766 0
M  V30 42 H 2.083338 3.583822 1.165862 0
M  V30 43 H -0.371644 1.514972 -0.647512 0
M  V30 44 H -4.919977 -1.094825 -0.620455 0
M  V30 45 H -6.677649 -1.681825 0.871002 0
M  V30 46 H -6.490021 -1.440983 4.533569 0
M  V30 47 H -7.660283 -0.318321 3.645207 0
M  V30 48 H -7.498396 -2.011141 3.158603 0
M  V30 49 H -4.613426 0.212301 4.098399 0
M  V30 50 H -0.565190 -1.040897 -4.572034 0
M  V30 51 H 0.547373 -1.939790 -5.769684 0
M  V30 52 H 1.180867 0.375388 -4.660086 0
M  V30 53 H 2.469054 -0.885945 -4.894422 0
M  V30 END ATOM
M  V30 BEGIN BOND
M  V30 1 1 1 2
M  V30 2 1 2 3
M  V30 3 2 3 4
M  V30 4 1 4 5
M  V30 5 2 5 6
M  V30 6 1 6 7
M  V30 7 2 7 8
M  V30 8 1 8 9
M  V30 9 1 9 10
M  V30 10 1 10 11
M  V30 11 1 11 12
M  V30 12 1 12 13
M  V30 13 2 13 14
M  V30 14 1 13 15
M  V30 15 1 15 16
M  V30 16 2 16 17
M  V30 17 1 17 18
M  V30 18 2 18 19
M  V30 19 1 19 20
M  V30 20 2 20 21
M  V30 21 1 21 22
M  V30 22 1 21 23
M  V30 23 2 23 24
M  V30 24 1 24 25
M  V30 25 2 10 26
M  V30 26 1 26 27
M  V30 27 2 27 28
M  V30 28 1 28 29
M  V30 29 2 29 30
M  V30 30 1 28 31
M  V30 31 1 31 32
M  V30 32 1 32 33
M  V30 33 1 8 3
M  V30 34 1 29 9
M  V30 35 1 25 16
M  V30 36 1 33 27
M  V30 37 1 24 18
M  V30 38 1 1 34
M  V30 39 1 1 35
M  V30 40 1 1 36
M  V30 41 1 4 37
M  V30 42 1 5 38
M  V30 43 1 6 39
M  V30 44 1 7 40
M  V30 45 1 12 41
M  V30 46 1 12 42
M  V30 47 1 15 43
M  V30 48 1 19 44
M  V30 49 1 20 45
M  V30 50 1 22 46
M  V30 51 1 22 47
M  V30 52 1 22 48
M  V30 53 1 23 49
M  V30 54 1 32 50
M  V30 55 1 32 51
M  V30 56 1 33 52
M  V30 57 1 33 53
M  V30 END BOND
M  V30 END CTAB
M  END
>  <Dataset>  (479) 
ChEMBL_Kinases

>  <Ligand_Instance>  (479) 
nan

>  <PDB_ID>  (479) 
nan

>  <Standardized_SMILES>  (479) 
COc1ccccc1-n1c(SCC(=O)Nc2nc3ccc(C)cc3s2)nc2c(c1=O)SCC2

>  <Name>  (479) 
nan

>  <Pocket>  (479) 
nan

>  <ATP_Site>  (479) 
nan

>  <Peripheral>  (479) 
nan

>  <Num_H_Atoms_ProtBoundConf>  (479) 
nan

>  <Num_Resolved_Atoms>  (479) 
nan

>  <Num_Not_Resolved_Atoms>  (479) 
nan

$$$$
CHEMBL4637651
     RDKit          3D

  0  0  0  0  0  0  0  0  0  0999 V3000
M  V30 BEGIN CTAB
M  V30 COUNTS 52 56 0 0 0
M  V30 BEGIN ATOM
M  V30 1 N 1.994369 -5.050549 3.193721 0
M  V30 2 C 2.492703 -3.885261 2.475666 0
M  V30 3 C 1.837261 -3.764846 1.116684 0
M  V30 4 C 0.339404 -3.622930 1.231031 0
M  V30 5 C -0.036575 -2.222202 1.656670 0
M  V30 6 N 0.328981 -1.324587 0.562170 0
M  V30 7 C -0.117136 -0.013654 0.233222 0
M  V30 8 N 0.874566 0.841819 0.535056 0
M  V30 9 C 0.821253 2.167661 0.402083 0
M  V30 10 C 1.858050 3.143760 0.710747 0
M  V30 11 C 3.080849 2.714983 1.209450 0
M  V30 12 C 4.111563 3.589086 1.524584 0
M  V30 13 N 3.899026 4.914232 1.331393 0
M  V30 14 C 2.724232 5.357553 0.849596 0
M  V30 15 C 1.686475 4.502181 0.530201 0
M  V30 16 N -0.341406 2.643175 -0.077649 0
M  V30 17 C -1.367180 1.828109 -0.396623 0
M  V30 18 S -2.951823 2.108486 -1.025574 0
M  V30 19 C -3.474235 0.368166 -1.080111 0
M  V30 20 C -2.356847 -0.297050 -0.597815 0
M  V30 21 C -1.302997 0.479318 -0.258266 0
M  V30 22 C -2.746229 -1.724089 -0.654410 0
M  V30 23 C -3.937195 -1.869205 0.308601 0
M  V30 24 C -5.152164 -1.337957 -0.428480 0
M  V30 25 C -4.700503 -0.347087 -1.482764 0
M  V30 26 C 1.335549 -1.839196 -0.379439 0
M  V30 27 C 2.430736 -2.528288 0.447615 0
M  V30 28 H 2.649118 -5.855907 2.985709 0
M  V30 29 H 2.112917 -4.855703 4.225850 0
M  V30 30 H 2.253896 -2.999051 3.097591 0
M  V30 31 H 3.595639 -3.914811 2.396997 0
M  V30 32 H 2.129538 -4.612003 0.472622 0
M  V30 33 H -0.069992 -4.385466 1.954204 0
M  V30 34 H -0.088913 -3.795573 0.220215 0
M  V30 35 H -1.101326 -2.143064 1.910850 0
M  V30 36 H 0.607221 -1.953851 2.518114 0
M  V30 37 H 3.314953 1.674267 1.386586 0
M  V30 38 H 5.065738 3.248688 1.914248 0
M  V30 39 H 2.516093 6.406415 0.681605 0
M  V30 40 H 0.724387 4.802314 0.140991 0
M  V30 41 H -3.065284 -2.022367 -1.686812 0
M  V30 42 H -1.985004 -2.434169 -0.301353 0
M  V30 43 H -3.743543 -1.180776 1.156241 0
M  V30 44 H -4.095717 -2.902130 0.618884 0
M  V30 45 H -5.725636 -2.171413 -0.886104 0
M  V30 46 H -5.816599 -0.877861 0.331610 0
M  V30 47 H -4.588979 -0.879308 -2.449007 0
M  V30 48 H -5.521675 0.386821 -1.613468 0
M  V30 49 H 1.869050 -1.035328 -0.915861 0
M  V30 50 H 0.936111 -2.589285 -1.062758 0
M  V30 51 H 2.825550 -1.849652 1.209020 0
M  V30 52 H 3.236069 -2.788958 -0.259640 0
M  V30 END ATOM
M  V30 BEGIN BOND
M  V30 1 1 1 2
M  V30 2 1 2 3
M  V30 3 1 3 4
M  V30 4 1 4 5
M  V30 5 1 5 6
M  V30 6 1 6 7
M  V30 7 2 7 8
M  V30 8 1 8 9
M  V30 9 1 9 10
M  V30 10 2 10 11
M  V30 11 1 11 12
M  V30 12 2 12 13
M  V30 13 1 13 14
M  V30 14 2 14 15
M  V30 15 2 9 16
M  V30 16 1 16 17
M  V30 17 1 17 18
M  V30 18 1 18 19
M  V30 19 2 19 20
M  V30 20 1 20 21
M  V30 21 1 20 22
M  V30 22 1 22 23
M  V30 23 1 23 24
M  V30 24 1 24 25
M  V30 25 1 6 26
M  V30 26 1 26 27
M  V30 27 1 27 3
M  V30 28 1 21 7
M  V30 29 1 15 10
M  V30 30 2 21 17
M  V30 31 1 25 19
M  V30 32 1 1 28
M  V30 33 1 1 29
M  V30 34 1 2 30
M  V30 35 1 2 31
M  V30 36 1 3 32
M  V30 37 1 4 33
M  V30 38 1 4 34
M  V30 39 1 5 35
M  V30 40 1 5 36
M  V30 41 1 11 37
M  V30 42 1 12 38
M  V30 43 1 14 39
M  V30 44 1 15 40
M  V30 45 1 22 41
M  V30 46 1 22 42
M  V30 47 1 23 43
M  V30 48 1 23 44
M  V30 49 1 24 45
M  V30 50 1 24 46
M  V30 51 1 25 47
M  V30 52 1 25 48
M  V30 53 1 26 49
M  V30 54 1 26 50
M  V30 55 1 27 51
M  V30 56 1 27 52
M  V30 END BOND
M  V30 END CTAB
M  END
>  <Dataset>  (480) 
ChEMBL_Kinases

>  <Ligand_Instance>  (480) 
nan

>  <PDB_ID>  (480) 
nan

>  <Standardized_SMILES>  (480) 
NCC1CCN(c2nc(-c3ccncc3)nc3sc4c(c23)CCCC4)CC1

>  <Name>  (480) 
nan

>  <Pocket>  (480) 
nan

>  <ATP_Site>  (480) 
nan

>  <Peripheral>  (480) 
nan

>  <Num_H_Atoms_ProtBoundConf>  (480) 
nan

>  <Num_Resolved_Atoms>  (480) 
nan

>  <Num_Not_Resolved_Atoms>  (480) 
nan

$$$$
CHEMBL1257064
     RDKit          3D

  0  0  0  0  0  0  0  0  0  0999 V3000
M  V30 BEGIN CTAB
M  V30 COUNTS 49 53 0 0 0
M  V30 BEGIN ATOM
M  V30 1 C 6.383977 -3.918159 -2.791644 0
M  V30 2 C 5.753764 -3.037411 -1.778750 0
M  V30 3 C 6.278382 -1.869047 -1.291534 0
M  V30 4 C 5.656980 -1.088860 -0.356324 0
M  V30 5 C 4.425675 -1.425100 0.181932 0
M  V30 6 N 3.692081 -0.796909 1.077981 0
M  V30 7 C 2.665406 -1.094199 1.511489 0
M  V30 8 N 1.733778 -0.544875 2.473474 0
M  V30 9 C 0.657749 0.411973 2.381205 0
M  V30 10 O 0.335577 0.985501 1.309240 0
M  V30 11 C -0.075080 0.704347 3.633872 0
M  V30 12 S -1.707095 -0.056508 3.721674 0
M  V30 13 C -2.860702 0.663200 2.562640 0
M  V30 14 N -3.548730 1.711476 2.986593 0
M  V30 15 C -4.466378 2.349614 2.202978 0
M  V30 16 C -4.619487 1.811104 0.926700 0
M  V30 17 C -3.876428 0.716736 0.537658 0
M  V30 18 O -4.161193 0.382505 -0.647338 0
M  V30 19 N -2.982200 0.118687 1.343711 0
M  V30 20 C -2.292146 -1.008795 0.824455 0
M  V30 21 C -1.852590 -0.927927 -0.481545 0
M  V30 22 C -1.181518 -1.943164 -1.149254 0
M  V30 23 C -0.932849 -3.133028 -0.447588 0
M  V30 24 C -1.363826 -3.217878 0.841361 0
M  V30 25 C -2.032569 -2.194878 1.493256 0
M  V30 26 S -5.881920 2.877184 0.185434 0
M  V30 27 C -6.595928 3.428126 1.789170 0
M  V30 28 C -5.292924 3.519890 2.559939 0
M  V30 29 S 2.359802 -2.718924 0.570421 0
M  V30 30 C 3.934123 -2.595411 -0.327018 0
M  V30 31 C 4.529679 -3.431469 -1.285215 0
M  V30 32 H 7.473103 -4.061982 -2.615689 0
M  V30 33 H 5.922308 -4.930330 -2.801151 0
M  V30 34 H 6.238568 -3.519428 -3.835225 0
M  V30 35 H 7.258924 -1.609849 -1.725868 0
M  V30 36 H 6.226917 -0.191083 -0.086368 0
M  V30 37 H 1.955216 -0.987828 3.409939 0
M  V30 38 H -0.223299 1.804884 3.706090 0
M  V30 39 H 0.560802 0.428314 4.491736 0
M  V30 40 H -1.956873 -0.093153 -1.163220 0
M  V30 41 H -0.817619 -1.950312 -2.148447 0
M  V30 42 H -0.421913 -3.976806 -0.871691 0
M  V30 43 H -1.191477 -4.120396 1.423784 0
M  V30 44 H -2.386882 -2.244476 2.530090 0
M  V30 45 H -7.262252 2.673196 2.206498 0
M  V30 46 H -7.043856 4.420778 1.667584 0
M  V30 47 H -4.793506 4.481420 2.415810 0
M  V30 48 H -5.594321 3.406474 3.631557 0
M  V30 49 H 3.965649 -4.314677 -1.548806 0
M  V30 END ATOM
M  V30 BEGIN BOND
M  V30 1 1 1 2
M  V30 2 2 2 3
M  V30 3 1 3 4
M  V30 4 2 4 5
M  V30 5 1 5 6
M  V30 6 2 6 7
M  V30 7 1 7 8
M  V30 8 1 8 9
M  V30 9 2 9 10
M  V30 10 1 9 11
M  V30 11 1 11 12
M  V30 12 1 12 13
M  V30 13 2 13 14
M  V30 14 1 14 15
M  V30 15 2 15 16
M  V30 16 1 16 17
M  V30 17 2 17 18
M  V30 18 1 17 19
M  V30 19 1 19 20
M  V30 20 2 20 21
M  V30 21 1 21 22
M  V30 22 2 22 23
M  V30 23 1 23 24
M  V30 24 2 24 25
M  V30 25 1 16 26
M  V30 26 1 26 27
M  V30 27 1 27 28
M  V30 28 1 7 29
M  V30 29 1 29 30
M  V30 30 2 30 31
M  V30 31 1 31 2
M  V30 32 1 30 5
M  V30 33 1 19 13
M  V30 34 1 25 20
M  V30 35 1 28 15
M  V30 36 1 1 32
M  V30 37 1 1 33
M  V30 38 1 1 34
M  V30 39 1 3 35
M  V30 40 1 4 36
M  V30 41 1 8 37
M  V30 42 1 11 38
M  V30 43 1 11 39
M  V30 44 1 21 40
M  V30 45 1 22 41
M  V30 46 1 23 42
M  V30 47 1 24 43
M  V30 48 1 25 44
M  V30 49 1 27 45
M  V30 50 1 27 46
M  V30 51 1 28 47
M  V30 52 1 28 48
M  V30 53 1 31 49
M  V30 END BOND
M  V30 END CTAB
M  END
>  <Dataset>  (481) 
ChEMBL_Kinases

>  <Ligand_Instance>  (481) 
nan

>  <PDB_ID>  (481) 
nan

>  <Standardized_SMILES>  (481) 
Cc1ccc2nc(NC(=O)CSc3nc4c(c(=O)n3-c3ccccc3)SCC4)sc2c1

>  <Name>  (481) 
nan

>  <Pocket>  (481) 
nan

>  <ATP_Site>  (481) 
nan

>  <Peripheral>  (481) 
nan

>  <Num_H_Atoms_ProtBoundConf>  (481) 
nan

>  <Num_Resolved_Atoms>  (481) 
nan

>  <Num_Not_Resolved_Atoms>  (481) 
nan

$$$$
CHEMBL2071625
     RDKit          3D

  0  0  0  0  0  0  0  0  0  0999 V3000
M  V30 BEGIN CTAB
M  V30 COUNTS 40 42 0 0 0
M  V30 BEGIN ATOM
M  V30 1 C 0.682045 -5.300614 0.377138 0
M  V30 2 C 1.730712 -4.362913 -0.183791 0
M  V30 3 C 2.907969 -4.398077 0.776989 0
M  V30 4 C 2.110920 -4.894104 -1.546531 0
M  V30 5 C 1.253485 -2.966248 -0.318105 0
M  V30 6 C 0.648400 -2.528911 -1.475491 0
M  V30 7 C 0.223490 -1.222712 -1.545036 0
M  V30 8 C 0.360480 -0.300951 -0.525344 0
M  V30 9 N -0.093541 1.026467 -0.688574 0
M  V30 10 C -0.541254 1.982709 0.251657 0
M  V30 11 C -0.768476 1.912988 1.608345 0
M  V30 12 N -1.187518 3.077259 2.130463 0
M  V30 13 C -1.525498 3.480921 3.369510 0
M  V30 14 C -1.929378 4.806337 3.557736 0
M  V30 15 C -2.299380 5.263788 4.883118 0
M  V30 16 N -2.612720 5.619558 5.943653 0
M  V30 17 C -1.965621 5.659574 2.448554 0
M  V30 18 C -1.610535 5.204458 1.193599 0
M  V30 19 C -1.220353 3.890156 1.063971 0
M  V30 20 N -0.841329 3.251271 -0.043321 0
M  V30 21 C 0.974827 -0.818504 0.592806 0
M  V30 22 C 1.430470 -2.110838 0.749663 0
M  V30 23 H -0.319344 -5.150208 -0.113983 0
M  V30 24 H 0.571620 -5.235255 1.464963 0
M  V30 25 H 1.010383 -6.331668 0.136993 0
M  V30 26 H 3.462260 -5.342586 0.624666 0
M  V30 27 H 3.589506 -3.526863 0.608912 0
M  V30 28 H 2.528812 -4.400809 1.813861 0
M  V30 29 H 2.767932 -4.167786 -2.028030 0
M  V30 30 H 2.575292 -5.905214 -1.420314 0
M  V30 31 H 1.155025 -5.087867 -2.098071 0
M  V30 32 H 0.497729 -3.168234 -2.318668 0
M  V30 33 H -0.257452 -0.897026 -2.477590 0
M  V30 34 H -0.082679 1.335240 -1.709451 0
M  V30 35 H -0.648658 1.043470 2.235343 0
M  V30 36 H -1.475720 2.764560 4.197366 0
M  V30 37 H -2.289291 6.662475 2.690669 0
M  V30 38 H -1.662826 5.925960 0.372060 0
M  V30 39 H 1.148040 -0.186153 1.448221 0
M  V30 40 H 1.905654 -2.452093 1.657870 0
M  V30 END ATOM
M  V30 BEGIN BOND
M  V30 1 1 1 2
M  V30 2 1 2 3
M  V30 3 1 2 4
M  V30 4 1 2 5
M  V30 5 2 5 6
M  V30 6 1 6 7
M  V30 7 2 7 8
M  V30 8 1 8 9
M  V30 9 1 9 10
M  V30 10 2 10 11
M  V30 11 1 11 12
M  V30 12 1 12 13
M  V30 13 2 13 14
M  V30 14 1 14 15
M  V30 15 3 15 16
M  V30 16 1 14 17
M  V30 17 2 17 18
M  V30 18 1 18 19
M  V30 19 2 19 20
M  V30 20 1 8 21
M  V30 21 2 21 22
M  V30 22 1 22 5
M  V30 23 1 20 10
M  V30 24 1 19 12
M  V30 25 1 1 23
M  V30 26 1 1 24
M  V30 27 1 1 25
M  V30 28 1 3 26
M  V30 29 1 3 27
M  V30 30 1 3 28
M  V30 31 1 4 29
M  V30 32 1 4 30
M  V30 33 1 4 31
M  V30 34 1 6 32
M  V30 35 1 7 33
M  V30 36 1 9 34
M  V30 37 1 11 35
M  V30 38 1 13 36
M  V30 39 1 17 37
M  V30 40 1 18 38
M  V30 41 1 21 39
M  V30 42 1 22 40
M  V30 END BOND
M  V30 END CTAB
M  END
>  <Dataset>  (482) 
ChEMBL_Kinases

>  <Ligand_Instance>  (482) 
nan

>  <PDB_ID>  (482) 
nan

>  <Standardized_SMILES>  (482) 
CC(C)(C)c1ccc(Nc2cn3cc(C#N)ccc3n2)cc1

>  <Name>  (482) 
nan

>  <Pocket>  (482) 
nan

>  <ATP_Site>  (482) 
nan

>  <Peripheral>  (482) 
nan

>  <Num_H_Atoms_ProtBoundConf>  (482) 
nan

>  <Num_Resolved_Atoms>  (482) 
nan

>  <Num_Not_Resolved_Atoms>  (482) 
nan

$$$$
CHEMBL4636044
     RDKit          3D

  0  0  0  0  0  0  0  0  0  0999 V3000
M  V30 BEGIN CTAB
M  V30 COUNTS 49 52 0 0 0
M  V30 BEGIN ATOM
M  V30 1 C 0.347788 2.740805 3.803366 0
M  V30 2 C 1.190882 1.534735 4.105909 0
M  V30 3 N 1.100317 0.631401 5.092703 0
M  V30 4 O 2.052822 -0.253028 4.962630 0
M  V30 5 C 2.768607 0.057181 3.902879 0
M  V30 6 C 3.938157 -0.728686 3.447022 0
M  V30 7 C 2.264680 1.206631 3.299130 0
M  V30 8 C 2.758421 1.885768 2.109110 0
M  V30 9 C 3.692181 2.880061 2.081820 0
M  V30 10 N 4.034576 3.397496 0.900397 0
M  V30 11 C 3.482493 2.962941 -0.258511 0
M  V30 12 N 3.851466 3.518934 -1.519394 0
M  V30 13 C 2.523620 1.944815 -0.252772 0
M  V30 14 O 1.924052 1.459915 -1.411935 0
M  V30 15 C 0.970211 0.432685 -1.295599 0
M  V30 16 C 1.390002 -0.882163 -1.347794 0
M  V30 17 C 0.388159 -1.851359 -1.225539 0
M  V30 18 C -0.945971 -1.530599 -1.061829 0
M  V30 19 C -1.903423 -2.626306 -0.945069 0
M  V30 20 O -1.441626 -3.795196 -1.002420 0
M  V30 21 N -3.291870 -2.410266 -0.774645 0
M  V30 22 C -4.002561 -3.649971 -0.688228 0
M  V30 23 C -4.565970 -4.405204 -1.696041 0
M  V30 24 C -5.207972 -5.579493 -1.360815 0
M  V30 25 C -5.309529 -6.029030 -0.060282 0
M  V30 26 Cl -6.136718 -7.528790 0.308834 0
M  V30 27 C -4.739738 -5.265489 0.960109 0
M  V30 28 C -4.090424 -4.080917 0.635693 0
M  V30 29 C -1.312266 -0.202298 -1.016184 0
M  V30 30 C -0.364553 0.805791 -1.131782 0
M  V30 31 N 2.206094 1.448862 0.966223 0
M  V30 32 H -0.478947 2.756175 4.550976 0
M  V30 33 H -0.090055 2.689782 2.797559 0
M  V30 34 H 0.998195 3.651966 3.887902 0
M  V30 35 H 4.834364 -0.436382 4.016550 0
M  V30 36 H 3.742258 -1.821143 3.647161 0
M  V30 37 H 4.093065 -0.669090 2.348350 0
M  V30 38 H 4.102336 3.191684 3.028806 0
M  V30 39 H 3.129193 4.211837 -1.860093 0
M  V30 40 H 4.756072 3.144699 -1.871042 0
M  V30 41 H 2.424308 -1.135966 -1.474722 0
M  V30 42 H 0.753703 -2.888197 -1.270926 0
M  V30 43 H -3.681564 -1.461031 -0.726262 0
M  V30 44 H -4.435319 -3.976570 -2.661210 0
M  V30 45 H -5.634045 -6.139354 -2.176314 0
M  V30 46 H -4.834969 -5.642676 1.969925 0
M  V30 47 H -3.693690 -3.582100 1.501419 0
M  V30 48 H -2.340155 0.067038 -0.890039 0
M  V30 49 H -0.623759 1.842650 -1.099426 0
M  V30 END ATOM
M  V30 BEGIN BOND
M  V30 1 1 1 2
M  V30 2 2 2 3
M  V30 3 1 3 4
M  V30 4 1 4 5
M  V30 5 1 5 6
M  V30 6 2 5 7
M  V30 7 1 7 8
M  V30 8 2 8 9
M  V30 9 1 9 10
M  V30 10 2 10 11
M  V30 11 1 11 12
M  V30 12 1 11 13
M  V30 13 1 13 14
M  V30 14 1 14 15
M  V30 15 2 15 16
M  V30 16 1 16 17
M  V30 17 2 17 18
M  V30 18 1 18 19
M  V30 19 2 19 20
M  V30 20 1 19 21
M  V30 21 1 21 22
M  V30 22 2 22 23
M  V30 23 1 23 24
M  V30 24 2 24 25
M  V30 25 1 25 26
M  V30 26 1 25 27
M  V30 27 2 27 28
M  V30 28 1 18 29
M  V30 29 2 29 30
M  V30 30 2 13 31
M  V30 31 1 7 2
M  V30 32 1 31 8
M  V30 33 1 30 15
M  V30 34 1 28 22
M  V30 35 1 1 32
M  V30 36 1 1 33
M  V30 37 1 1 34
M  V30 38 1 6 35
M  V30 39 1 6 36
M  V30 40 1 6 37
M  V30 41 1 9 38
M  V30 42 1 12 39
M  V30 43 1 12 40
M  V30 44 1 16 41
M  V30 45 1 17 42
M  V30 46 1 21 43
M  V30 47 1 23 44
M  V30 48 1 24 45
M  V30 49 1 27 46
M  V30 50 1 28 47
M  V30 51 1 29 48
M  V30 52 1 30 49
M  V30 END BOND
M  V30 END CTAB
M  END
>  <Dataset>  (483) 
ChEMBL_Kinases

>  <Ligand_Instance>  (483) 
nan

>  <PDB_ID>  (483) 
nan

>  <Standardized_SMILES>  (483) 
Cc1noc(C)c1-c1cnc(N)c(Oc2ccc(C(=O)Nc3ccc(Cl)cc3)cc2)n1

>  <Name>  (483) 
nan

>  <Pocket>  (483) 
nan

>  <ATP_Site>  (483) 
nan

>  <Peripheral>  (483) 
nan

>  <Num_H_Atoms_ProtBoundConf>  (483) 
nan

>  <Num_Resolved_Atoms>  (483) 
nan

>  <Num_Not_Resolved_Atoms>  (483) 
nan

$$$$
CHEMBL2071624
     RDKit          3D

  0  0  0  0  0  0  0  0  0  0999 V3000
M  V30 BEGIN CTAB
M  V30 COUNTS 39 41 0 0 0
M  V30 BEGIN ATOM
M  V30 1 C -4.125619 -2.860891 2.950452 0
M  V30 2 C -2.625561 -2.994433 2.843867 0
M  V30 3 C -2.064567 -3.140308 4.234302 0
M  V30 4 C -2.313215 -4.270079 2.095949 0
M  V30 5 C -1.999849 -1.837208 2.156580 0
M  V30 6 C -0.630413 -1.864312 2.006690 0
M  V30 7 C -0.016169 -0.808397 1.374275 0
M  V30 8 C -0.636698 0.301171 0.861280 0
M  V30 9 N -0.134545 1.426434 0.187263 0
M  V30 10 C 1.192794 1.556344 -0.389132 0
M  V30 11 N 1.721665 2.444365 -0.943994 0
M  V30 12 C 2.932570 2.485119 -1.450958 0
M  V30 13 C 3.570907 3.518191 -2.106368 0
M  V30 14 C 4.843321 3.332663 -2.551915 0
M  V30 15 C 5.597757 2.190981 -2.420420 0
M  V30 16 C 6.934025 1.992787 -2.887241 0
M  V30 17 N 8.011761 1.847064 -3.278485 0
M  V30 18 C 5.032401 1.114380 -1.777943 0
M  V30 19 C 3.736290 1.316896 -1.329314 0
M  V30 20 S 2.493931 0.239624 -0.412373 0
M  V30 21 C -2.025297 0.297511 1.030060 0
M  V30 22 C -2.670827 -0.741866 1.657547 0
M  V30 23 H -4.610279 -2.565808 2.015553 0
M  V30 24 H -4.359371 -2.182955 3.812474 0
M  V30 25 H -4.502472 -3.860501 3.265451 0
M  V30 26 H -2.832995 -3.699048 4.843449 0
M  V30 27 H -1.175359 -3.818275 4.259567 0
M  V30 28 H -1.889127 -2.196089 4.760234 0
M  V30 29 H -1.200793 -4.376879 1.962070 0
M  V30 30 H -2.667178 -5.144443 2.671320 0
M  V30 31 H -2.790250 -4.266174 1.089995 0
M  V30 32 H -0.039272 -2.672401 2.363311 0
M  V30 33 H 1.054210 -0.838164 1.269090 0
M  V30 34 H -0.699229 2.264058 0.057240 0
M  V30 35 H 3.111898 4.489758 -2.292586 0
M  V30 36 H 5.348642 4.164477 -3.076078 0
M  V30 37 H 5.426740 0.136197 -1.562841 0
M  V30 38 H -2.659931 1.108743 0.677052 0
M  V30 39 H -3.752931 -0.729335 1.780690 0
M  V30 END ATOM
M  V30 BEGIN BOND
M  V30 1 1 1 2
M  V30 2 1 2 3
M  V30 3 1 2 4
M  V30 4 1 2 5
M  V30 5 2 5 6
M  V30 6 1 6 7
M  V30 7 2 7 8
M  V30 8 1 8 9
M  V30 9 1 9 10
M  V30 10 2 10 11
M  V30 11 1 11 12
M  V30 12 2 12 13
M  V30 13 1 13 14
M  V30 14 2 14 15
M  V30 15 1 15 16
M  V30 16 3 16 17
M  V30 17 1 15 18
M  V30 18 2 18 19
M  V30 19 1 19 20
M  V30 20 1 8 21
M  V30 21 2 21 22
M  V30 22 1 22 5
M  V30 23 1 20 10
M  V30 24 1 19 12
M  V30 25 1 1 23
M  V30 26 1 1 24
M  V30 27 1 1 25
M  V30 28 1 3 26
M  V30 29 1 3 27
M  V30 30 1 3 28
M  V30 31 1 4 29
M  V30 32 1 4 30
M  V30 33 1 4 31
M  V30 34 1 6 32
M  V30 35 1 7 33
M  V30 36 1 9 34
M  V30 37 1 13 35
M  V30 38 1 14 36
M  V30 39 1 18 37
M  V30 40 1 21 38
M  V30 41 1 22 39
M  V30 END BOND
M  V30 END CTAB
M  END
>  <Dataset>  (484) 
ChEMBL_Kinases

>  <Ligand_Instance>  (484) 
nan

>  <PDB_ID>  (484) 
nan

>  <Standardized_SMILES>  (484) 
CC(C)(C)c1ccc(Nc2nc3ccc(C#N)cc3s2)cc1

>  <Name>  (484) 
nan

>  <Pocket>  (484) 
nan

>  <ATP_Site>  (484) 
nan

>  <Peripheral>  (484) 
nan

>  <Num_H_Atoms_ProtBoundConf>  (484) 
nan

>  <Num_Resolved_Atoms>  (484) 
nan

>  <Num_Not_Resolved_Atoms>  (484) 
nan

$$$$
CHEMBL94417
     RDKit          3D

  0  0  0  0  0  0  0  0  0  0999 V3000
M  V30 BEGIN CTAB
M  V30 COUNTS 53 57 0 0 0
M  V30 BEGIN ATOM
M  V30 1 O 2.950641 -4.306790 -0.802573 0
M  V30 2 C 2.552400 -3.225487 -0.290783 0
M  V30 3 N 3.483731 -2.321167 0.289153 0
M  V30 4 C 3.153670 -1.051517 0.906078 0
M  V30 5 C 1.690929 -0.783861 0.869371 0
M  V30 6 C 1.263880 0.401594 1.431961 0
M  V30 7 C 2.241397 1.333820 2.031761 0
M  V30 8 C 2.636554 1.302927 3.357462 0
M  V30 9 C 3.560246 2.240111 3.774507 0
M  V30 10 C 4.076764 3.181388 2.899204 0
M  V30 11 F 4.990999 4.092300 3.356282 0
M  V30 12 C 3.685082 3.215343 1.576275 0
M  V30 13 C 2.761536 2.276623 1.163805 0
M  V30 14 F 2.393063 2.331458 -0.141486 0
M  V30 15 C -0.080023 0.717810 1.434501 0
M  V30 16 C -1.054939 -0.093563 0.897497 0
M  V30 17 N -2.443516 0.206007 0.886826 0
M  V30 18 C -3.037768 1.401209 1.447014 0
M  V30 19 C -3.724592 2.201050 0.340339 0
M  V30 20 N -4.432638 1.306342 -0.525905 0
M  V30 21 C -4.687255 0.016057 0.107955 0
M  V30 22 C -3.370493 -0.709698 0.289157 0
M  V30 23 C -0.604454 -1.271117 0.341821 0
M  V30 24 C 0.732002 -1.613304 0.324904 0
M  V30 25 N 1.186840 -2.831431 -0.250900 0
M  V30 26 C 0.254691 -3.743317 -0.834809 0
M  V30 27 C -0.261111 -4.691945 0.035566 0
M  V30 28 Cl 0.141131 -4.829676 1.715353 0
M  V30 29 C -1.179564 -5.626147 -0.443603 0
M  V30 30 C -1.600750 -5.646960 -1.758788 0
M  V30 31 C -1.064515 -4.680688 -2.610087 0
M  V30 32 C -0.156402 -3.750504 -2.153768 0
M  V30 33 Cl 0.531309 -2.533666 -3.185617 0
M  V30 34 H 4.486709 -2.565419 0.283690 0
M  V30 35 H 3.477529 -1.128330 1.975636 0
M  V30 36 H 3.764960 -0.279753 0.420019 0
M  V30 37 H 2.187840 0.534222 3.987817 0
M  V30 38 H 3.850928 2.188296 4.826795 0
M  V30 39 H 4.115080 3.962538 0.944266 0
M  V30 40 H -0.359280 1.644048 1.880574 0
M  V30 41 H -3.803242 1.099812 2.221924 0
M  V30 42 H -2.336900 2.084325 1.928195 0
M  V30 43 H -4.397917 2.962959 0.781614 0
M  V30 44 H -2.908792 2.758257 -0.191184 0
M  V30 45 H -5.400055 1.713811 -0.703690 0
M  V30 46 H -5.389272 -0.558497 -0.532061 0
M  V30 47 H -5.190491 0.124510 1.096626 0
M  V30 48 H -3.548479 -1.528788 1.037718 0
M  V30 49 H -3.008555 -1.125621 -0.675897 0
M  V30 50 H -1.256585 -1.999246 -0.113159 0
M  V30 51 H -1.611234 -6.380810 0.179245 0
M  V30 52 H -2.314089 -6.375955 -2.121684 0
M  V30 53 H -1.360933 -4.657544 -3.637316 0
M  V30 END ATOM
M  V30 BEGIN BOND
M  V30 1 2 1 2
M  V30 2 1 2 3
M  V30 3 1 3 4
M  V30 4 1 4 5
M  V30 5 2 5 6
M  V30 6 1 6 7
M  V30 7 2 7 8
M  V30 8 1 8 9
M  V30 9 2 9 10
M  V30 10 1 10 11
M  V30 11 1 10 12
M  V30 12 2 12 13
M  V30 13 1 13 14
M  V30 14 1 6 15
M  V30 15 2 15 16
M  V30 16 1 16 17
M  V30 17 1 17 18
M  V30 18 1 18 19
M  V30 19 1 19 20
M  V30 20 1 20 21
M  V30 21 1 21 22
M  V30 22 1 16 23
M  V30 23 2 23 24
M  V30 24 1 24 25
M  V30 25 1 25 26
M  V30 26 2 26 27
M  V30 27 1 27 28
M  V30 28 1 27 29
M  V30 29 2 29 30
M  V30 30 1 30 31
M  V30 31 2 31 32
M  V30 32 1 32 33
M  V30 33 1 25 2
M  V30 34 1 32 26
M  V30 35 1 24 5
M  V30 36 1 13 7
M  V30 37 1 22 17
M  V30 38 1 3 34
M  V30 39 1 4 35
M  V30 40 1 4 36
M  V30 41 1 8 37
M  V30 42 1 9 38
M  V30 43 1 12 39
M  V30 44 1 15 40
M  V30 45 1 18 41
M  V30 46 1 18 42
M  V30 47 1 19 43
M  V30 48 1 19 44
M  V30 49 1 20 45
M  V30 50 1 21 46
M  V30 51 1 21 47
M  V30 52 1 22 48
M  V30 53 1 22 49
M  V30 54 1 23 50
M  V30 55 1 29 51
M  V30 56 1 30 52
M  V30 57 1 31 53
M  V30 END BOND
M  V30 END CTAB
M  END
>  <Dataset>  (485) 
ChEMBL_Kinases

>  <Ligand_Instance>  (485) 
nan

>  <PDB_ID>  (485) 
nan

>  <Standardized_SMILES>  (485) 
O=C1NCc2c(-c3ccc(F)cc3F)cc(N3CCNCC3)cc2N1c1c(Cl)cccc1Cl

>  <Name>  (485) 
nan

>  <Pocket>  (485) 
nan

>  <ATP_Site>  (485) 
nan

>  <Peripheral>  (485) 
nan

>  <Num_H_Atoms_ProtBoundConf>  (485) 
nan

>  <Num_Resolved_Atoms>  (485) 
nan

>  <Num_Not_Resolved_Atoms>  (485) 
nan

$$$$
CHEMBL1099351
     RDKit          3D

  0  0  0  0  0  0  0  0  0  0999 V3000
M  V30 BEGIN CTAB
M  V30 COUNTS 80 86 0 0 0
M  V30 BEGIN ATOM
M  V30 1 C -6.996527 -4.147142 -3.735481 0
M  V30 2 C -6.586445 -3.480658 -2.465247 0
M  V30 3 N -5.150081 -3.155741 -2.465004 0
M  V30 4 C -4.123703 -3.938372 -2.029091 0
M  V30 5 C -2.944707 -3.222629 -2.224339 0
M  V30 6 C -1.725199 -3.912208 -1.809747 0
M  V30 7 C -1.434913 -5.079514 -2.489582 0
M  V30 8 C -0.295472 -5.793497 -2.148235 0
M  V30 9 N 0.483078 -5.316744 -1.164411 0
M  V30 10 C 0.175669 -4.175550 -0.518604 0
M  V30 11 N 0.804877 -3.515603 0.491691 0
M  V30 12 C 0.117544 -2.397159 0.821498 0
M  V30 13 C 0.500416 -1.454017 1.864211 0
M  V30 14 C -0.249356 -0.329356 2.132564 0
M  V30 15 C 0.159216 0.523265 3.133220 0
M  V30 16 C 1.276768 0.364462 3.920976 0
M  V30 17 C 1.722407 1.277526 4.978383 0
M  V30 18 N 1.159785 1.073171 6.276277 0
M  V30 19 C 1.370943 -0.225927 6.789806 0
M  V30 20 C 0.193961 -1.157396 6.562336 0
M  V30 21 O -0.895225 -0.532091 7.216028 0
M  V30 22 C -1.234335 0.569027 6.454202 0
M  V30 23 C -0.147433 1.614705 6.362952 0
M  V30 24 C 2.005763 -0.790527 3.610856 0
M  V30 25 C 1.639952 -1.675420 2.620058 0
M  V30 26 C -1.000344 -2.296959 0.018354 0
M  V30 27 C -0.938915 -3.403182 -0.795117 0
M  V30 28 C -3.309586 -2.014527 -2.779990 0
M  V30 29 C -2.251546 -1.061406 -3.091340 0
M  V30 30 C -1.263661 -1.374138 -4.031070 0
M  V30 31 C -0.256185 -0.469155 -4.336852 0
M  V30 32 C -0.194563 0.778417 -3.719928 0
M  V30 33 N 0.766732 1.767378 -3.951400 0
M  V30 34 C 1.990886 1.917522 -3.265845 0
M  V30 35 O 2.204227 1.082702 -2.386383 0
M  V30 36 N 2.925528 2.931089 -3.535482 0
M  V30 37 C 4.172580 3.171089 -2.914155 0
M  V30 38 C 4.744258 2.445793 -1.897060 0
M  V30 39 C 5.962843 2.713176 -1.316325 0
M  V30 40 C 6.702493 3.803696 -1.776406 0
M  V30 41 C 6.146266 4.544444 -2.796776 0
M  V30 42 C 4.920643 4.244648 -3.353717 0
M  V30 43 C -1.164369 1.060907 -2.810106 0
M  V30 44 C -2.191393 0.188012 -2.471865 0
M  V30 45 N -4.669198 -2.005529 -2.914448 0
M  V30 46 H -7.803762 -4.872086 -3.508459 0
M  V30 47 H -7.338678 -3.382413 -4.461610 0
M  V30 48 H -6.137099 -4.736111 -4.122922 0
M  V30 49 H -6.774544 -4.208248 -1.623056 0
M  V30 50 H -7.197540 -2.592230 -2.213353 0
M  V30 51 H -4.358007 -4.928383 -1.625061 0
M  V30 52 H -2.037582 -5.484470 -3.278832 0
M  V30 53 H -0.030843 -6.712882 -2.655101 0
M  V30 54 H 1.704106 -3.886127 0.912217 0
M  V30 55 H -1.141372 -0.156081 1.540496 0
M  V30 56 H -0.470244 1.374559 3.282183 0
M  V30 57 H 1.539201 2.326386 4.604028 0
M  V30 58 H 2.850096 1.207507 5.005102 0
M  V30 59 H 1.561969 -0.253640 7.889056 0
M  V30 60 H 2.258472 -0.693392 6.331673 0
M  V30 61 H 0.398473 -2.101794 7.063192 0
M  V30 62 H -0.116076 -1.242808 5.517611 0
M  V30 63 H -1.534692 0.250465 5.455883 0
M  V30 64 H -2.112882 1.054420 6.970922 0
M  V30 65 H -0.264301 2.293578 7.246512 0
M  V30 66 H -0.359769 2.246760 5.483722 0
M  V30 67 H 2.906364 -1.075803 4.109827 0
M  V30 68 H 2.198182 -2.562980 2.380268 0
M  V30 69 H -1.777182 -1.551003 -0.013327 0
M  V30 70 H -1.275417 -2.326785 -4.530199 0
M  V30 71 H 0.528619 -0.684144 -5.065498 0
M  V30 72 H 0.514804 2.451699 -4.724314 0
M  V30 73 H 2.609806 3.566580 -4.307196 0
M  V30 74 H 4.232736 1.608277 -1.506481 0
M  V30 75 H 6.360466 2.106659 -0.519653 0
M  V30 76 H 7.653725 4.045494 -1.351670 0
M  V30 77 H 6.668363 5.402171 -3.197893 0
M  V30 78 H 4.539730 4.882636 -4.166738 0
M  V30 79 H -1.192693 2.017873 -2.277436 0
M  V30 80 H -2.954691 0.441183 -1.739490 0
M  V30 END ATOM
M  V30 BEGIN BOND
M  V30 1 1 1 2
M  V30 2 1 2 3
M  V30 3 1 3 4
M  V30 4 2 4 5
M  V30 5 1 5 6
M  V30 6 2 6 7
M  V30 7 1 7 8
M  V30 8 2 8 9
M  V30 9 1 9 10
M  V30 10 1 10 11
M  V30 11 1 11 12
M  V30 12 1 12 13
M  V30 13 2 13 14
M  V30 14 1 14 15
M  V30 15 2 15 16
M  V30 16 1 16 17
M  V30 17 1 17 18
M  V30 18 1 18 19
M  V30 19 1 19 20
M  V30 20 1 20 21
M  V30 21 1 21 22
M  V30 22 1 22 23
M  V30 23 1 16 24
M  V30 24 2 24 25
M  V30 25 2 12 26
M  V30 26 1 26 27
M  V30 27 1 5 28
M  V30 28 1 28 29
M  V30 29 2 29 30
M  V30 30 1 30 31
M  V30 31 2 31 32
M  V30 32 1 32 33
M  V30 33 1 33 34
M  V30 34 2 34 35
M  V30 35 1 34 36
M  V30 36 1 36 37
M  V30 37 2 37 38
M  V30 38 1 38 39
M  V30 39 2 39 40
M  V30 40 1 40 41
M  V30 41 2 41 42
M  V30 42 1 32 43
M  V30 43 2 43 44
M  V30 44 2 28 45
M  V30 45 1 45 3
M  V30 46 1 27 6
M  V30 47 1 44 29
M  V30 48 2 27 10
M  V30 49 1 42 37
M  V30 50 1 25 13
M  V30 51 1 23 18
M  V30 52 1 1 46
M  V30 53 1 1 47
M  V30 54 1 1 48
M  V30 55 1 2 49
M  V30 56 1 2 50
M  V30 57 1 4 51
M  V30 58 1 7 52
M  V30 59 1 8 53
M  V30 60 1 11 54
M  V30 61 1 14 55
M  V30 62 1 15 56
M  V30 63 1 17 57
M  V30 64 1 17 58
M  V30 65 1 19 59
M  V30 66 1 19 60
M  V30 67 1 20 61
M  V30 68 1 20 62
M  V30 69 1 22 63
M  V30 70 1 22 64
M  V30 71 1 23 65
M  V30 72 1 23 66
M  V30 73 1 24 67
M  V30 74 1 25 68
M  V30 75 1 26 69
M  V30 76 1 30 70
M  V30 77 1 31 71
M  V30 78 1 33 72
M  V30 79 1 36 73
M  V30 80 1 38 74
M  V30 81 1 39 75
M  V30 82 1 40 76
M  V30 83 1 41 77
M  V30 84 1 42 78
M  V30 85 1 43 79
M  V30 86 1 44 80
M  V30 END BOND
M  V30 END CTAB
M  END
>  <Dataset>  (486) 
ChEMBL_Kinases

>  <Ligand_Instance>  (486) 
nan

>  <PDB_ID>  (486) 
nan

>  <Standardized_SMILES>  (486) 
CCn1cc(-c2ccnc3[nH]c(-c4ccc(CN5CCOCC5)cc4)cc23)c(-c2ccc(NC(=O)Nc3ccccc3)cc2)n1

>  <Name>  (486) 
nan

>  <Pocket>  (486) 
nan

>  <ATP_Site>  (486) 
nan

>  <Peripheral>  (486) 
nan

>  <Num_H_Atoms_ProtBoundConf>  (486) 
nan

>  <Num_Resolved_Atoms>  (486) 
nan

>  <Num_Not_Resolved_Atoms>  (486) 
nan

$$$$
CHEMBL209534
     RDKit          3D

  0  0  0  0  0  0  0  0  0  0999 V3000
M  V30 BEGIN CTAB
M  V30 COUNTS 37 38 0 0 0
M  V30 BEGIN ATOM
M  V30 1 C -2.873273 -4.604303 2.790824 0
M  V30 2 C -1.700031 -3.603095 2.822440 0
M  V30 3 O -0.945435 -4.036217 1.682134 0
M  V30 4 C 0.080821 -3.322276 1.118877 0
M  V30 5 N 0.477142 -1.987966 1.428779 0
M  V30 6 C 1.545979 -1.611433 0.634113 0
M  V30 7 C 1.745145 -0.163973 0.296580 0
M  V30 8 O 3.060745 0.025657 0.577653 0
M  V30 9 N 1.601329 1.167901 -0.102878 0
M  V30 10 C 1.557571 2.510807 -0.477763 0
M  V30 11 C 0.838836 3.488099 0.342238 0
M  V30 12 C -0.303467 3.902317 -0.462892 0
M  V30 13 C -1.189077 4.875619 0.065629 0
M  V30 14 C -0.945890 5.450678 1.391217 0
M  V30 15 N 0.137833 4.942663 1.941865 0
M  V30 16 C 0.951471 4.057380 1.477355 0
M  V30 17 C 2.293050 -2.229054 -0.349156 0
M  V30 18 C 1.831301 -3.575084 -0.620564 0
M  V30 19 N 2.492156 -4.399028 -1.651231 0
M  V30 20 C 0.782315 -3.969337 0.144221 0
M  V30 21 C 0.410032 -5.370090 -0.167115 0
M  V30 22 N 0.100857 -6.487314 -0.414900 0
M  V30 23 H -3.567524 -4.354095 3.599100 0
M  V30 24 H -2.533915 -5.647866 2.601507 0
M  V30 25 H -3.449367 -4.335426 1.825876 0
M  V30 26 H -2.056029 -2.633790 2.911069 0
M  V30 27 H -1.074729 -3.835183 3.760188 0
M  V30 28 H 0.571774 0.938428 -0.295203 0
M  V30 29 H 2.666074 2.852651 -0.632036 0
M  V30 30 H 1.230703 2.525025 -1.568062 0
M  V30 31 H -0.608515 3.556187 -1.496764 0
M  V30 32 H -2.046903 5.167609 -0.578351 0
M  V30 33 H -1.722981 6.154372 1.558926 0
M  V30 34 H 1.785344 3.722336 2.079088 0
M  V30 35 H 3.152527 -1.957624 -0.920806 0
M  V30 36 H 2.425828 -3.763989 -2.484723 0
M  V30 37 H 2.875948 -5.407012 -1.384263 0
M  V30 END ATOM
M  V30 BEGIN BOND
M  V30 1 1 1 2
M  V30 2 1 2 3
M  V30 3 1 3 4
M  V30 4 2 4 5
M  V30 5 1 5 6
M  V30 6 1 6 7
M  V30 7 2 7 8
M  V30 8 1 7 9
M  V30 9 1 9 10
M  V30 10 1 10 11
M  V30 11 2 11 12
M  V30 12 1 12 13
M  V30 13 2 13 14
M  V30 14 1 14 15
M  V30 15 2 15 16
M  V30 16 2 6 17
M  V30 17 1 17 18
M  V30 18 1 18 19
M  V30 19 2 18 20
M  V30 20 1 20 21
M  V30 21 3 21 22
M  V30 22 1 20 4
M  V30 23 1 16 11
M  V30 24 1 1 23
M  V30 25 1 1 24
M  V30 26 1 1 25
M  V30 27 1 2 26
M  V30 28 1 2 27
M  V30 29 1 9 28
M  V30 30 1 10 29
M  V30 31 1 10 30
M  V30 32 1 12 31
M  V30 33 1 13 32
M  V30 34 1 14 33
M  V30 35 1 16 34
M  V30 36 1 17 35
M  V30 37 1 19 36
M  V30 38 1 19 37
M  V30 END BOND
M  V30 END CTAB
M  END
>  <Dataset>  (487) 
ChEMBL_Kinases

>  <Ligand_Instance>  (487) 
nan

>  <PDB_ID>  (487) 
nan

>  <Standardized_SMILES>  (487) 
CCOc1nc(C(=O)NCc2cccnc2)cc(N)c1C#N

>  <Name>  (487) 
nan

>  <Pocket>  (487) 
nan

>  <ATP_Site>  (487) 
nan

>  <Peripheral>  (487) 
nan

>  <Num_H_Atoms_ProtBoundConf>  (487) 
nan

>  <Num_Resolved_Atoms>  (487) 
nan

>  <Num_Not_Resolved_Atoms>  (487) 
nan

$$$$
CHEMBL2071623
     RDKit          3D

  0  0  0  0  0  0  0  0  0  0999 V3000
M  V30 BEGIN CTAB
M  V30 COUNTS 39 41 0 0 0
M  V30 BEGIN ATOM
M  V30 1 C -2.862295 -3.163474 3.835968 0
M  V30 2 C -1.592796 -3.259811 3.035779 0
M  V30 3 C -0.396316 -3.540922 3.872254 0
M  V30 4 C -1.785098 -4.457018 2.094431 0
M  V30 5 C -1.429793 -2.033336 2.210109 0
M  V30 6 C -0.334728 -1.858512 1.380296 0
M  V30 7 C -0.105447 -0.751915 0.577771 0
M  V30 8 C -1.046974 0.258766 0.608873 0
M  V30 9 N -0.889828 1.430096 -0.184258 0
M  V30 10 C 0.257572 1.615070 -1.005903 0
M  V30 11 N 0.801727 1.403703 -2.217791 0
M  V30 12 C 2.046494 1.915640 -2.254985 0
M  V30 13 C 2.947981 1.915952 -3.299653 0
M  V30 14 C 4.185106 2.518748 -3.078347 0
M  V30 15 C 4.457516 3.088476 -1.829025 0
M  V30 16 C 5.710277 3.724108 -1.536502 0
M  V30 17 N 6.733966 4.228813 -1.299986 0
M  V30 18 C 3.507746 3.050176 -0.832769 0
M  V30 19 C 2.267438 2.462512 -1.008652 0
M  V30 20 O 1.172971 2.251467 -0.318932 0
M  V30 21 C -2.158002 0.136136 1.418703 0
M  V30 22 C -2.347784 -1.002068 2.213678 0
M  V30 23 H -3.725207 -3.067797 3.122349 0
M  V30 24 H -2.879344 -2.370436 4.588833 0
M  V30 25 H -3.005016 -4.156521 4.336161 0
M  V30 26 H -0.627210 -4.164243 4.760186 0
M  V30 27 H 0.355187 -4.148133 3.289744 0
M  V30 28 H 0.102948 -2.621931 4.231596 0
M  V30 29 H -0.849407 -5.041394 2.023260 0
M  V30 30 H -2.596944 -5.128751 2.437548 0
M  V30 31 H -2.024822 -4.075871 1.081021 0
M  V30 32 H 0.382791 -2.666337 1.378185 0
M  V30 33 H 0.772586 -0.678188 -0.048385 0
M  V30 34 H -1.609464 2.173395 -0.179216 0
M  V30 35 H 2.674604 1.459894 -4.234530 0
M  V30 36 H 4.918354 2.547325 -3.850029 0
M  V30 37 H 3.691399 3.486399 0.151827 0
M  V30 38 H -2.896425 0.946978 1.433240 0
M  V30 39 H -3.236799 -1.067800 2.843263 0
M  V30 END ATOM
M  V30 BEGIN BOND
M  V30 1 1 1 2
M  V30 2 1 2 3
M  V30 3 1 2 4
M  V30 4 1 2 5
M  V30 5 2 5 6
M  V30 6 1 6 7
M  V30 7 2 7 8
M  V30 8 1 8 9
M  V30 9 1 9 10
M  V30 10 2 10 11
M  V30 11 1 11 12
M  V30 12 2 12 13
M  V30 13 1 13 14
M  V30 14 2 14 15
M  V30 15 1 15 16
M  V30 16 3 16 17
M  V30 17 1 15 18
M  V30 18 2 18 19
M  V30 19 1 19 20
M  V30 20 1 8 21
M  V30 21 2 21 22
M  V30 22 1 22 5
M  V30 23 1 20 10
M  V30 24 1 19 12
M  V30 25 1 1 23
M  V30 26 1 1 24
M  V30 27 1 1 25
M  V30 28 1 3 26
M  V30 29 1 3 27
M  V30 30 1 3 28
M  V30 31 1 4 29
M  V30 32 1 4 30
M  V30 33 1 4 31
M  V30 34 1 6 32
M  V30 35 1 7 33
M  V30 36 1 9 34
M  V30 37 1 13 35
M  V30 38 1 14 36
M  V30 39 1 18 37
M  V30 40 1 21 38
M  V30 41 1 22 39
M  V30 END BOND
M  V30 END CTAB
M  END
>  <Dataset>  (488) 
ChEMBL_Kinases

>  <Ligand_Instance>  (488) 
nan

>  <PDB_ID>  (488) 
nan

>  <Standardized_SMILES>  (488) 
CC(C)(C)c1ccc(Nc2nc3ccc(C#N)cc3o2)cc1

>  <Name>  (488) 
nan

>  <Pocket>  (488) 
nan

>  <ATP_Site>  (488) 
nan

>  <Peripheral>  (488) 
nan

>  <Num_H_Atoms_ProtBoundConf>  (488) 
nan

>  <Num_Resolved_Atoms>  (488) 
nan

>  <Num_Not_Resolved_Atoms>  (488) 
nan

$$$$
CHEMBL209648
     RDKit          3D

  0  0  0  0  0  0  0  0  0  0999 V3000
M  V30 BEGIN CTAB
M  V30 COUNTS 32 35 0 0 0
M  V30 BEGIN ATOM
M  V30 1 O -1.351572 1.043344 2.743849 0
M  V30 2 N -1.784244 0.360596 1.768932 0
M  V30 3 C -1.197082 -0.868362 1.475662 0
M  V30 4 C -0.019466 -1.043498 0.815323 0
M  V30 5 C 1.023973 -0.257331 0.214876 0
M  V30 6 C 2.283111 -0.730437 -0.095886 0
M  V30 7 O 2.862521 -1.986036 0.094283 0
M  V30 8 N 3.040625 0.213468 -0.676729 0
M  V30 9 C 2.329752 1.347391 -0.780632 0
M  V30 10 C 2.626390 2.588345 -1.303214 0
M  V30 11 I 4.550691 2.946905 -2.118333 0
M  V30 12 C 1.678530 3.589323 -1.295927 0
M  V30 13 C 0.441125 3.307459 -0.755150 0
M  V30 14 C 0.200999 2.052817 -0.247840 0
M  V30 15 C 1.105775 1.032834 -0.231149 0
M  V30 16 N 0.100923 -2.389455 0.838651 0
M  V30 17 C -0.908841 -3.019448 1.456541 0
M  V30 18 C -1.255399 -4.326587 1.741252 0
M  V30 19 C -2.417065 -4.621656 2.421927 0
M  V30 20 C -3.295412 -3.653393 2.856792 0
M  V30 21 C -2.937915 -2.356113 2.566473 0
M  V30 22 C -1.780896 -2.044063 1.887276 0
M  V30 23 H 3.734264 -2.060307 0.625003 0
M  V30 24 H 4.025736 0.159608 -1.019419 0
M  V30 25 H 1.904443 4.562037 -1.702743 0
M  V30 26 H -0.294797 4.112000 -0.759521 0
M  V30 27 H -0.784859 1.930586 0.124591 0
M  V30 28 H 0.848956 -3.031941 0.452097 0
M  V30 29 H -0.601644 -5.116656 1.421757 0
M  V30 30 H -2.650352 -5.656866 2.623986 0
M  V30 31 H -4.200846 -3.871794 3.386577 0
M  V30 32 H -3.579536 -1.557066 2.878070 0
M  V30 END ATOM
M  V30 BEGIN BOND
M  V30 1 2 1 2
M  V30 2 1 2 3
M  V30 3 2 3 4
M  V30 4 1 4 5
M  V30 5 2 5 6
M  V30 6 1 6 7
M  V30 7 1 6 8
M  V30 8 1 8 9
M  V30 9 2 9 10
M  V30 10 1 10 11
M  V30 11 1 10 12
M  V30 12 2 12 13
M  V30 13 1 13 14
M  V30 14 2 14 15
M  V30 15 1 4 16
M  V30 16 1 16 17
M  V30 17 2 17 18
M  V30 18 1 18 19
M  V30 19 2 19 20
M  V30 20 1 20 21
M  V30 21 2 21 22
M  V30 22 1 22 3
M  V30 23 1 15 5
M  V30 24 1 22 17
M  V30 25 1 15 9
M  V30 26 1 7 23
M  V30 27 1 8 24
M  V30 28 1 12 25
M  V30 29 1 13 26
M  V30 30 1 14 27
M  V30 31 1 16 28
M  V30 32 1 18 29
M  V30 33 1 19 30
M  V30 34 1 20 31
M  V30 35 1 21 32
M  V30 END BOND
M  V30 END CTAB
M  END
>  <Dataset>  (489) 
ChEMBL_Kinases

>  <Ligand_Instance>  (489) 
nan

>  <PDB_ID>  (489) 
nan

>  <Standardized_SMILES>  (489) 
O=Nc1c(-c2c(O)[nH]c3c(I)cccc23)[nH]c2ccccc12

>  <Name>  (489) 
nan

>  <Pocket>  (489) 
nan

>  <ATP_Site>  (489) 
nan

>  <Peripheral>  (489) 
nan

>  <Num_H_Atoms_ProtBoundConf>  (489) 
nan

>  <Num_Resolved_Atoms>  (489) 
nan

>  <Num_Not_Resolved_Atoms>  (489) 
nan

$$$$
CHEMBL1095192
     RDKit          3D

  0  0  0  0  0  0  0  0  0  0999 V3000
M  V30 BEGIN CTAB
M  V30 COUNTS 48 52 0 0 0
M  V30 BEGIN ATOM
M  V30 1 O 3.353158 -0.314765 0.518641 0
M  V30 2 C 3.326017 -1.062390 1.552516 0
M  V30 3 N 4.563720 -1.725717 1.876019 0
M  V30 4 C 5.729836 -1.540472 1.074570 0
M  V30 5 C 5.837907 -2.465468 0.030469 0
M  V30 6 C 6.904412 -2.443636 -0.854212 0
M  V30 7 C 7.849101 -1.468251 -0.653946 0
M  V30 8 C 7.779096 -0.530172 0.371169 0
M  V30 9 C 6.721533 -0.574065 1.225635 0
M  V30 10 N 2.149920 -1.239056 2.347003 0
M  V30 11 C 1.015567 -0.497702 1.867480 0
M  V30 12 C 0.788485 0.805626 2.323944 0
M  V30 13 C -0.305466 1.507672 1.855622 0
M  V30 14 C -1.169954 0.926916 0.942384 0
M  V30 15 C -2.361677 1.524545 0.350908 0
M  V30 16 N -2.133681 2.654163 -0.391283 0
M  V30 17 N -3.279015 3.105384 -0.875776 0
M  V30 18 C -4.284222 2.290895 -0.468250 0
M  V30 19 C -3.725401 1.291401 0.304042 0
M  V30 20 C -4.229066 0.149996 1.012008 0
M  V30 21 C -4.162157 -0.064683 2.403357 0
M  V30 22 C -4.701561 -1.226713 2.913178 0
M  V30 23 N -5.294332 -2.185062 2.181483 0
M  V30 24 C -5.357909 -1.974058 0.832045 0
M  V30 25 N -5.901627 -2.785375 -0.115267 0
M  V30 26 C -5.749643 -2.192716 -1.336615 0
M  V30 27 C -5.094547 -0.986351 -1.123917 0
M  V30 28 C -4.840153 -0.835137 0.246986 0
M  V30 29 C -0.924500 -0.358674 0.507767 0
M  V30 30 C 0.161500 -1.110047 0.946643 0
M  V30 31 H 4.622341 -2.362865 2.719190 0
M  V30 32 H 5.096681 -3.249910 -0.145807 0
M  V30 33 H 7.048033 -3.118781 -1.671232 0
M  V30 34 H 8.701537 -1.389824 -1.298062 0
M  V30 35 H 8.528542 0.237808 0.523577 0
M  V30 36 H 6.548747 0.102980 2.068704 0
M  V30 37 H 2.271959 -1.879901 3.165948 0
M  V30 38 H 1.444576 1.283246 3.035224 0
M  V30 39 H -0.565990 2.518405 2.147116 0
M  V30 40 H -3.507989 3.926671 -1.475025 0
M  V30 41 H -5.364878 2.301041 -0.639786 0
M  V30 42 H -3.682354 0.716198 2.975396 0
M  V30 43 H -4.624803 -1.346151 3.995410 0
M  V30 44 H -6.372181 -3.717897 0.001706 0
M  V30 45 H -6.085416 -2.602676 -2.292331 0
M  V30 46 H -4.813058 -0.254910 -1.900299 0
M  V30 47 H -1.539813 -0.891220 -0.200135 0
M  V30 48 H 0.372752 -2.115516 0.620528 0
M  V30 END ATOM
M  V30 BEGIN BOND
M  V30 1 2 1 2
M  V30 2 1 2 3
M  V30 3 1 3 4
M  V30 4 2 4 5
M  V30 5 1 5 6
M  V30 6 2 6 7
M  V30 7 1 7 8
M  V30 8 2 8 9
M  V30 9 1 2 10
M  V30 10 1 10 11
M  V30 11 2 11 12
M  V30 12 1 12 13
M  V30 13 2 13 14
M  V30 14 1 14 15
M  V30 15 2 15 16
M  V30 16 1 16 17
M  V30 17 1 17 18
M  V30 18 2 18 19
M  V30 19 1 19 20
M  V30 20 2 20 21
M  V30 21 1 21 22
M  V30 22 2 22 23
M  V30 23 1 23 24
M  V30 24 1 24 25
M  V30 25 1 25 26
M  V30 26 2 26 27
M  V30 27 1 27 28
M  V30 28 1 14 29
M  V30 29 2 29 30
M  V30 30 1 9 4
M  V30 31 1 30 11
M  V30 32 1 19 15
M  V30 33 1 28 20
M  V30 34 2 28 24
M  V30 35 1 3 31
M  V30 36 1 5 32
M  V30 37 1 6 33
M  V30 38 1 7 34
M  V30 39 1 8 35
M  V30 40 1 9 36
M  V30 41 1 10 37
M  V30 42 1 12 38
M  V30 43 1 13 39
M  V30 44 1 17 40
M  V30 45 1 18 41
M  V30 46 1 21 42
M  V30 47 1 22 43
M  V30 48 1 25 44
M  V30 49 1 26 45
M  V30 50 1 27 46
M  V30 51 1 29 47
M  V30 52 1 30 48
M  V30 END BOND
M  V30 END CTAB
M  END
>  <Dataset>  (490) 
ChEMBL_Kinases

>  <Ligand_Instance>  (490) 
nan

>  <PDB_ID>  (490) 
nan

>  <Standardized_SMILES>  (490) 
O=C(Nc1ccccc1)Nc1ccc(-c2n[nH]cc2-c2ccnc3[nH]ccc23)cc1

>  <Name>  (490) 
nan

>  <Pocket>  (490) 
nan

>  <ATP_Site>  (490) 
nan

>  <Peripheral>  (490) 
nan

>  <Num_H_Atoms_ProtBoundConf>  (490) 
nan

>  <Num_Resolved_Atoms>  (490) 
nan

>  <Num_Not_Resolved_Atoms>  (490) 
nan

$$$$
CHEMBL602326
     RDKit          3D

  0  0  0  0  0  0  0  0  0  0999 V3000
M  V30 BEGIN CTAB
M  V30 COUNTS 48 51 0 0 0
M  V30 BEGIN ATOM
M  V30 1 N -3.222532 -3.314797 1.553615 0
M  V30 2 C -2.004797 -3.690268 0.876286 0
M  V30 3 C -0.790537 -3.498159 1.766872 0
M  V30 4 C 0.365971 -3.011856 0.906236 0
M  V30 5 N 0.080167 -1.678669 0.416131 0
M  V30 6 C 0.574582 -0.348256 0.406455 0
M  V30 7 N 0.951932 0.168939 -0.782083 0
M  V30 8 C 1.435719 1.420693 -0.883648 0
M  V30 9 C 1.821457 1.906253 -2.201142 0
M  V30 10 C 1.666437 1.048778 -3.269591 0
M  V30 11 C 2.017834 1.455174 -4.556593 0
M  V30 12 N 2.520531 2.701812 -4.792729 0
M  V30 13 C 2.657153 3.512790 -3.717737 0
M  V30 14 C 2.327691 3.169833 -2.419228 0
M  V30 15 C 1.528075 2.149549 0.279254 0
M  V30 16 N 1.151267 1.632627 1.463989 0
M  V30 17 C 0.659374 0.363566 1.577717 0
M  V30 18 N 0.326237 -0.022765 2.880437 0
M  V30 19 C 0.798166 -0.960410 3.875625 0
M  V30 20 C -0.315431 -1.070890 4.881441 0
M  V30 21 C -1.135679 0.166181 4.768748 0
M  V30 22 C -0.831506 0.709737 3.419539 0
M  V30 23 C -1.170304 -1.648210 -0.354717 0
M  V30 24 C -1.826338 -2.984586 -0.450316 0
M  V30 25 H -3.250759 -2.347298 1.891334 0
M  V30 26 H -4.039810 -3.648235 1.026287 0
M  V30 27 H -2.070358 -4.775728 0.654003 0
M  V30 28 H -0.453191 -4.439895 2.246764 0
M  V30 29 H -1.053180 -2.798690 2.578210 0
M  V30 30 H 1.313386 -3.083629 1.438241 0
M  V30 31 H 0.334416 -3.673976 -0.000777 0
M  V30 32 H 1.273351 0.032577 -3.184860 0
M  V30 33 H 1.904567 0.798058 -5.411101 0
M  V30 34 H 3.052824 4.512776 -3.858250 0
M  V30 35 H 2.455828 3.852068 -1.600110 0
M  V30 36 H 1.908864 3.148041 0.231024 0
M  V30 37 H 1.733664 -0.568763 4.353744 0
M  V30 38 H 0.988579 -1.967181 3.507339 0
M  V30 39 H 0.170598 -1.072646 5.895125 0
M  V30 40 H -0.878046 -2.010405 4.833505 0
M  V30 41 H -0.857631 0.935810 5.536583 0
M  V30 42 H -2.240693 -0.005194 4.903621 0
M  V30 43 H -1.694391 0.653307 2.732544 0
M  V30 44 H -0.513381 1.790242 3.472547 0
M  V30 45 H -1.874467 -0.864275 0.042426 0
M  V30 46 H -0.878147 -1.366347 -1.400098 0
M  V30 47 H -2.857808 -2.826550 -0.845685 0
M  V30 48 H -1.315660 -3.618348 -1.192250 0
M  V30 END ATOM
M  V30 BEGIN BOND
M  V30 1 1 1 2
M  V30 2 1 2 3
M  V30 3 1 3 4
M  V30 4 1 4 5
M  V30 5 1 5 6
M  V30 6 2 6 7
M  V30 7 1 7 8
M  V30 8 1 8 9
M  V30 9 2 9 10
M  V30 10 1 10 11
M  V30 11 2 11 12
M  V30 12 1 12 13
M  V30 13 2 13 14
M  V30 14 2 8 15
M  V30 15 1 15 16
M  V30 16 2 16 17
M  V30 17 1 17 18
M  V30 18 1 18 19
M  V30 19 1 19 20
M  V30 20 1 20 21
M  V30 21 1 21 22
M  V30 22 1 5 23
M  V30 23 1 23 24
M  V30 24 1 24 2
M  V30 25 1 17 6
M  V30 26 1 22 18
M  V30 27 1 14 9
M  V30 28 1 1 25
M  V30 29 1 1 26
M  V30 30 1 2 27
M  V30 31 1 3 28
M  V30 32 1 3 29
M  V30 33 1 4 30
M  V30 34 1 4 31
M  V30 35 1 10 32
M  V30 36 1 11 33
M  V30 37 1 13 34
M  V30 38 1 14 35
M  V30 39 1 15 36
M  V30 40 1 19 37
M  V30 41 1 19 38
M  V30 42 1 20 39
M  V30 43 1 20 40
M  V30 44 1 21 41
M  V30 45 1 21 42
M  V30 46 1 22 43
M  V30 47 1 22 44
M  V30 48 1 23 45
M  V30 49 1 23 46
M  V30 50 1 24 47
M  V30 51 1 24 48
M  V30 END BOND
M  V30 END CTAB
M  END
>  <Dataset>  (491) 
ChEMBL_Kinases

>  <Ligand_Instance>  (491) 
nan

>  <PDB_ID>  (491) 
nan

>  <Standardized_SMILES>  (491) 
NC1CCN(c2nc(-c3ccncc3)cnc2N2CCCC2)CC1

>  <Name>  (491) 
nan

>  <Pocket>  (491) 
nan

>  <ATP_Site>  (491) 
nan

>  <Peripheral>  (491) 
nan

>  <Num_H_Atoms_ProtBoundConf>  (491) 
nan

>  <Num_Resolved_Atoms>  (491) 
nan

>  <Num_Not_Resolved_Atoms>  (491) 
nan

$$$$
CHEMBL583099
     RDKit          3D

  0  0  0  0  0  0  0  0  0  0999 V3000
M  V30 BEGIN CTAB
M  V30 COUNTS 34 36 0 0 0
M  V30 BEGIN ATOM
M  V30 1 C 0.969763 -1.322379 5.126362 0
M  V30 2 C 1.178801 -1.978244 3.782000 0
M  V30 3 C 1.684189 -3.257126 3.831376 0
M  V30 4 C 1.874635 -3.854129 2.612807 0
M  V30 5 C 1.557500 -3.155461 1.465406 0
M  V30 6 S 1.692426 -3.658610 -0.259191 0
M  V30 7 C 1.054315 -2.100119 -0.926227 0
M  V30 8 C 0.856260 -1.721990 -2.267472 0
M  V30 9 O 1.155259 -2.561945 -3.133979 0
M  V30 10 N 0.365001 -0.495277 -2.491391 0
M  V30 11 C 0.114200 0.242187 -1.411106 0
M  V30 12 C -0.440408 1.633319 -1.595509 0
M  V30 13 N -1.868388 1.567176 -1.608736 0
M  V30 14 C -2.436829 1.033599 -0.406277 0
M  V30 15 C -2.416660 2.890954 -1.807081 0
M  V30 16 N 0.307870 -0.133934 -0.168054 0
M  V30 17 C 0.793959 -1.335721 0.182708 0
M  V30 18 C 1.051564 -1.875472 1.412865 0
M  V30 19 C 0.868201 -1.294571 2.651765 0
M  V30 20 H 0.982490 -0.217629 5.005549 0
M  V30 21 H -0.069417 -1.601621 5.421783 0
M  V30 22 H 1.712711 -1.676770 5.839358 0
M  V30 23 H 1.939677 -3.824044 4.712045 0
M  V30 24 H 2.263218 -4.853321 2.480273 0
M  V30 25 H 0.211964 -0.198124 -3.474501 0
M  V30 26 H -0.063506 2.302219 -0.793021 0
M  V30 27 H -0.086817 1.984317 -2.579799 0
M  V30 28 H -1.757028 0.963696 0.442384 0
M  V30 29 H -2.758325 -0.015794 -0.635594 0
M  V30 30 H -3.377190 1.558618 -0.113927 0
M  V30 31 H -3.498217 2.792355 -2.105842 0
M  V30 32 H -1.905865 3.411273 -2.643761 0
M  V30 33 H -2.428804 3.484686 -0.872036 0
M  V30 34 H 0.471844 -0.275601 2.785065 0
M  V30 END ATOM
M  V30 BEGIN BOND
M  V30 1 1 1 2
M  V30 2 2 2 3
M  V30 3 1 3 4
M  V30 4 2 4 5
M  V30 5 1 5 6
M  V30 6 1 6 7
M  V30 7 1 7 8
M  V30 8 2 8 9
M  V30 9 1 8 10
M  V30 10 1 10 11
M  V30 11 1 11 12
M  V30 12 1 12 13
M  V30 13 1 13 14
M  V30 14 1 13 15
M  V30 15 2 11 16
M  V30 16 1 16 17
M  V30 17 1 17 18
M  V30 18 2 18 19
M  V30 19 1 19 2
M  V30 20 1 18 5
M  V30 21 2 17 7
M  V30 22 1 1 20
M  V30 23 1 1 21
M  V30 24 1 1 22
M  V30 25 1 3 23
M  V30 26 1 4 24
M  V30 27 1 10 25
M  V30 28 1 12 26
M  V30 29 1 12 27
M  V30 30 1 14 28
M  V30 31 1 14 29
M  V30 32 1 14 30
M  V30 33 1 15 31
M  V30 34 1 15 32
M  V30 35 1 15 33
M  V30 36 1 19 34
M  V30 END BOND
M  V30 END CTAB
M  END
>  <Dataset>  (492) 
ChEMBL_Kinases

>  <Ligand_Instance>  (492) 
nan

>  <PDB_ID>  (492) 
nan

>  <Standardized_SMILES>  (492) 
Cc1ccc2sc3c(=O)[nH]c(CN(C)C)nc3c2c1

>  <Name>  (492) 
nan

>  <Pocket>  (492) 
nan

>  <ATP_Site>  (492) 
nan

>  <Peripheral>  (492) 
nan

>  <Num_H_Atoms_ProtBoundConf>  (492) 
nan

>  <Num_Resolved_Atoms>  (492) 
nan

>  <Num_Not_Resolved_Atoms>  (492) 
nan

$$$$
CHEMBL2088221
     RDKit          3D

  0  0  0  0  0  0  0  0  0  0999 V3000
M  V30 BEGIN CTAB
M  V30 COUNTS 47 51 0 0 0
M  V30 BEGIN ATOM
M  V30 1 C -0.433927 -2.154511 5.078901 0
M  V30 2 C 0.523503 -2.301777 3.952565 0
M  V30 3 C 1.628395 -3.137541 3.957169 0
M  V30 4 C 2.493265 -3.244161 2.888193 0
M  V30 5 C 2.267931 -2.490273 1.744719 0
M  V30 6 C 1.168374 -1.676869 1.776321 0
M  V30 7 C 0.933891 -0.856662 0.522252 0
M  V30 8 S 2.087990 0.475932 -0.186153 0
M  V30 9 C 0.850041 0.761461 -1.629437 0
M  V30 10 N 1.424368 1.819303 -2.489280 0
M  V30 11 C 0.978272 3.136626 -2.033452 0
M  V30 12 C 1.405547 3.378506 -0.629503 0
M  V30 13 C 2.582515 3.958094 -0.218318 0
M  V30 14 C 2.795859 4.094901 1.149028 0
M  V30 15 C 1.898165 3.684471 2.100037 0
M  V30 16 C 0.717854 3.103810 1.703404 0
M  V30 17 C 0.506789 2.968053 0.346411 0
M  V30 18 N 0.037076 0.025324 -1.390567 0
M  V30 19 C -0.094293 -0.838764 -0.394659 0
M  V30 20 C -1.251452 -1.722951 -0.258989 0
M  V30 21 C -2.143376 -1.597840 0.797520 0
M  V30 22 C -3.252041 -2.409766 0.975519 0
M  V30 23 C -3.480506 -3.390714 0.057260 0
M  V30 24 N -4.474119 -4.307459 -0.004812 0
M  V30 25 C -4.224770 -5.034666 -1.110878 0
M  V30 26 N -3.104161 -4.538955 -1.671972 0
M  V30 27 N -2.623735 -3.529848 -0.979467 0
M  V30 28 C -1.545920 -2.736133 -1.147262 0
M  V30 29 N 0.347477 -1.592569 2.823778 0
M  V30 30 H 0.089469 -2.200831 6.046016 0
M  V30 31 H -0.927261 -1.167788 4.999028 0
M  V30 32 H -1.202868 -2.946655 4.952713 0
M  V30 33 H 1.795382 -3.721442 4.855189 0
M  V30 34 H 3.337651 -3.910848 2.946890 0
M  V30 35 H 2.910731 -2.532815 0.878376 0
M  V30 36 H 2.057754 1.617840 -3.301708 0
M  V30 37 H 1.475593 3.845325 -2.745064 0
M  V30 38 H -0.127634 3.174282 -2.113441 0
M  V30 39 H 3.254550 4.264346 -0.995808 0
M  V30 40 H 3.740969 4.558681 1.427335 0
M  V30 41 H 2.138468 3.826869 3.161213 0
M  V30 42 H 0.005798 2.778010 2.429414 0
M  V30 43 H -0.441968 2.501808 0.080649 0
M  V30 44 H -2.015297 -0.836597 1.555532 0
M  V30 45 H -3.924900 -2.268638 1.825037 0
M  V30 46 H -4.707486 -5.875487 -1.604562 0
M  V30 47 H -0.887878 -2.895356 -2.003540 0
M  V30 END ATOM
M  V30 BEGIN BOND
M  V30 1 1 1 2
M  V30 2 2 2 3
M  V30 3 1 3 4
M  V30 4 2 4 5
M  V30 5 1 5 6
M  V30 6 1 6 7
M  V30 7 1 7 8
M  V30 8 1 8 9
M  V30 9 1 9 10
M  V30 10 1 10 11
M  V30 11 1 11 12
M  V30 12 2 12 13
M  V30 13 1 13 14
M  V30 14 2 14 15
M  V30 15 1 15 16
M  V30 16 2 16 17
M  V30 17 2 9 18
M  V30 18 1 18 19
M  V30 19 1 19 20
M  V30 20 1 20 21
M  V30 21 2 21 22
M  V30 22 1 22 23
M  V30 23 2 23 24
M  V30 24 1 24 25
M  V30 25 2 25 26
M  V30 26 1 26 27
M  V30 27 1 27 28
M  V30 28 2 6 29
M  V30 29 1 29 2
M  V30 30 2 19 7
M  V30 31 2 28 20
M  V30 32 1 17 12
M  V30 33 1 27 23
M  V30 34 1 1 30
M  V30 35 1 1 31
M  V30 36 1 1 32
M  V30 37 1 3 33
M  V30 38 1 4 34
M  V30 39 1 5 35
M  V30 40 1 10 36
M  V30 41 1 11 37
M  V30 42 1 11 38
M  V30 43 1 13 39
M  V30 44 1 14 40
M  V30 45 1 15 41
M  V30 46 1 16 42
M  V30 47 1 17 43
M  V30 48 1 21 44
M  V30 49 1 22 45
M  V30 50 1 25 46
M  V30 51 1 28 47
M  V30 END BOND
M  V30 END CTAB
M  END
>  <Dataset>  (493) 
ChEMBL_Kinases

>  <Ligand_Instance>  (493) 
nan

>  <PDB_ID>  (493) 
nan

>  <Standardized_SMILES>  (493) 
Cc1cccc(-c2sc(NCc3ccccc3)nc2-c2ccc3ncnn3c2)n1

>  <Name>  (493) 
nan

>  <Pocket>  (493) 
nan

>  <ATP_Site>  (493) 
nan

>  <Peripheral>  (493) 
nan

>  <Num_H_Atoms_ProtBoundConf>  (493) 
nan

>  <Num_Resolved_Atoms>  (493) 
nan

>  <Num_Not_Resolved_Atoms>  (493) 
nan

$$$$
CHEMBL1088751
     RDKit          3D

  0  0  0  0  0  0  0  0  0  0999 V3000
M  V30 BEGIN CTAB
M  V30 COUNTS 49 51 0 0 0
M  V30 BEGIN ATOM
M  V30 1 C 2.065147 -3.173157 6.746384 0
M  V30 2 N 2.297099 -2.515250 5.491349 0
M  V30 3 C 3.423210 -1.819861 5.002621 0
M  V30 4 O 4.448687 -1.703204 5.715483 0
M  V30 5 C 3.450752 -1.217249 3.677956 0
M  V30 6 C 4.607382 -0.571750 3.292203 0
M  V30 7 C 4.741024 0.042326 2.042560 0
M  V30 8 C 3.685012 0.008585 1.153941 0
M  V30 9 C 3.732807 0.631480 -0.193612 0
M  V30 10 C 2.522453 -0.632624 1.525160 0
M  V30 11 N 1.356444 -0.726986 0.678608 0
M  V30 12 C 0.384167 0.191616 0.871759 0
M  V30 13 C 0.574253 1.235588 1.937722 0
M  V30 14 C -0.781821 0.212414 0.128710 0
M  V30 15 C -0.944269 -0.751842 -0.847223 0
M  V30 16 O -2.062714 -0.847342 -1.664483 0
M  V30 17 C -3.093153 0.087851 -1.494520 0
M  V30 18 C -4.228868 -0.082819 -2.390653 0
M  V30 19 C -5.441643 -0.628923 -2.001093 0
M  V30 20 C -6.546568 -0.814133 -2.805990 0
M  V30 21 C -6.436842 -0.417841 -4.129025 0
M  V30 22 F -7.533425 -0.610666 -4.894675 0
M  V30 23 C -5.259996 0.133436 -4.586130 0
M  V30 24 C -4.200052 0.286772 -3.723851 0
M  V30 25 F -3.092584 0.832817 -4.255597 0
M  V30 26 C 0.054278 -1.698375 -1.048457 0
M  V30 27 Br -0.123286 -3.037847 -2.373060 0
M  V30 28 C 1.210804 -1.673010 -0.269775 0
M  V30 29 O 2.141844 -2.522871 -0.427635 0
M  V30 30 C 2.439799 -1.223308 2.768766 0
M  V30 31 H 1.799714 -4.240410 6.615002 0
M  V30 32 H 1.163116 -2.687975 7.217551 0
M  V30 33 H 2.878112 -3.007499 7.484797 0
M  V30 34 H 1.439063 -2.612919 4.892087 0
M  V30 35 H 5.507466 -0.480158 3.909356 0
M  V30 36 H 5.662621 0.550882 1.747318 0
M  V30 37 H 3.241316 1.626727 -0.096360 0
M  V30 38 H 3.172200 -0.014012 -0.912914 0
M  V30 39 H 4.790345 0.810825 -0.518292 0
M  V30 40 H 1.445925 1.863631 1.631069 0
M  V30 41 H 0.793916 0.732765 2.903700 0
M  V30 42 H -0.303283 1.908530 1.969159 0
M  V30 43 H -1.564235 0.941368 0.274863 0
M  V30 44 H -2.664584 1.104749 -1.491193 0
M  V30 45 H -3.479169 -0.084327 -0.451899 0
M  V30 46 H -5.512605 -0.938890 -0.945979 0
M  V30 47 H -7.435815 -1.260567 -2.349893 0
M  V30 48 H -5.246773 0.416096 -5.617731 0
M  V30 49 H 1.515633 -1.730092 3.057514 0
M  V30 END ATOM
M  V30 BEGIN BOND
M  V30 1 1 1 2
M  V30 2 1 2 3
M  V30 3 2 3 4
M  V30 4 1 3 5
M  V30 5 2 5 6
M  V30 6 1 6 7
M  V30 7 2 7 8
M  V30 8 1 8 9
M  V30 9 1 8 10
M  V30 10 1 10 11
M  V30 11 1 11 12
M  V30 12 1 12 13
M  V30 13 2 12 14
M  V30 14 1 14 15
M  V30 15 1 15 16
M  V30 16 1 16 17
M  V30 17 1 17 18
M  V30 18 2 18 19
M  V30 19 1 19 20
M  V30 20 2 20 21
M  V30 21 1 21 22
M  V30 22 1 21 23
M  V30 23 2 23 24
M  V30 24 1 24 25
M  V30 25 2 15 26
M  V30 26 1 26 27
M  V30 27 1 26 28
M  V30 28 2 28 29
M  V30 29 2 10 30
M  V30 30 1 30 5
M  V30 31 1 28 11
M  V30 32 1 24 18
M  V30 33 1 1 31
M  V30 34 1 1 32
M  V30 35 1 1 33
M  V30 36 1 2 34
M  V30 37 1 6 35
M  V30 38 1 7 36
M  V30 39 1 9 37
M  V30 40 1 9 38
M  V30 41 1 9 39
M  V30 42 1 13 40
M  V30 43 1 13 41
M  V30 44 1 13 42
M  V30 45 1 14 43
M  V30 46 1 17 44
M  V30 47 1 17 45
M  V30 48 1 19 46
M  V30 49 1 20 47
M  V30 50 1 23 48
M  V30 51 1 30 49
M  V30 END BOND
M  V30 END CTAB
M  END
>  <Dataset>  (494) 
ChEMBL_Kinases

>  <Ligand_Instance>  (494) 
nan

>  <PDB_ID>  (494) 
nan

>  <Standardized_SMILES>  (494) 
CNC(=O)c1ccc(C)c(-n2c(C)cc(OCc3ccc(F)cc3F)c(Br)c2=O)c1

>  <Name>  (494) 
PH-797804

>  <Pocket>  (494) 
nan

>  <ATP_Site>  (494) 
nan

>  <Peripheral>  (494) 
nan

>  <Num_H_Atoms_ProtBoundConf>  (494) 
nan

>  <Num_Resolved_Atoms>  (494) 
nan

>  <Num_Not_Resolved_Atoms>  (494) 
nan

$$$$
CHEMBL1095157
     RDKit          3D

  0  0  0  0  0  0  0  0  0  0999 V3000
M  V30 BEGIN CTAB
M  V30 COUNTS 71 75 0 0 0
M  V30 BEGIN ATOM
M  V30 1 C 6.782713 -1.038897 -1.999332 0
M  V30 2 C 7.061795 0.036375 -3.053117 0
M  V30 3 N 6.064463 1.088628 -2.820695 0
M  V30 4 C 4.678223 0.768235 -2.920756 0
M  V30 5 O 4.322445 -0.418931 -3.210802 0
M  V30 6 N 3.599908 1.682155 -2.720165 0
M  V30 7 C 2.275312 1.185456 -2.861739 0
M  V30 8 C 1.762079 0.689342 -1.661303 0
M  V30 9 C 0.488249 0.176494 -1.655121 0
M  V30 10 C -0.314000 0.121245 -2.759044 0
M  V30 11 C -1.661318 -0.361279 -2.993023 0
M  V30 12 N -1.997832 -1.434628 -3.772249 0
M  V30 13 N -3.303405 -1.586995 -3.766266 0
M  V30 14 C -3.930739 -2.670487 -4.527566 0
M  V30 15 C -4.072428 -3.935794 -3.704487 0
M  V30 16 C -3.887086 -0.644543 -3.000615 0
M  V30 17 C -2.853701 0.128176 -2.513221 0
M  V30 18 C -3.139068 1.253348 -1.640779 0
M  V30 19 C -3.704467 2.337275 -2.323468 0
M  V30 20 C -4.025145 3.461888 -1.580680 0
M  V30 21 N -3.813636 3.548608 -0.236647 0
M  V30 22 C -3.269590 2.509648 0.429120 0
M  V30 23 N -2.923739 2.239190 1.723779 0
M  V30 24 C -2.406320 1.008016 1.822964 0
M  V30 25 C -1.918670 0.342505 3.024300 0
M  V30 26 C -1.984960 0.956857 4.253833 0
M  V30 27 C -1.499980 0.284599 5.356312 0
M  V30 28 C -0.938992 -0.991115 5.314527 0
M  V30 29 C -0.877048 -1.604613 4.058352 0
M  V30 30 C -0.291864 -2.965302 3.934635 0
M  V30 31 N 1.140477 -2.932975 3.754972 0
M  V30 32 C 1.587716 -2.200087 2.611049 0
M  V30 33 C 1.676016 -4.272345 3.812919 0
M  V30 34 C -1.366590 -0.919024 2.967593 0
M  V30 35 C -2.421214 0.473334 0.554273 0
M  V30 36 C -2.952612 1.406197 -0.285942 0
M  V30 37 C 0.212055 0.623293 -3.962118 0
M  V30 38 C 1.501681 1.149646 -3.998234 0
M  V30 39 H 6.048649 -1.759883 -2.377085 0
M  V30 40 H 6.342478 -0.537084 -1.090808 0
M  V30 41 H 7.729122 -1.511866 -1.643702 0
M  V30 42 H 8.057840 0.467036 -2.837824 0
M  V30 43 H 6.969942 -0.427222 -4.047241 0
M  V30 44 H 6.267198 2.102755 -2.576485 0
M  V30 45 H 3.908036 2.659000 -2.479811 0
M  V30 46 H 2.278820 0.666169 -0.704062 0
M  V30 47 H 0.012606 -0.226731 -0.799239 0
M  V30 48 H -4.956397 -2.366381 -4.828307 0
M  V30 49 H -3.374860 -2.870412 -5.470119 0
M  V30 50 H -3.475950 -3.915874 -2.775022 0
M  V30 51 H -3.803383 -4.801217 -4.356515 0
M  V30 52 H -5.134524 -4.104143 -3.403904 0
M  V30 53 H -4.950784 -0.562499 -2.840383 0
M  V30 54 H -3.922226 2.400125 -3.374876 0
M  V30 55 H -4.465695 4.381480 -1.947355 0
M  V30 56 H -3.057746 2.923644 2.509777 0
M  V30 57 H -2.403360 1.945474 4.380975 0
M  V30 58 H -1.556970 0.781552 6.331174 0
M  V30 59 H -0.566209 -1.494364 6.197322 0
M  V30 60 H -0.712232 -3.464433 3.014006 0
M  V30 61 H -0.604178 -3.607345 4.767007 0
M  V30 62 H 1.613038 -2.808711 1.678381 0
M  V30 63 H 1.014141 -1.263887 2.469460 0
M  V30 64 H 2.644597 -1.838720 2.799270 0
M  V30 65 H 2.713765 -4.275423 3.408336 0
M  V30 66 H 1.011140 -4.962886 3.220267 0
M  V30 67 H 1.620470 -4.608664 4.859495 0
M  V30 68 H -1.318813 -1.401678 2.001395 0
M  V30 69 H -2.063211 -0.520316 0.328580 0
M  V30 70 H -0.255186 0.669364 -4.930092 0
M  V30 71 H 1.975733 1.550100 -4.867820 0
M  V30 END ATOM
M  V30 BEGIN BOND
M  V30 1 1 1 2
M  V30 2 1 2 3
M  V30 3 1 3 4
M  V30 4 2 4 5
M  V30 5 1 4 6
M  V30 6 1 6 7
M  V30 7 2 7 8
M  V30 8 1 8 9
M  V30 9 2 9 10
M  V30 10 1 10 11
M  V30 11 2 11 12
M  V30 12 1 12 13
M  V30 13 1 13 14
M  V30 14 1 14 15
M  V30 15 1 13 16
M  V30 16 2 16 17
M  V30 17 1 17 18
M  V30 18 2 18 19
M  V30 19 1 19 20
M  V30 20 2 20 21
M  V30 21 1 21 22
M  V30 22 1 22 23
M  V30 23 1 23 24
M  V30 24 1 24 25
M  V30 25 2 25 26
M  V30 26 1 26 27
M  V30 27 2 27 28
M  V30 28 1 28 29
M  V30 29 1 29 30
M  V30 30 1 30 31
M  V30 31 1 31 32
M  V30 32 1 31 33
M  V30 33 2 29 34
M  V30 34 2 24 35
M  V30 35 1 35 36
M  V30 36 1 10 37
M  V30 37 2 37 38
M  V30 38 1 38 7
M  V30 39 1 17 11
M  V30 40 1 36 18
M  V30 41 2 36 22
M  V30 42 1 34 25
M  V30 43 1 1 39
M  V30 44 1 1 40
M  V30 45 1 1 41
M  V30 46 1 2 42
M  V30 47 1 2 43
M  V30 48 1 3 44
M  V30 49 1 6 45
M  V30 50 1 8 46
M  V30 51 1 9 47
M  V30 52 1 14 48
M  V30 53 1 14 49
M  V30 54 1 15 50
M  V30 55 1 15 51
M  V30 56 1 15 52
M  V30 57 1 16 53
M  V30 58 1 19 54
M  V30 59 1 20 55
M  V30 60 1 23 56
M  V30 61 1 26 57
M  V30 62 1 27 58
M  V30 63 1 28 59
M  V30 64 1 30 60
M  V30 65 1 30 61
M  V30 66 1 32 62
M  V30 67 1 32 63
M  V30 68 1 32 64
M  V30 69 1 33 65
M  V30 70 1 33 66
M  V30 71 1 33 67
M  V30 72 1 34 68
M  V30 73 1 35 69
M  V30 74 1 37 70
M  V30 75 1 38 71
M  V30 END BOND
M  V30 END CTAB
M  END
>  <Dataset>  (495) 
ChEMBL_Kinases

>  <Ligand_Instance>  (495) 
nan

>  <PDB_ID>  (495) 
nan

>  <Standardized_SMILES>  (495) 
CCNC(=O)Nc1ccc(-c2nn(CC)cc2-c2ccnc3[nH]c(-c4cccc(CN(C)C)c4)cc23)cc1

>  <Name>  (495) 
nan

>  <Pocket>  (495) 
nan

>  <ATP_Site>  (495) 
nan

>  <Peripheral>  (495) 
nan

>  <Num_H_Atoms_ProtBoundConf>  (495) 
nan

>  <Num_Resolved_Atoms>  (495) 
nan

>  <Num_Not_Resolved_Atoms>  (495) 
nan

$$$$
CHEMBL1095149
     RDKit          3D

  0  0  0  0  0  0  0  0  0  0999 V3000
M  V30 BEGIN CTAB
M  V30 COUNTS 71 75 0 0 0
M  V30 BEGIN ATOM
M  V30 1 C 2.186830 -1.578142 7.062798 0
M  V30 2 C 2.052440 -3.036017 6.645942 0
M  V30 3 N 1.764165 -3.045461 5.225071 0
M  V30 4 C 2.663656 -3.087528 4.209367 0
M  V30 5 C 1.941776 -3.080182 3.010539 0
M  V30 6 C 2.649145 -3.119413 1.759241 0
M  V30 7 C 3.433677 -4.239177 1.530119 0
M  V30 8 C 4.171419 -4.406235 0.360303 0
M  V30 9 N 4.081106 -3.401948 -0.556357 0
M  V30 10 C 3.323911 -2.307306 -0.350135 0
M  V30 11 N 3.089090 -1.199403 -1.114132 0
M  V30 12 C 2.247705 -0.391459 -0.444875 0
M  V30 13 C 1.781279 0.890620 -0.972284 0
M  V30 14 C 2.222614 1.297119 -2.222641 0
M  V30 15 C 1.809012 2.515042 -2.776753 0
M  V30 16 C 0.946589 3.317434 -2.057083 0
M  V30 17 C 0.508531 4.614391 -2.651429 0
M  V30 18 N -0.683221 4.465853 -3.424566 0
M  V30 19 C -1.005720 5.783028 -3.946541 0
M  V30 20 C -1.803467 3.974624 -2.642090 0
M  V30 21 C 0.503238 2.908871 -0.800820 0
M  V30 22 C 0.918905 1.703929 -0.264559 0
M  V30 23 C 1.897012 -0.930206 0.777201 0
M  V30 24 C 2.586748 -2.125254 0.802535 0
M  V30 25 C 0.624320 -3.033023 3.392254 0
M  V30 26 C -0.432002 -3.011876 2.400541 0
M  V30 27 C -1.302415 -1.939488 2.336559 0
M  V30 28 C -2.293993 -1.942509 1.388773 0
M  V30 29 C -2.510264 -2.937864 0.471347 0
M  V30 30 N -3.502835 -2.983731 -0.507516 0
M  V30 31 C -4.510502 -2.046012 -0.796649 0
M  V30 32 O -4.605029 -0.998915 -0.137148 0
M  V30 33 N -5.498094 -2.148095 -1.811028 0
M  V30 34 C -6.282141 -0.922201 -1.679905 0
M  V30 35 C -5.885745 -3.074066 -2.844111 0
M  V30 36 C -1.627727 -3.988592 0.562336 0
M  V30 37 C -0.615646 -4.034120 1.495012 0
M  V30 38 N 0.541567 -3.012893 4.727579 0
M  V30 39 H 1.205204 -1.089536 6.869530 0
M  V30 40 H 3.011416 -1.125106 6.450418 0
M  V30 41 H 2.478877 -1.536060 8.125371 0
M  V30 42 H 3.020245 -3.545816 6.766343 0
M  V30 43 H 1.238982 -3.522828 7.184762 0
M  V30 44 H 3.724215 -3.118629 4.414733 0
M  V30 45 H 3.515989 -5.045927 2.249233 0
M  V30 46 H 4.786875 -5.262523 0.157108 0
M  V30 47 H 3.529382 -1.074281 -2.054586 0
M  V30 48 H 2.898531 0.705447 -2.826973 0
M  V30 49 H 2.173329 2.806236 -3.760733 0
M  V30 50 H 0.266960 5.367486 -1.861347 0
M  V30 51 H 1.297092 5.036996 -3.284291 0
M  V30 52 H -0.808885 6.580785 -3.178323 0
M  V30 53 H -2.112406 5.810676 -4.135907 0
M  V30 54 H -0.457495 6.037645 -4.866584 0
M  V30 55 H -1.607653 2.907839 -2.408720 0
M  V30 56 H -1.968941 4.580398 -1.730382 0
M  V30 57 H -2.752055 4.007629 -3.214628 0
M  V30 58 H -0.169870 3.530143 -0.234079 0
M  V30 59 H 0.613238 1.328459 0.702025 0
M  V30 60 H 1.250025 -0.547193 1.548606 0
M  V30 61 H -1.160912 -1.134760 3.046547 0
M  V30 62 H -2.924929 -1.086426 1.398726 0
M  V30 63 H -3.576216 -3.796349 -1.159167 0
M  V30 64 H -5.629836 -0.087411 -1.959780 0
M  V30 65 H -7.137431 -0.890180 -2.398153 0
M  V30 66 H -6.735643 -0.825356 -0.672764 0
M  V30 67 H -6.943137 -3.357985 -2.667536 0
M  V30 68 H -5.191974 -3.918974 -2.887573 0
M  V30 69 H -5.874688 -2.593075 -3.854883 0
M  V30 70 H -1.731666 -4.829204 -0.137394 0
M  V30 71 H 0.024718 -4.891348 1.493109 0
M  V30 END ATOM
M  V30 BEGIN BOND
M  V30 1 1 1 2
M  V30 2 1 2 3
M  V30 3 1 3 4
M  V30 4 2 4 5
M  V30 5 1 5 6
M  V30 6 2 6 7
M  V30 7 1 7 8
M  V30 8 2 8 9
M  V30 9 1 9 10
M  V30 10 1 10 11
M  V30 11 1 11 12
M  V30 12 1 12 13
M  V30 13 2 13 14
M  V30 14 1 14 15
M  V30 15 2 15 16
M  V30 16 1 16 17
M  V30 17 1 17 18
M  V30 18 1 18 19
M  V30 19 1 18 20
M  V30 20 1 16 21
M  V30 21 2 21 22
M  V30 22 2 12 23
M  V30 23 1 23 24
M  V30 24 1 5 25
M  V30 25 1 25 26
M  V30 26 2 26 27
M  V30 27 1 27 28
M  V30 28 2 28 29
M  V30 29 1 29 30
M  V30 30 1 30 31
M  V30 31 2 31 32
M  V30 32 1 31 33
M  V30 33 1 33 34
M  V30 34 1 33 35
M  V30 35 1 29 36
M  V30 36 2 36 37
M  V30 37 2 25 38
M  V30 38 1 38 3
M  V30 39 1 24 6
M  V30 40 1 37 26
M  V30 41 2 24 10
M  V30 42 1 22 13
M  V30 43 1 1 39
M  V30 44 1 1 40
M  V30 45 1 1 41
M  V30 46 1 2 42
M  V30 47 1 2 43
M  V30 48 1 4 44
M  V30 49 1 7 45
M  V30 50 1 8 46
M  V30 51 1 11 47
M  V30 52 1 14 48
M  V30 53 1 15 49
M  V30 54 1 17 50
M  V30 55 1 17 51
M  V30 56 1 19 52
M  V30 57 1 19 53
M  V30 58 1 19 54
M  V30 59 1 20 55
M  V30 60 1 20 56
M  V30 61 1 20 57
M  V30 62 1 21 58
M  V30 63 1 22 59
M  V30 64 1 23 60
M  V30 65 1 27 61
M  V30 66 1 28 62
M  V30 67 1 30 63
M  V30 68 1 34 64
M  V30 69 1 34 65
M  V30 70 1 34 66
M  V30 71 1 35 67
M  V30 72 1 35 68
M  V30 73 1 35 69
M  V30 74 1 36 70
M  V30 75 1 37 71
M  V30 END BOND
M  V30 END CTAB
M  END
>  <Dataset>  (496) 
ChEMBL_Kinases

>  <Ligand_Instance>  (496) 
nan

>  <PDB_ID>  (496) 
nan

>  <Standardized_SMILES>  (496) 
CCn1cc(-c2ccnc3[nH]c(-c4ccc(CN(C)C)cc4)cc23)c(-c2ccc(NC(=O)N(C)C)cc2)n1

>  <Name>  (496) 
nan

>  <Pocket>  (496) 
nan

>  <ATP_Site>  (496) 
nan

>  <Peripheral>  (496) 
nan

>  <Num_H_Atoms_ProtBoundConf>  (496) 
nan

>  <Num_Resolved_Atoms>  (496) 
nan

>  <Num_Not_Resolved_Atoms>  (496) 
nan

$$$$
CHEMBL582966
     RDKit          3D

  0  0  0  0  0  0  0  0  0  0999 V3000
M  V30 BEGIN CTAB
M  V30 COUNTS 23 25 0 0 0
M  V30 BEGIN ATOM
M  V30 1 C 0.190462 -3.266696 2.694633 0
M  V30 2 C 0.463441 -1.791842 2.541345 0
M  V30 3 N 0.235764 -1.297707 1.327800 0
M  V30 4 C 0.420785 -0.008607 0.998684 0
M  V30 5 C 0.885991 0.703315 2.138924 0
M  V30 6 S 1.085279 2.457517 1.499864 0
M  V30 7 C 0.552346 2.059005 -0.130868 0
M  V30 8 C 0.431497 2.885800 -1.214202 0
M  V30 9 C -0.004666 2.409430 -2.431892 0
M  V30 10 C -0.288762 1.061759 -2.417960 0
M  V30 11 Cl -0.853613 0.412614 -3.969772 0
M  V30 12 C -0.173131 0.218180 -1.340585 0
M  V30 13 C 0.265063 0.724857 -0.139060 0
M  V30 14 C 1.134671 0.223075 3.418126 0
M  V30 15 O 1.539087 1.014909 4.274808 0
M  V30 16 N 0.903387 -1.086759 3.594914 0
M  V30 17 H -0.874014 -3.489938 2.828656 0
M  V30 18 H 0.839023 -3.619964 3.518303 0
M  V30 19 H 0.553575 -3.767311 1.784375 0
M  V30 20 H 0.689671 3.926631 -1.083832 0
M  V30 21 H -0.110909 3.022059 -3.295427 0
M  V30 22 H -0.444331 -0.826764 -1.515227 0
M  V30 23 H 1.074029 -1.486721 4.527507 0
M  V30 END ATOM
M  V30 BEGIN BOND
M  V30 1 1 1 2
M  V30 2 2 2 3
M  V30 3 1 3 4
M  V30 4 2 4 5
M  V30 5 1 5 6
M  V30 6 1 6 7
M  V30 7 2 7 8
M  V30 8 1 8 9
M  V30 9 2 9 10
M  V30 10 1 10 11
M  V30 11 1 10 12
M  V30 12 2 12 13
M  V30 13 1 5 14
M  V30 14 2 14 15
M  V30 15 1 14 16
M  V30 16 1 16 2
M  V30 17 1 13 4
M  V30 18 1 13 7
M  V30 19 1 1 17
M  V30 20 1 1 18
M  V30 21 1 1 19
M  V30 22 1 8 20
M  V30 23 1 9 21
M  V30 24 1 12 22
M  V30 25 1 16 23
M  V30 END BOND
M  V30 END CTAB
M  END
>  <Dataset>  (497) 
ChEMBL_Kinases

>  <Ligand_Instance>  (497) 
nan

>  <PDB_ID>  (497) 
nan

>  <Standardized_SMILES>  (497) 
Cc1nc2c(sc3ccc(Cl)cc32)c(=O)[nH]1

>  <Name>  (497) 
nan

>  <Pocket>  (497) 
nan

>  <ATP_Site>  (497) 
nan

>  <Peripheral>  (497) 
nan

>  <Num_H_Atoms_ProtBoundConf>  (497) 
nan

>  <Num_Resolved_Atoms>  (497) 
nan

>  <Num_Not_Resolved_Atoms>  (497) 
nan

$$$$
CHEMBL1099349
     RDKit          3D

  0  0  0  0  0  0  0  0  0  0999 V3000
M  V30 BEGIN CTAB
M  V30 COUNTS 79 85 0 0 0
M  V30 BEGIN ATOM
M  V30 1 C -3.970588 -6.980640 -1.866151 0
M  V30 2 C -4.132467 -5.499076 -2.046615 0
M  V30 3 N -2.893665 -4.766215 -1.962198 0
M  V30 4 C -2.363111 -4.249690 -0.823484 0
M  V30 5 C -1.166601 -3.625115 -1.196397 0
M  V30 6 C -0.364866 -2.974683 -0.168423 0
M  V30 7 C 0.890040 -3.548341 0.011069 0
M  V30 8 C 1.721756 -2.994420 0.969241 0
M  V30 9 N 1.377616 -1.933124 1.731887 0
M  V30 10 C 0.159131 -1.393872 1.541504 0
M  V30 11 N -0.479508 -0.360141 2.115547 0
M  V30 12 C -1.717062 -0.211588 1.563264 0
M  V30 13 C -2.734667 0.804299 1.910914 0
M  V30 14 C -3.961717 0.833253 1.255089 0
M  V30 15 C -4.847626 1.818724 1.647904 0
M  V30 16 C -4.580713 2.746460 2.629533 0
M  V30 17 C -3.340183 2.685982 3.264542 0
M  V30 18 C -3.074192 3.696839 4.320071 0
M  V30 19 N -3.499034 3.225578 5.626625 0
M  V30 20 C -2.817233 2.013666 6.018387 0
M  V30 21 C -3.303259 1.874108 7.465876 0
M  V30 22 C -3.155763 3.310349 7.954178 0
M  V30 23 C -3.077884 4.139372 6.667997 0
M  V30 24 C -2.401192 1.713324 2.912647 0
M  V30 25 C -1.911700 -1.188798 0.578336 0
M  V30 26 C -0.724080 -1.890876 0.606134 0
M  V30 27 C -1.038530 -3.804803 -2.578883 0
M  V30 28 C 0.135249 -3.243993 -3.236398 0
M  V30 29 C 0.255404 -1.869977 -3.192941 0
M  V30 30 C 1.356534 -1.258982 -3.802100 0
M  V30 31 C 2.322222 -2.042403 -4.447200 0
M  V30 32 N 3.344161 -1.254189 -4.994017 0
M  V30 33 C 4.593765 -0.794270 -4.441426 0
M  V30 34 O 4.862759 -1.126294 -3.280690 0
M  V30 35 N 5.459014 0.002297 -5.214541 0
M  V30 36 C 6.643090 0.349957 -4.478679 0
M  V30 37 C 7.837076 -0.292444 -4.386421 0
M  V30 38 C 8.827786 0.269643 -3.592736 0
M  V30 39 C 8.630394 1.455078 -2.901260 0
M  V30 40 C 7.421990 2.103256 -2.996010 0
M  V30 41 C 6.422953 1.548086 -3.788793 0
M  V30 42 C 2.177848 -3.394298 -4.474258 0
M  V30 43 C 1.094475 -4.001886 -3.875578 0
M  V30 44 N -2.107006 -4.502298 -3.006452 0
M  V30 45 H -4.781852 -7.538041 -2.398709 0
M  V30 46 H -4.068821 -7.267838 -0.787493 0
M  V30 47 H -2.984323 -7.352851 -2.233717 0
M  V30 48 H -4.598593 -5.331458 -3.052464 0
M  V30 49 H -4.880602 -5.114231 -1.305196 0
M  V30 50 H -2.840437 -4.348623 0.143121 0
M  V30 51 H 1.270731 -4.403484 -0.546340 0
M  V30 52 H 2.708128 -3.437873 1.117564 0
M  V30 53 H -0.100284 0.251401 2.874002 0
M  V30 54 H -4.176816 0.105209 0.481296 0
M  V30 55 H -5.805277 1.822511 1.118818 0
M  V30 56 H -5.325553 3.493482 2.886719 0
M  V30 57 H -3.606561 4.614831 4.073935 0
M  V30 58 H -1.977242 3.900330 4.391741 0
M  V30 59 H -1.728327 2.224628 6.052465 0
M  V30 60 H -3.092595 1.128086 5.421083 0
M  V30 61 H -4.389366 1.587345 7.430376 0
M  V30 62 H -2.712746 1.168915 8.050280 0
M  V30 63 H -4.023803 3.609616 8.575052 0
M  V30 64 H -2.208086 3.355035 8.530827 0
M  V30 65 H -3.686791 5.044371 6.713265 0
M  V30 66 H -1.992470 4.344207 6.481726 0
M  V30 67 H -1.446607 1.686639 3.419496 0
M  V30 68 H -2.771352 -1.360210 -0.051713 0
M  V30 69 H -0.497864 -1.255283 -2.689751 0
M  V30 70 H 1.374225 -0.159628 -3.720385 0
M  V30 71 H 3.150221 -0.948225 -5.993414 0
M  V30 72 H 5.190572 0.266560 -6.209658 0
M  V30 73 H 7.878187 -1.186423 -4.954511 0
M  V30 74 H 9.765698 -0.286305 -3.553457 0
M  V30 75 H 9.436142 1.858214 -2.291186 0
M  V30 76 H 7.310164 3.024343 -2.440054 0
M  V30 77 H 5.516977 2.156011 -3.779804 0
M  V30 78 H 2.958820 -3.937990 -4.988247 0
M  V30 79 H 0.986341 -5.077407 -3.900956 0
M  V30 END ATOM
M  V30 BEGIN BOND
M  V30 1 1 1 2
M  V30 2 1 2 3
M  V30 3 1 3 4
M  V30 4 2 4 5
M  V30 5 1 5 6
M  V30 6 2 6 7
M  V30 7 1 7 8
M  V30 8 2 8 9
M  V30 9 1 9 10
M  V30 10 1 10 11
M  V30 11 1 11 12
M  V30 12 1 12 13
M  V30 13 2 13 14
M  V30 14 1 14 15
M  V30 15 2 15 16
M  V30 16 1 16 17
M  V30 17 1 17 18
M  V30 18 1 18 19
M  V30 19 1 19 20
M  V30 20 1 20 21
M  V30 21 1 21 22
M  V30 22 1 22 23
M  V30 23 2 17 24
M  V30 24 2 12 25
M  V30 25 1 25 26
M  V30 26 1 5 27
M  V30 27 1 27 28
M  V30 28 2 28 29
M  V30 29 1 29 30
M  V30 30 2 30 31
M  V30 31 1 31 32
M  V30 32 1 32 33
M  V30 33 2 33 34
M  V30 34 1 33 35
M  V30 35 1 35 36
M  V30 36 2 36 37
M  V30 37 1 37 38
M  V30 38 2 38 39
M  V30 39 1 39 40
M  V30 40 2 40 41
M  V30 41 1 31 42
M  V30 42 2 42 43
M  V30 43 2 27 44
M  V30 44 1 44 3
M  V30 45 1 26 6
M  V30 46 1 43 28
M  V30 47 2 26 10
M  V30 48 1 41 36
M  V30 49 1 24 13
M  V30 50 1 23 19
M  V30 51 1 1 45
M  V30 52 1 1 46
M  V30 53 1 1 47
M  V30 54 1 2 48
M  V30 55 1 2 49
M  V30 56 1 4 50
M  V30 57 1 7 51
M  V30 58 1 8 52
M  V30 59 1 11 53
M  V30 60 1 14 54
M  V30 61 1 15 55
M  V30 62 1 16 56
M  V30 63 1 18 57
M  V30 64 1 18 58
M  V30 65 1 20 59
M  V30 66 1 20 60
M  V30 67 1 21 61
M  V30 68 1 21 62
M  V30 69 1 22 63
M  V30 70 1 22 64
M  V30 71 1 23 65
M  V30 72 1 23 66
M  V30 73 1 24 67
M  V30 74 1 25 68
M  V30 75 1 29 69
M  V30 76 1 30 70
M  V30 77 1 32 71
M  V30 78 1 35 72
M  V30 79 1 37 73
M  V30 80 1 38 74
M  V30 81 1 39 75
M  V30 82 1 40 76
M  V30 83 1 41 77
M  V30 84 1 42 78
M  V30 85 1 43 79
M  V30 END BOND
M  V30 END CTAB
M  END
>  <Dataset>  (498) 
ChEMBL_Kinases

>  <Ligand_Instance>  (498) 
nan

>  <PDB_ID>  (498) 
nan

>  <Standardized_SMILES>  (498) 
CCn1cc(-c2ccnc3[nH]c(-c4cccc(CN5CCCC5)c4)cc23)c(-c2ccc(NC(=O)Nc3ccccc3)cc2)n1

>  <Name>  (498) 
nan

>  <Pocket>  (498) 
nan

>  <ATP_Site>  (498) 
nan

>  <Peripheral>  (498) 
nan

>  <Num_H_Atoms_ProtBoundConf>  (498) 
nan

>  <Num_Resolved_Atoms>  (498) 
nan

>  <Num_Not_Resolved_Atoms>  (498) 
nan

$$$$
CHEMBL106384
     RDKit          3D

  0  0  0  0  0  0  0  0  0  0999 V3000
M  V30 BEGIN CTAB
M  V30 COUNTS 71 76 0 0 0
M  V30 BEGIN ATOM
M  V30 1 C 0.501938 -1.517327 3.051242 0
M  V30 2 N 1.478604 -2.256039 2.231388 0
M  V30 3 C 2.813254 -1.761772 2.607636 0
M  V30 4 C 3.068859 -0.387901 2.079354 0
M  V30 5 O 2.172010 0.584220 2.410739 0
M  V30 6 C 2.571899 1.770765 1.809244 0
M  V30 7 C 1.545754 2.867029 1.979660 0
M  V30 8 N 0.299395 2.507164 1.293506 0
M  V30 9 C -0.605759 1.650491 1.765535 0
M  V30 10 C -1.629290 1.550737 0.854566 0
M  V30 11 C -1.262120 2.408799 -0.181603 0
M  V30 12 C -1.895123 2.740735 -1.377483 0
M  V30 13 C -1.349391 3.645269 -2.288522 0
M  V30 14 C -0.145316 4.237183 -2.007840 0
M  V30 15 C 0.489703 3.916242 -0.826988 0
M  V30 16 C -0.042240 3.024866 0.076377 0
M  V30 17 C -2.867955 0.782409 0.839564 0
M  V30 18 C -3.304725 -0.394988 0.497459 0
M  V30 19 C -4.758167 -0.467076 0.787332 0
M  V30 20 O -5.578186 -1.424531 0.611917 0
M  V30 21 N -5.228039 0.753362 1.340049 0
M  V30 22 C -4.021346 1.549676 1.371950 0
M  V30 23 O -4.136261 2.738552 1.834020 0
M  V30 24 C -2.609089 -1.512854 -0.094273 0
M  V30 25 C -1.720837 -1.400688 -1.174246 0
M  V30 26 N -1.223761 -2.638448 -1.507629 0
M  V30 27 C -1.768330 -3.535360 -0.675666 0
M  V30 28 C -1.497708 -4.884672 -0.724769 0
M  V30 29 C -2.163079 -5.665937 0.219196 0
M  V30 30 C -3.026797 -5.067018 1.120718 0
M  V30 31 C -3.247140 -3.684959 1.104478 0
M  V30 32 C -2.610167 -2.875393 0.188366 0
M  V30 33 C -0.310901 -2.447383 -2.621183 0
M  V30 34 C 0.867332 -1.623645 -2.281642 0
M  V30 35 N 1.912752 -2.079519 -1.488337 0
M  V30 36 C 2.659498 -3.083698 -2.323043 0
M  V30 37 C 1.762338 -2.662043 -0.209521 0
M  V30 38 C 1.209288 -1.815148 0.850035 0
M  V30 39 H -0.016095 -2.340212 3.644909 0
M  V30 40 H -0.275253 -1.134543 2.387764 0
M  V30 41 H 0.923253 -0.768744 3.699371 0
M  V30 42 H 2.829072 -1.746666 3.700545 0
M  V30 43 H 3.566645 -2.453333 2.242198 0
M  V30 44 H 4.064650 -0.017128 2.492872 0
M  V30 45 H 3.239155 -0.376679 0.989057 0
M  V30 46 H 3.485993 2.113921 2.339925 0
M  V30 47 H 2.875260 1.644005 0.753251 0
M  V30 48 H 1.304730 2.991986 3.053849 0
M  V30 49 H 1.979791 3.805987 1.621381 0
M  V30 50 H -0.443181 1.189198 2.726599 0
M  V30 51 H -2.837573 2.343821 -1.698317 0
M  V30 52 H -1.824480 3.913823 -3.219331 0
M  V30 53 H 0.292376 4.946738 -2.714977 0
M  V30 54 H 1.455557 4.377887 -0.581989 0
M  V30 55 H -6.191111 0.995305 1.637667 0
M  V30 56 H -1.571504 -0.380181 -1.566701 0
M  V30 57 H -0.827069 -5.337159 -1.425680 0
M  V30 58 H -1.985831 -6.746194 0.228578 0
M  V30 59 H -3.522465 -5.721251 1.836866 0
M  V30 60 H -3.924119 -3.237234 1.820300 0
M  V30 61 H -0.065122 -3.461012 -3.007157 0
M  V30 62 H -0.887652 -1.965905 -3.442601 0
M  V30 63 H 1.349020 -1.302746 -3.277084 0
M  V30 64 H 0.447976 -0.621665 -1.941234 0
M  V30 65 H 3.312577 -3.633594 -1.622216 0
M  V30 66 H 3.280934 -2.528524 -3.027564 0
M  V30 67 H 1.972902 -3.767732 -2.819036 0
M  V30 68 H 2.755983 -3.126484 0.051034 0
M  V30 69 H 1.130327 -3.603417 -0.381472 0
M  V30 70 H 1.314939 -0.745293 0.801989 0
M  V30 71 H 0.076688 -1.977505 0.825219 0
M  V30 END ATOM
M  V30 BEGIN BOND
M  V30 1 1 1 2
M  V30 2 1 2 3
M  V30 3 1 3 4
M  V30 4 1 4 5
M  V30 5 1 5 6
M  V30 6 1 6 7
M  V30 7 1 7 8
M  V30 8 1 8 9
M  V30 9 2 9 10
M  V30 10 1 10 11
M  V30 11 2 11 12
M  V30 12 1 12 13
M  V30 13 2 13 14
M  V30 14 1 14 15
M  V30 15 2 15 16
M  V30 16 1 10 17
M  V30 17 2 17 18
M  V30 18 1 18 19
M  V30 19 2 19 20
M  V30 20 1 19 21
M  V30 21 1 21 22
M  V30 22 2 22 23
M  V30 23 1 18 24
M  V30 24 2 24 25
M  V30 25 1 25 26
M  V30 26 1 26 27
M  V30 27 2 27 28
M  V30 28 1 28 29
M  V30 29 2 29 30
M  V30 30 1 30 31
M  V30 31 2 31 32
M  V30 32 1 26 33
M  V30 33 1 33 34
M  V30 34 1 34 35
M  V30 35 1 35 36
M  V30 36 1 35 37
M  V30 37 1 37 38
M  V30 38 1 38 2
M  V30 39 1 16 8
M  V30 40 1 22 17
M  V30 41 1 32 24
M  V30 42 1 16 11
M  V30 43 1 32 27
M  V30 44 1 1 39
M  V30 45 1 1 40
M  V30 46 1 1 41
M  V30 47 1 3 42
M  V30 48 1 3 43
M  V30 49 1 4 44
M  V30 50 1 4 45
M  V30 51 1 6 46
M  V30 52 1 6 47
M  V30 53 1 7 48
M  V30 54 1 7 49
M  V30 55 1 9 50
M  V30 56 1 12 51
M  V30 57 1 13 52
M  V30 58 1 14 53
M  V30 59 1 15 54
M  V30 60 1 21 55
M  V30 61 1 25 56
M  V30 62 1 28 57
M  V30 63 1 29 58
M  V30 64 1 30 59
M  V30 65 1 31 60
M  V30 66 1 33 61
M  V30 67 1 33 62
M  V30 68 1 34 63
M  V30 69 1 34 64
M  V30 70 1 36 65
M  V30 71 1 36 66
M  V30 72 1 36 67
M  V30 73 1 37 68
M  V30 74 1 37 69
M  V30 75 1 38 70
M  V30 76 1 38 71
M  V30 END BOND
M  V30 END CTAB
M  END
>  <Dataset>  (499) 
ChEMBL_Kinases

>  <Ligand_Instance>  (499) 
nan

>  <PDB_ID>  (499) 
nan

>  <Standardized_SMILES>  (499) 
CN1CCOCCn2cc(c3ccccc32)C2=C(C(=O)NC2=O)c2cn(c3ccccc23)CCN(C)CC1

>  <Name>  (499) 
nan

>  <Pocket>  (499) 
nan

>  <ATP_Site>  (499) 
nan

>  <Peripheral>  (499) 
nan

>  <Num_H_Atoms_ProtBoundConf>  (499) 
nan

>  <Num_Resolved_Atoms>  (499) 
nan

>  <Num_Not_Resolved_Atoms>  (499) 
nan

$$$$
CHEMBL2079522
     RDKit          3D

  0  0  0  0  0  0  0  0  0  0999 V3000
M  V30 BEGIN CTAB
M  V30 COUNTS 49 53 0 0 0
M  V30 BEGIN ATOM
M  V30 1 N 1.047895 -7.124819 2.777714 0
M  V30 2 C 0.092787 -6.380100 2.021877 0
M  V30 3 C -1.071668 -6.981415 1.599012 0
M  V30 4 C -1.975755 -6.210428 0.861471 0
M  V30 5 C -1.628284 -4.895052 0.612046 0
M  V30 6 O -2.304863 -3.980654 -0.051388 0
M  V30 7 C -1.681353 -2.836398 -0.096939 0
M  V30 8 C -2.101230 -1.587624 -0.734009 0
M  V30 9 C -1.299552 -0.484516 -0.671595 0
M  V30 10 C -1.613721 0.750867 -1.248490 0
M  V30 11 C -0.652849 1.842944 -1.097922 0
M  V30 12 C -0.364464 2.906050 -1.944119 0
M  V30 13 N 0.605263 3.629649 -1.334410 0
M  V30 14 N 0.929009 3.091671 -0.186231 0
M  V30 15 C 1.900844 3.481127 0.830959 0
M  V30 16 C 1.199206 3.553581 2.161510 0
M  V30 17 C 1.716385 2.547541 3.147753 0
M  V30 18 N 3.135534 2.707862 3.254854 0
M  V30 19 C 3.847124 2.447617 2.041643 0
M  V30 20 C 3.026253 2.480610 0.796377 0
M  V30 21 C 0.182786 1.980947 0.015946 0
M  V30 22 C -2.820876 0.812800 -1.913289 0
M  V30 23 N -3.625326 -0.263468 -1.986067 0
M  V30 24 C -3.294613 -1.455851 -1.414500 0
M  V30 25 N -4.166044 -2.578111 -1.507674 0
M  V30 26 N -0.511256 -3.017723 0.587560 0
M  V30 27 C -0.462376 -4.286688 1.033238 0
M  V30 28 C 0.426373 -5.066085 1.765427 0
M  V30 29 H 1.900096 -7.710826 2.764247 0
M  V30 30 H 0.638398 -6.952081 3.740422 0
M  V30 31 H -1.301540 -8.002326 1.813798 0
M  V30 32 H -2.906059 -6.597186 0.492991 0
M  V30 33 H -0.364165 -0.570970 -0.143850 0
M  V30 34 H -0.851195 3.075288 -2.895092 0
M  V30 35 H 2.320914 4.468029 0.521283 0
M  V30 36 H 0.105703 3.422932 2.054054 0
M  V30 37 H 1.434021 4.562927 2.596319 0
M  V30 38 H 1.281370 2.796146 4.146605 0
M  V30 39 H 1.470444 1.501679 2.888372 0
M  V30 40 H 3.416209 3.545047 3.781556 0
M  V30 41 H 4.290595 1.415657 2.161169 0
M  V30 42 H 4.739680 3.127096 2.025163 0
M  V30 43 H 2.694001 1.456614 0.521048 0
M  V30 44 H 3.711736 2.788467 -0.045185 0
M  V30 45 H 0.185868 1.282219 0.867083 0
M  V30 46 H -3.068694 1.771449 -2.363404 0
M  V30 47 H -4.400587 -3.144627 -0.664965 0
M  V30 48 H -4.577684 -2.839686 -2.430922 0
M  V30 49 H 1.338561 -4.587632 2.094153 0
M  V30 END ATOM
M  V30 BEGIN BOND
M  V30 1 1 1 2
M  V30 2 2 2 3
M  V30 3 1 3 4
M  V30 4 2 4 5
M  V30 5 1 5 6
M  V30 6 1 6 7
M  V30 7 1 7 8
M  V30 8 2 8 9
M  V30 9 1 9 10
M  V30 10 1 10 11
M  V30 11 1 11 12
M  V30 12 2 12 13
M  V30 13 1 13 14
M  V30 14 1 14 15
M  V30 15 1 15 16
M  V30 16 1 16 17
M  V30 17 1 17 18
M  V30 18 1 18 19
M  V30 19 1 19 20
M  V30 20 1 14 21
M  V30 21 2 10 22
M  V30 22 1 22 23
M  V30 23 2 23 24
M  V30 24 1 24 25
M  V30 25 2 7 26
M  V30 26 1 26 27
M  V30 27 2 27 28
M  V30 28 1 28 2
M  V30 29 1 27 5
M  V30 30 1 24 8
M  V30 31 2 21 11
M  V30 32 1 20 15
M  V30 33 1 1 29
M  V30 34 1 1 30
M  V30 35 1 3 31
M  V30 36 1 4 32
M  V30 37 1 9 33
M  V30 38 1 12 34
M  V30 39 1 15 35
M  V30 40 1 16 36
M  V30 41 1 16 37
M  V30 42 1 17 38
M  V30 43 1 17 39
M  V30 44 1 18 40
M  V30 45 1 19 41
M  V30 46 1 19 42
M  V30 47 1 20 43
M  V30 48 1 20 44
M  V30 49 1 21 45
M  V30 50 1 22 46
M  V30 51 1 25 47
M  V30 52 1 25 48
M  V30 53 1 28 49
M  V30 END BOND
M  V30 END CTAB
M  END
>  <Dataset>  (500) 
ChEMBL_Kinases

>  <Ligand_Instance>  (500) 
nan

>  <PDB_ID>  (500) 
nan

>  <Standardized_SMILES>  (500) 
Nc1ccc2oc(-c3cc(-c4cnn(C5CCNCC5)c4)cnc3N)nc2c1

>  <Name>  (500) 
nan

>  <Pocket>  (500) 
nan

>  <ATP_Site>  (500) 
nan

>  <Peripheral>  (500) 
nan

>  <Num_H_Atoms_ProtBoundConf>  (500) 
nan

>  <Num_Resolved_Atoms>  (500) 
nan

>  <Num_Not_Resolved_Atoms>  (500) 
nan

$$$$
CHEMBL2088579
     RDKit          3D

  0  0  0  0  0  0  0  0  0  0999 V3000
M  V30 BEGIN CTAB
M  V30 COUNTS 55 58 0 0 0
M  V30 BEGIN ATOM
M  V30 1 C 2.760104 -1.584663 4.338546 0
M  V30 2 C 2.354682 -1.589071 3.081583 0
M  V30 3 C 2.315389 -0.338138 2.365785 0
M  V30 4 C 2.707851 0.794394 3.047281 0
M  V30 5 C 2.665647 2.002915 2.342186 0
M  V30 6 C 2.246446 2.026657 1.028420 0
M  V30 7 C 2.225465 3.317625 0.349695 0
M  V30 8 O 2.584320 4.347747 0.976041 0
M  V30 9 N 1.832727 3.539146 -0.976844 0
M  V30 10 C 1.840754 4.834475 -1.567582 0
M  V30 11 C 0.959261 5.850585 -0.888111 0
M  V30 12 C -0.485097 5.456612 -0.867898 0
M  V30 13 C 1.862661 0.874629 0.383141 0
M  V30 14 C 1.894521 -0.329887 1.054221 0
M  V30 15 C 1.500272 -1.614877 0.439645 0
M  V30 16 C 2.400402 -2.429975 -0.223382 0
M  V30 17 O 3.604719 -2.062448 -0.306923 0
M  V30 18 C 1.987857 -3.624788 -0.783841 0
M  V30 19 C 0.648083 -4.009691 -0.677684 0
M  V30 20 N -0.238334 -3.218730 -0.031215 0
M  V30 21 N -1.505407 -3.581356 0.069928 0
M  V30 22 C -2.414326 -2.797014 0.718049 0
M  V30 23 O -3.759359 -3.110087 0.865014 0
M  V30 24 C -4.282857 -4.284929 0.342012 0
M  V30 25 C -5.293284 -4.311781 -0.598045 0
M  V30 26 C -5.765362 -5.519388 -1.074242 0
M  V30 27 C -5.203782 -6.705604 -0.588951 0
M  V30 28 F -5.644599 -7.920045 -1.036292 0
M  V30 29 C -4.198666 -6.659263 0.346774 0
M  V30 30 C -3.707784 -5.452392 0.840415 0
M  V30 31 F -2.715591 -5.478994 1.761845 0
M  V30 32 C -2.019991 -1.598348 1.284916 0
M  V30 33 C -0.694995 -1.220197 1.178579 0
M  V30 34 C 0.195168 -2.054299 0.507504 0
M  V30 35 H 3.107128 -0.902792 5.092583 0
M  V30 36 H 2.851499 -2.416225 5.016867 0
M  V30 37 H 2.095002 -2.574239 2.742886 0
M  V30 38 H 3.043249 0.854625 4.060680 0
M  V30 39 H 2.971837 2.928046 2.854091 0
M  V30 40 H 1.521574 2.700522 -1.545640 0
M  V30 41 H 1.583684 4.770655 -2.648250 0
M  V30 42 H 2.891980 5.226745 -1.459575 0
M  V30 43 H 1.030316 6.778355 -1.521389 0
M  V30 44 H 1.382508 6.142605 0.082973 0
M  V30 45 H -0.899215 5.661327 0.140814 0
M  V30 46 H -0.648115 4.396306 -1.167686 0
M  V30 47 H -1.105959 6.054887 -1.580098 0
M  V30 48 H 1.531680 0.871618 -0.643838 0
M  V30 49 H 2.724557 -4.241162 -1.298552 0
M  V30 50 H 0.339916 -4.955988 -1.125986 0
M  V30 51 H -5.713456 -3.381129 -0.959809 0
M  V30 52 H -6.553064 -5.600982 -1.808959 0
M  V30 53 H -3.747934 -7.579193 0.737240 0
M  V30 54 H -2.713493 -0.940435 1.812197 0
M  V30 55 H -0.405508 -0.283301 1.626129 0
M  V30 END ATOM
M  V30 BEGIN BOND
M  V30 1 2 1 2
M  V30 2 1 2 3
M  V30 3 2 3 4
M  V30 4 1 4 5
M  V30 5 2 5 6
M  V30 6 1 6 7
M  V30 7 2 7 8
M  V30 8 1 7 9
M  V30 9 1 9 10
M  V30 10 1 10 11
M  V30 11 1 11 12
M  V30 12 1 6 13
M  V30 13 2 13 14
M  V30 14 1 14 15
M  V30 15 1 15 16
M  V30 16 2 16 17
M  V30 17 1 16 18
M  V30 18 2 18 19
M  V30 19 1 19 20
M  V30 20 1 20 21
M  V30 21 2 21 22
M  V30 22 1 22 23
M  V30 23 1 23 24
M  V30 24 2 24 25
M  V30 25 1 25 26
M  V30 26 2 26 27
M  V30 27 1 27 28
M  V30 28 1 27 29
M  V30 29 2 29 30
M  V30 30 1 30 31
M  V30 31 1 22 32
M  V30 32 2 32 33
M  V30 33 1 33 34
M  V30 34 1 14 3
M  V30 35 2 34 15
M  V30 36 1 34 20
M  V30 37 1 30 24
M  V30 38 1 1 35
M  V30 39 1 1 36
M  V30 40 1 2 37
M  V30 41 1 4 38
M  V30 42 1 5 39
M  V30 43 1 9 40
M  V30 44 1 10 41
M  V30 45 1 10 42
M  V30 46 1 11 43
M  V30 47 1 11 44
M  V30 48 1 12 45
M  V30 49 1 12 46
M  V30 50 1 12 47
M  V30 51 1 13 48
M  V30 52 1 18 49
M  V30 53 1 19 50
M  V30 54 1 25 51
M  V30 55 1 26 52
M  V30 56 1 29 53
M  V30 57 1 32 54
M  V30 58 1 33 55
M  V30 END BOND
M  V30 END CTAB
M  END
>  <Dataset>  (501) 
ChEMBL_Kinases

>  <Ligand_Instance>  (501) 
nan

>  <PDB_ID>  (501) 
nan

>  <Standardized_SMILES>  (501) 
C=Cc1ccc(C(=O)NCCC)cc1-c1c(=O)ccn2nc(Oc3ccc(F)cc3F)ccc12

>  <Name>  (501) 
nan

>  <Pocket>  (501) 
nan

>  <ATP_Site>  (501) 
nan

>  <Peripheral>  (501) 
nan

>  <Num_H_Atoms_ProtBoundConf>  (501) 
nan

>  <Num_Resolved_Atoms>  (501) 
nan

>  <Num_Not_Resolved_Atoms>  (501) 
nan

$$$$
CHEMBL46440
     RDKit          3D

  0  0  0  0  0  0  0  0  0  0999 V3000
M  V30 BEGIN CTAB
M  V30 COUNTS 26 28 0 0 0
M  V30 BEGIN ATOM
M  V30 1 N 0.426324 -4.729162 2.724200 0
M  V30 2 C 0.267861 -3.308739 2.850592 0
M  V30 3 N 0.083731 -2.699595 4.050841 0
M  V30 4 C -0.060349 -1.342430 4.099637 0
M  V30 5 C -0.002095 -0.716564 2.891759 0
M  V30 6 C 0.178092 -1.252145 1.653377 0
M  V30 7 C 0.252925 -0.626187 0.357917 0
M  V30 8 C 0.528534 -1.410483 -0.771314 0
M  V30 9 N 0.547422 -0.631467 -1.864099 0
M  V30 10 C 0.300881 0.635247 -1.545165 0
M  V30 11 C 0.200023 1.816043 -2.242978 0
M  V30 12 C -0.082615 3.022478 -1.601779 0
M  V30 13 Br -0.200132 4.606973 -2.671545 0
M  V30 14 C -0.254885 2.963611 -0.230857 0
M  V30 15 C -0.149556 1.776699 0.441614 0
M  V30 16 C 0.125854 0.607897 -0.188722 0
M  V30 17 N 0.306106 -2.584526 1.739853 0
M  V30 18 H 1.179478 -5.444173 2.617901 0
M  V30 19 H -0.562851 -5.106283 2.756010 0
M  V30 20 H -0.208206 -0.819250 5.029983 0
M  V30 21 H -0.112823 0.342491 2.975957 0
M  V30 22 H 0.716731 -2.469758 -0.902871 0
M  V30 23 H 0.725027 -0.913778 -2.861283 0
M  V30 24 H 0.346595 1.793188 -3.319944 0
M  V30 25 H -0.471102 3.899605 0.242310 0
M  V30 26 H -0.305015 1.853380 1.486752 0
M  V30 END ATOM
M  V30 BEGIN BOND
M  V30 1 1 1 2
M  V30 2 2 2 3
M  V30 3 1 3 4
M  V30 4 2 4 5
M  V30 5 1 5 6
M  V30 6 1 6 7
M  V30 7 2 7 8
M  V30 8 1 8 9
M  V30 9 1 9 10
M  V30 10 2 10 11
M  V30 11 1 11 12
M  V30 12 1 12 13
M  V30 13 2 12 14
M  V30 14 1 14 15
M  V30 15 2 15 16
M  V30 16 2 6 17
M  V30 17 1 17 2
M  V30 18 1 16 7
M  V30 19 1 16 10
M  V30 20 1 1 18
M  V30 21 1 1 19
M  V30 22 1 4 20
M  V30 23 1 5 21
M  V30 24 1 8 22
M  V30 25 1 9 23
M  V30 26 1 11 24
M  V30 27 1 14 25
M  V30 28 1 15 26
M  V30 END BOND
M  V30 END CTAB
M  END
>  <Dataset>  (502) 
ChEMBL_Kinases

>  <Ligand_Instance>  (502) 
nan

>  <PDB_ID>  (502) 
nan

>  <Standardized_SMILES>  (502) 
Nc1nccc(-c2c[nH]c3cc(Br)ccc23)n1

>  <Name>  (502) 
MERIDIANIN D

>  <Pocket>  (502) 
nan

>  <ATP_Site>  (502) 
nan

>  <Peripheral>  (502) 
nan

>  <Num_H_Atoms_ProtBoundConf>  (502) 
nan

>  <Num_Resolved_Atoms>  (502) 
nan

>  <Num_Not_Resolved_Atoms>  (502) 
nan

$$$$
CHEMBL209594
     RDKit          3D

  0  0  0  0  0  0  0  0  0  0999 V3000
M  V30 BEGIN CTAB
M  V30 COUNTS 41 45 0 0 0
M  V30 BEGIN ATOM
M  V30 1 C 2.862134 -4.415564 -0.160894 0
M  V30 2 O 2.231383 -3.261526 0.401190 0
M  V30 3 C 2.528079 -2.965043 1.726102 0
M  V30 4 C 3.371741 -3.698377 2.508557 0
M  V30 5 C 3.640904 -3.365763 3.831034 0
M  V30 6 C 3.032843 -2.252156 4.374935 0
M  V30 7 C 2.170507 -1.497758 3.584310 0
M  V30 8 C 1.921950 -1.853165 2.271699 0
M  V30 9 C 0.999752 -0.973531 1.564168 0
M  V30 10 C 1.522591 0.107848 0.884380 0
M  V30 11 C 0.670547 0.955971 0.206446 0
M  V30 12 N 0.916031 2.060529 -0.521030 0
M  V30 13 C -0.294213 2.509046 -0.966694 0
M  V30 14 C -0.525595 3.635932 -1.764147 0
M  V30 15 C -1.828016 3.976901 -2.146809 0
M  V30 16 C -2.870782 3.155257 -1.704331 0
M  V30 17 O -4.151822 3.491357 -2.081209 0
M  V30 18 C -2.555668 2.067461 -0.924014 0
M  V30 19 C -1.309241 1.691488 -0.523830 0
M  V30 20 C -0.685376 0.726243 0.208065 0
M  V30 21 C -1.203318 -0.336833 0.875895 0
M  V30 22 C -0.372152 -1.191697 1.556044 0
M  V30 23 C -1.084689 -2.280100 2.218878 0
M  V30 24 O -0.595991 -3.210174 2.911193 0
M  V30 25 N -2.458529 -2.022303 1.884932 0
M  V30 26 C -2.523659 -0.858018 1.080979 0
M  V30 27 O -3.655117 -0.521743 0.721151 0
M  V30 28 H 2.533554 -4.588977 -1.200194 0
M  V30 29 H 3.954462 -4.205207 -0.198750 0
M  V30 30 H 2.740241 -5.313444 0.478199 0
M  V30 31 H 3.826530 -4.560614 2.046214 0
M  V30 32 H 4.330486 -4.024519 4.358217 0
M  V30 33 H 3.276830 -2.039806 5.404892 0
M  V30 34 H 1.734108 -0.637180 4.090829 0
M  V30 35 H 2.581538 0.275267 0.891330 0
M  V30 36 H 1.863436 2.462937 -0.687641 0
M  V30 37 H 0.290692 4.244289 -2.086683 0
M  V30 38 H -1.934703 4.847190 -2.754414 0
M  V30 39 H -4.793406 3.951261 -1.421501 0
M  V30 40 H -3.404969 1.504820 -0.636537 0
M  V30 41 H -3.200256 -2.686348 2.254118 0
M  V30 END ATOM
M  V30 BEGIN BOND
M  V30 1 1 1 2
M  V30 2 1 2 3
M  V30 3 2 3 4
M  V30 4 1 4 5
M  V30 5 2 5 6
M  V30 6 1 6 7
M  V30 7 2 7 8
M  V30 8 1 8 9
M  V30 9 2 9 10
M  V30 10 1 10 11
M  V30 11 1 11 12
M  V30 12 1 12 13
M  V30 13 2 13 14
M  V30 14 1 14 15
M  V30 15 2 15 16
M  V30 16 1 16 17
M  V30 17 1 16 18
M  V30 18 2 18 19
M  V30 19 1 19 20
M  V30 20 1 20 21
M  V30 21 2 21 22
M  V30 22 1 22 23
M  V30 23 2 23 24
M  V30 24 1 23 25
M  V30 25 1 25 26
M  V30 26 2 26 27
M  V30 27 1 8 3
M  V30 28 1 22 9
M  V30 29 2 20 11
M  V30 30 1 26 21
M  V30 31 1 19 13
M  V30 32 1 1 28
M  V30 33 1 1 29
M  V30 34 1 1 30
M  V30 35 1 4 31
M  V30 36 1 5 32
M  V30 37 1 6 33
M  V30 38 1 7 34
M  V30 39 1 10 35
M  V30 40 1 12 36
M  V30 41 1 14 37
M  V30 42 1 15 38
M  V30 43 1 17 39
M  V30 44 1 18 40
M  V30 45 1 25 41
M  V30 END BOND
M  V30 END CTAB
M  END
>  <Dataset>  (503) 
ChEMBL_Kinases

>  <Ligand_Instance>  (503) 
nan

>  <PDB_ID>  (503) 
nan

>  <Standardized_SMILES>  (503) 
COc1ccccc1-c1cc2[nH]c3ccc(O)cc3c2c2c1C(=O)NC2=O

>  <Name>  (503) 
nan

>  <Pocket>  (503) 
nan

>  <ATP_Site>  (503) 
nan

>  <Peripheral>  (503) 
nan

>  <Num_H_Atoms_ProtBoundConf>  (503) 
nan

>  <Num_Resolved_Atoms>  (503) 
nan

>  <Num_Not_Resolved_Atoms>  (503) 
nan

$$$$
CHEMBL2088578
     RDKit          3D

  0  0  0  0  0  0  0  0  0  0999 V3000
M  V30 BEGIN CTAB
M  V30 COUNTS 48 51 0 0 0
M  V30 BEGIN ATOM
M  V30 1 C -0.806852 0.270677 2.286412 0
M  V30 2 C -1.199315 -0.914751 2.640320 0
M  V30 3 C -1.880391 -1.789200 1.709007 0
M  V30 4 C -2.278969 -3.036958 2.125208 0
M  V30 5 C -2.930196 -3.901832 1.272941 0
M  V30 6 C -3.171613 -3.483688 -0.007309 0
M  V30 7 C -3.856598 -4.368715 -0.936296 0
M  V30 8 O -4.175634 -4.196987 -2.131539 0
M  V30 9 O -4.311273 -5.639455 -0.660542 0
M  V30 10 C -4.972924 -6.452741 -1.612377 0
M  V30 11 C -2.791390 -2.255410 -0.453815 0
M  V30 12 C -2.136130 -1.399777 0.422745 0
M  V30 13 C -1.744790 -0.091350 -0.095541 0
M  V30 14 C -2.662882 0.949059 0.036340 0
M  V30 15 O -3.779493 0.755886 0.582895 0
M  V30 16 C -2.234441 2.164729 -0.475568 0
M  V30 17 C -0.981240 2.271606 -1.059829 0
M  V30 18 N -0.146563 1.212730 -1.149821 0
M  V30 19 N 1.051377 1.355505 -1.719128 0
M  V30 20 C 1.906762 0.303253 -1.820107 0
M  V30 21 O 3.167937 0.407382 -2.407220 0
M  V30 22 C 3.682542 1.556760 -2.939821 0
M  V30 23 C 3.997023 1.478151 -4.282860 0
M  V30 24 C 4.525285 2.541814 -4.981171 0
M  V30 25 C 4.741118 3.732126 -4.282001 0
M  V30 26 F 5.263772 4.803214 -4.948482 0
M  V30 27 C 4.435771 3.845054 -2.930277 0
M  V30 28 C 3.908912 2.747906 -2.281116 0
M  V30 29 F 3.572484 2.740383 -0.963610 0
M  V30 30 C 1.560546 -0.944214 -1.336298 0
M  V30 31 C 0.323861 -1.109238 -0.743908 0
M  V30 32 C -0.495882 0.006175 -0.675439 0
M  V30 33 H -0.294113 1.066101 2.808418 0
M  V30 34 H -0.502668 1.241963 1.943335 0
M  V30 35 H -0.988710 -1.204550 3.660352 0
M  V30 36 H -2.042255 -3.269561 3.148816 0
M  V30 37 H -3.217677 -4.872700 1.665587 0
M  V30 38 H -5.652254 -7.184924 -1.126969 0
M  V30 39 H -4.225626 -6.966461 -2.256495 0
M  V30 40 H -5.612851 -5.839813 -2.290528 0
M  V30 41 H -2.992285 -1.945706 -1.469196 0
M  V30 42 H -2.906872 3.015484 -0.402421 0
M  V30 43 H -0.634912 3.221268 -1.464894 0
M  V30 44 H 3.858034 0.598156 -4.881182 0
M  V30 45 H 4.781012 2.509006 -6.032504 0
M  V30 46 H 4.592274 4.749347 -2.369530 0
M  V30 47 H 2.244019 -1.796792 -1.413933 0
M  V30 48 H -0.020879 -2.050851 -0.341687 0
M  V30 END ATOM
M  V30 BEGIN BOND
M  V30 1 2 1 2
M  V30 2 1 2 3
M  V30 3 2 3 4
M  V30 4 1 4 5
M  V30 5 2 5 6
M  V30 6 1 6 7
M  V30 7 2 7 8
M  V30 8 1 7 9
M  V30 9 1 9 10
M  V30 10 1 6 11
M  V30 11 2 11 12
M  V30 12 1 12 13
M  V30 13 1 13 14
M  V30 14 2 14 15
M  V30 15 1 14 16
M  V30 16 2 16 17
M  V30 17 1 17 18
M  V30 18 1 18 19
M  V30 19 2 19 20
M  V30 20 1 20 21
M  V30 21 1 21 22
M  V30 22 2 22 23
M  V30 23 1 23 24
M  V30 24 2 24 25
M  V30 25 1 25 26
M  V30 26 1 25 27
M  V30 27 2 27 28
M  V30 28 1 28 29
M  V30 29 1 20 30
M  V30 30 2 30 31
M  V30 31 1 31 32
M  V30 32 1 12 3
M  V30 33 2 32 13
M  V30 34 1 32 18
M  V30 35 1 28 22
M  V30 36 1 1 33
M  V30 37 1 1 34
M  V30 38 1 2 35
M  V30 39 1 4 36
M  V30 40 1 5 37
M  V30 41 1 10 38
M  V30 42 1 10 39
M  V30 43 1 10 40
M  V30 44 1 11 41
M  V30 45 1 16 42
M  V30 46 1 17 43
M  V30 47 1 23 44
M  V30 48 1 24 45
M  V30 49 1 27 46
M  V30 50 1 30 47
M  V30 51 1 31 48
M  V30 END BOND
M  V30 END CTAB
M  END
>  <Dataset>  (504) 
ChEMBL_Kinases

>  <Ligand_Instance>  (504) 
nan

>  <PDB_ID>  (504) 
nan

>  <Standardized_SMILES>  (504) 
C=Cc1ccc(C(=O)OC)cc1-c1c(=O)ccn2nc(Oc3ccc(F)cc3F)ccc12

>  <Name>  (504) 
nan

>  <Pocket>  (504) 
nan

>  <ATP_Site>  (504) 
nan

>  <Peripheral>  (504) 
nan

>  <Num_H_Atoms_ProtBoundConf>  (504) 
nan

>  <Num_Resolved_Atoms>  (504) 
nan

>  <Num_Not_Resolved_Atoms>  (504) 
nan

$$$$
CHEMBL602706
     RDKit          3D

  0  0  0  0  0  0  0  0  0  0999 V3000
M  V30 BEGIN CTAB
M  V30 COUNTS 41 43 0 0 0
M  V30 BEGIN ATOM
M  V30 1 C -1.049763 -3.197770 4.568514 0
M  V30 2 N -0.168328 -3.167395 3.444801 0
M  V30 3 C -0.724911 -3.785624 2.265622 0
M  V30 4 C 0.313833 -3.914734 1.173998 0
M  V30 5 C -0.031634 -2.863982 0.139697 0
M  V30 6 N 0.277091 -1.568527 0.736638 0
M  V30 7 C 1.116953 -0.598915 0.074361 0
M  V30 8 N 0.536551 0.586536 -0.190431 0
M  V30 9 C 1.168651 1.603775 -0.800861 0
M  V30 10 C 0.434193 2.843798 -1.034460 0
M  V30 11 C -0.876504 2.894591 -0.609460 0
M  V30 12 C -1.667106 4.015954 -0.777993 0
M  V30 13 N -1.123667 5.098207 -1.384010 0
M  V30 14 C 0.156322 5.028718 -1.791345 0
M  V30 15 C 0.994210 3.941703 -1.652254 0
M  V30 16 C 2.480671 1.390635 -1.162859 0
M  V30 17 N 3.096124 0.207945 -0.911111 0
M  V30 18 C 2.432225 -0.788193 -0.298052 0
M  V30 19 N 3.001763 -2.056687 0.002106 0
M  V30 20 C -0.234038 -1.157807 2.035471 0
M  V30 21 C 0.428084 -1.882524 3.181249 0
M  V30 22 H -1.068503 -4.179400 5.084967 0
M  V30 23 H -2.120194 -3.001512 4.273659 0
M  V30 24 H -0.731430 -2.429581 5.311393 0
M  V30 25 H -1.655220 -3.343002 1.902480 0
M  V30 26 H -0.979179 -4.838590 2.560457 0
M  V30 27 H 0.254990 -4.896126 0.661454 0
M  V30 28 H 1.325421 -3.671388 1.562485 0
M  V30 29 H -1.130649 -2.919745 -0.042612 0
M  V30 30 H 0.448081 -3.007810 -0.828625 0
M  V30 31 H -1.365854 2.042726 -0.111527 0
M  V30 32 H -2.695195 4.017064 -0.429680 0
M  V30 33 H 0.525663 5.929578 -2.267688 0
M  V30 34 H 2.003794 3.922037 -1.987354 0
M  V30 35 H 3.014250 2.187349 -1.653935 0
M  V30 36 H 2.776394 -3.044782 -0.245862 0
M  V30 37 H 3.828957 -1.852320 0.615825 0
M  V30 38 H -0.040115 -0.077413 2.167121 0
M  V30 39 H -1.334507 -1.269864 2.046660 0
M  V30 40 H 1.484348 -2.071713 2.876412 0
M  V30 41 H 0.451067 -1.221262 4.049830 0
M  V30 END ATOM
M  V30 BEGIN BOND
M  V30 1 1 1 2
M  V30 2 1 2 3
M  V30 3 1 3 4
M  V30 4 1 4 5
M  V30 5 1 5 6
M  V30 6 1 6 7
M  V30 7 2 7 8
M  V30 8 1 8 9
M  V30 9 1 9 10
M  V30 10 2 10 11
M  V30 11 1 11 12
M  V30 12 2 12 13
M  V30 13 1 13 14
M  V30 14 2 14 15
M  V30 15 2 9 16
M  V30 16 1 16 17
M  V30 17 2 17 18
M  V30 18 1 18 19
M  V30 19 1 6 20
M  V30 20 1 20 21
M  V30 21 1 21 2
M  V30 22 1 18 7
M  V30 23 1 15 10
M  V30 24 1 1 22
M  V30 25 1 1 23
M  V30 26 1 1 24
M  V30 27 1 3 25
M  V30 28 1 3 26
M  V30 29 1 4 27
M  V30 30 1 4 28
M  V30 31 1 5 29
M  V30 32 1 5 30
M  V30 33 1 11 31
M  V30 34 1 12 32
M  V30 35 1 14 33
M  V30 36 1 15 34
M  V30 37 1 16 35
M  V30 38 1 19 36
M  V30 39 1 19 37
M  V30 40 1 20 38
M  V30 41 1 20 39
M  V30 42 1 21 40
M  V30 43 1 21 41
M  V30 END BOND
M  V30 END CTAB
M  END
>  <Dataset>  (505) 
ChEMBL_Kinases

>  <Ligand_Instance>  (505) 
nan

>  <PDB_ID>  (505) 
nan

>  <Standardized_SMILES>  (505) 
CN1CCCN(c2nc(-c3ccncc3)cnc2N)CC1

>  <Name>  (505) 
nan

>  <Pocket>  (505) 
nan

>  <ATP_Site>  (505) 
nan

>  <Peripheral>  (505) 
nan

>  <Num_H_Atoms_ProtBoundConf>  (505) 
nan

>  <Num_Resolved_Atoms>  (505) 
nan

>  <Num_Not_Resolved_Atoms>  (505) 
nan

$$$$
CHEMBL2088577
     RDKit          3D

  0  0  0  0  0  0  0  0  0  0999 V3000
M  V30 BEGIN CTAB
M  V30 COUNTS 55 59 0 0 0
M  V30 BEGIN ATOM
M  V30 1 C 2.792407 -1.562481 3.816176 0
M  V30 2 C 1.470100 -0.873412 3.655593 0
M  V30 3 C 1.498872 0.222927 2.636658 0
M  V30 4 C 1.536455 1.560797 2.982022 0
M  V30 5 C 1.561421 2.499596 1.965828 0
M  V30 6 C 1.551385 2.192624 0.622063 0
M  V30 7 C 1.577668 3.213600 -0.417858 0
M  V30 8 O 1.582508 2.850300 -1.641556 0
M  V30 9 N 1.597874 4.591192 -0.154742 0
M  V30 10 C 1.625234 5.629898 -1.162669 0
M  V30 11 C 0.476559 6.673786 -0.967700 0
M  V30 12 C 1.908263 7.031156 -0.812735 0
M  V30 13 C 1.513860 0.858108 0.285659 0
M  V30 14 C 1.488270 -0.100808 1.297105 0
M  V30 15 C 1.447254 -1.466871 0.790481 0
M  V30 16 C 2.527094 -2.300001 0.488589 0
M  V30 17 O 3.643379 -1.783975 0.685422 0
M  V30 18 C 2.240094 -3.579460 0.014032 0
M  V30 19 C 0.934498 -3.994551 -0.146753 0
M  V30 20 N -0.096792 -3.181184 0.148016 0
M  V30 21 N -1.312135 -3.670021 -0.039566 0
M  V30 22 C -2.424098 -2.936552 0.225193 0
M  V30 23 O -3.734200 -3.367440 0.058210 0
M  V30 24 C -4.063547 -4.637917 -0.414693 0
M  V30 25 C -4.802590 -4.540255 -1.581887 0
M  V30 26 C -5.239662 -5.699959 -2.228680 0
M  V30 27 C -4.911944 -6.922600 -1.668849 0
M  V30 28 F -5.277819 -8.130055 -2.201987 0
M  V30 29 C -4.169041 -7.001508 -0.496194 0
M  V30 30 C -3.738876 -5.857940 0.140163 0
M  V30 31 F -3.012881 -5.794274 1.281714 0
M  V30 32 C -2.265672 -1.650771 0.701413 0
M  V30 33 C -0.976660 -1.193738 0.877682 0
M  V30 34 C 0.159769 -1.929374 0.612178 0
M  V30 35 H 3.599056 -0.968635 3.325129 0
M  V30 36 H 3.055224 -1.583075 4.885498 0
M  V30 37 H 2.800160 -2.571732 3.354568 0
M  V30 38 H 0.694158 -1.618912 3.383389 0
M  V30 39 H 1.152903 -0.474034 4.639312 0
M  V30 40 H 1.545526 1.842037 4.023417 0
M  V30 41 H 1.589830 3.525441 2.294655 0
M  V30 42 H 1.593995 4.944403 0.832135 0
M  V30 43 H 1.655655 5.258569 -2.215755 0
M  V30 44 H -0.019240 7.051538 -1.873464 0
M  V30 45 H -0.130448 6.593080 -0.059324 0
M  V30 46 H 2.260238 7.196007 0.245958 0
M  V30 47 H 2.432316 7.704602 -1.512824 0
M  V30 48 H 1.505956 0.622794 -0.770589 0
M  V30 49 H 3.129068 -4.184690 -0.204939 0
M  V30 50 H 0.755886 -4.983454 -0.512944 0
M  V30 51 H -5.108482 -3.645899 -2.095183 0
M  V30 52 H -5.820003 -5.700461 -3.142253 0
M  V30 53 H -3.897663 -7.935673 -0.035551 0
M  V30 54 H -3.098011 -0.982730 0.943742 0
M  V30 55 H -0.858089 -0.178948 1.253945 0
M  V30 END ATOM
M  V30 BEGIN BOND
M  V30 1 1 1 2
M  V30 2 1 2 3
M  V30 3 2 3 4
M  V30 4 1 4 5
M  V30 5 2 5 6
M  V30 6 1 6 7
M  V30 7 2 7 8
M  V30 8 1 7 9
M  V30 9 1 9 10
M  V30 10 1 10 11
M  V30 11 1 11 12
M  V30 12 1 6 13
M  V30 13 2 13 14
M  V30 14 1 14 15
M  V30 15 1 15 16
M  V30 16 2 16 17
M  V30 17 1 16 18
M  V30 18 2 18 19
M  V30 19 1 19 20
M  V30 20 1 20 21
M  V30 21 2 21 22
M  V30 22 1 22 23
M  V30 23 1 23 24
M  V30 24 2 24 25
M  V30 25 1 25 26
M  V30 26 2 26 27
M  V30 27 1 27 28
M  V30 28 1 27 29
M  V30 29 2 29 30
M  V30 30 1 30 31
M  V30 31 1 22 32
M  V30 32 2 32 33
M  V30 33 1 33 34
M  V30 34 1 14 3
M  V30 35 2 34 15
M  V30 36 1 12 10
M  V30 37 1 34 20
M  V30 38 1 30 24
M  V30 39 1 1 35
M  V30 40 1 1 36
M  V30 41 1 1 37
M  V30 42 1 2 38
M  V30 43 1 2 39
M  V30 44 1 4 40
M  V30 45 1 5 41
M  V30 46 1 9 42
M  V30 47 1 10 43
M  V30 48 1 11 44
M  V30 49 1 11 45
M  V30 50 1 12 46
M  V30 51 1 12 47
M  V30 52 1 13 48
M  V30 53 1 18 49
M  V30 54 1 19 50
M  V30 55 1 25 51
M  V30 56 1 26 52
M  V30 57 1 29 53
M  V30 58 1 32 54
M  V30 59 1 33 55
M  V30 END BOND
M  V30 END CTAB
M  END
>  <Dataset>  (506) 
ChEMBL_Kinases

>  <Ligand_Instance>  (506) 
nan

>  <PDB_ID>  (506) 
nan

>  <Standardized_SMILES>  (506) 
CCc1ccc(C(=O)NC2CC2)cc1-c1c(=O)ccn2nc(Oc3ccc(F)cc3F)ccc12

>  <Name>  (506) 
nan

>  <Pocket>  (506) 
nan

>  <ATP_Site>  (506) 
nan

>  <Peripheral>  (506) 
nan

>  <Num_H_Atoms_ProtBoundConf>  (506) 
nan

>  <Num_Resolved_Atoms>  (506) 
nan

>  <Num_Not_Resolved_Atoms>  (506) 
nan

$$$$
CHEMBL207228
     RDKit          3D

  0  0  0  0  0  0  0  0  0  0999 V3000
M  V30 BEGIN CTAB
M  V30 COUNTS 28 30 0 0 0
M  V30 BEGIN ATOM
M  V30 1 C -1.638494 -3.860295 0.434948 0
M  V30 2 C -0.872401 -2.876110 1.246412 0
M  V30 3 N -0.549719 -2.918460 2.553960 0
M  V30 4 N 0.148474 -1.826504 2.881215 0
M  V30 5 C 0.666121 -1.533447 4.215797 0
M  V30 6 C 0.299958 -1.041519 1.793694 0
M  V30 7 C -0.345612 -1.699831 0.748434 0
M  V30 8 C -0.377828 -1.155368 -0.524054 0
M  V30 9 O -0.950146 -1.728195 -1.473484 0
M  V30 10 C 0.252870 0.057199 -0.706503 0
M  V30 11 C 0.276315 0.688069 -1.951505 0
M  V30 12 C 0.910191 1.914486 -2.151236 0
M  V30 13 Cl 0.910059 2.662800 -3.733482 0
M  V30 14 C 1.521024 2.492110 -1.066559 0
M  V30 15 C 1.544729 1.930866 0.209250 0
M  V30 16 C 0.895176 0.719056 0.318928 0
M  V30 17 N 0.894623 0.139099 1.542754 0
M  V30 18 O 1.514610 0.748681 2.594427 0
M  V30 19 H -1.053969 -4.027400 -0.488217 0
M  V30 20 H -2.630041 -3.469629 0.140590 0
M  V30 21 H -1.763701 -4.763045 1.045877 0
M  V30 22 H 0.066875 -2.107880 4.968960 0
M  V30 23 H 0.461950 -0.454340 4.455079 0
M  V30 24 H 1.706782 -1.823270 4.359572 0
M  V30 25 H -0.222805 0.195873 -2.795093 0
M  V30 26 H 2.004477 3.441341 -1.248128 0
M  V30 27 H 2.029270 2.404082 1.037925 0
M  V30 28 H 2.506813 0.638647 2.693046 0
M  V30 END ATOM
M  V30 BEGIN BOND
M  V30 1 1 1 2
M  V30 2 2 2 3
M  V30 3 1 3 4
M  V30 4 1 4 5
M  V30 5 1 4 6
M  V30 6 2 6 7
M  V30 7 1 7 8
M  V30 8 2 8 9
M  V30 9 1 8 10
M  V30 10 2 10 11
M  V30 11 1 11 12
M  V30 12 1 12 13
M  V30 13 2 12 14
M  V30 14 1 14 15
M  V30 15 2 15 16
M  V30 16 1 16 17
M  V30 17 1 17 18
M  V30 18 1 7 2
M  V30 19 1 16 10
M  V30 20 1 17 6
M  V30 21 1 1 19
M  V30 22 1 1 20
M  V30 23 1 1 21
M  V30 24 1 5 22
M  V30 25 1 5 23
M  V30 26 1 5 24
M  V30 27 1 11 25
M  V30 28 1 14 26
M  V30 29 1 15 27
M  V30 30 1 18 28
M  V30 END BOND
M  V30 END CTAB
M  END
>  <Dataset>  (507) 
ChEMBL_Kinases

>  <Ligand_Instance>  (507) 
nan

>  <PDB_ID>  (507) 
nan

>  <Standardized_SMILES>  (507) 
Cc1nn(C)c2c1c(=O)c1cc(Cl)ccc1n2O

>  <Name>  (507) 
nan

>  <Pocket>  (507) 
nan

>  <ATP_Site>  (507) 
nan

>  <Peripheral>  (507) 
nan

>  <Num_H_Atoms_ProtBoundConf>  (507) 
nan

>  <Num_Resolved_Atoms>  (507) 
nan

>  <Num_Not_Resolved_Atoms>  (507) 
nan

$$$$
CHEMBL1214131
     RDKit          3D

  0  0  0  0  0  0  0  0  0  0999 V3000
M  V30 BEGIN CTAB
M  V30 COUNTS 68 73 0 0 0
M  V30 BEGIN ATOM
M  V30 1 C 6.416315 -3.338810 -0.324440 0
M  V30 2 C 5.275875 -2.991805 -1.221914 0
M  V30 3 C 4.277667 -4.124714 -1.137283 0
M  V30 4 C 5.652925 -2.851181 -2.674724 0
M  V30 5 C 4.685549 -1.703423 -0.776134 0
M  V30 6 C 3.602823 -1.068218 -1.379687 0
M  V30 7 C 3.323159 0.113511 -0.698921 0
M  V30 8 N 2.241785 0.958285 -1.128980 0
M  V30 9 C 0.952845 0.715861 -0.562882 0
M  V30 10 O 0.812232 -0.194857 0.262687 0
M  V30 11 N -0.169702 1.521218 -0.947895 0
M  V30 12 C -1.390483 1.186015 -0.320745 0
M  V30 13 C -1.874328 1.700034 0.870572 0
M  V30 14 C -3.105829 1.269100 1.368518 0
M  V30 15 C -3.854247 0.318669 0.668646 0
M  V30 16 O -5.027825 0.038031 1.334431 0
M  V30 17 C -5.379913 -1.170166 1.853979 0
M  V30 18 C -4.745403 -2.380708 1.909938 0
M  V30 19 C -5.230806 -3.536078 2.476196 0
M  V30 20 N -6.455435 -3.478431 3.035155 0
M  V30 21 C -7.154651 -2.306002 3.020898 0
M  V30 22 N -8.356776 -2.397654 3.613503 0
M  V30 23 C -9.116412 -1.292014 3.647844 0
M  V30 24 O -10.262710 -1.306177 4.191594 0
M  V30 25 C -8.628006 -0.135908 3.079866 0
M  V30 26 N -7.434789 -0.041833 2.490760 0
M  V30 27 C -6.653948 -1.133458 2.442327 0
M  V30 28 C -3.349723 -0.175143 -0.514063 0
M  V30 29 C -4.167999 -1.097613 -1.130368 0
M  V30 30 C -3.729703 -1.629699 -2.324383 0
M  V30 31 C -2.506710 -1.252750 -2.891466 0
M  V30 32 C -1.748873 -0.320445 -2.206719 0
M  V30 33 C -2.134034 0.246999 -1.010076 0
M  V30 34 N 4.222427 0.171788 0.284237 0
M  V30 35 C 4.231300 1.266158 1.192990 0
M  V30 36 C 5.139084 2.280820 0.913487 0
M  V30 37 C 5.203823 3.382066 1.758458 0
M  V30 38 C 4.398163 3.509660 2.870833 0
M  V30 39 C 3.494374 2.484657 3.136709 0
M  V30 40 C 3.421483 1.396759 2.313074 0
M  V30 41 N 5.011039 -0.882751 0.237092 0
M  V30 42 H 6.426657 -4.432319 -0.063501 0
M  V30 43 H 7.346719 -3.019695 -0.832986 0
M  V30 44 H 6.269000 -2.825056 0.648071 0
M  V30 45 H 4.837664 -5.076760 -1.255423 0
M  V30 46 H 3.507401 -4.098035 -1.931826 0
M  V30 47 H 3.812747 -4.184697 -0.115913 0
M  V30 48 H 4.806849 -2.287470 -3.150043 0
M  V30 49 H 5.789463 -3.829344 -3.146268 0
M  V30 50 H 6.539708 -2.192403 -2.803016 0
M  V30 51 H 3.084397 -1.482174 -2.259150 0
M  V30 52 H 2.390502 1.733463 -1.839599 0
M  V30 53 H -0.028930 2.298088 -1.657515 0
M  V30 54 H -1.247247 2.414559 1.337370 0
M  V30 55 H -3.363934 1.749999 2.304656 0
M  V30 56 H -3.755707 -2.342551 1.436742 0
M  V30 57 H -4.610753 -4.417354 2.442843 0
M  V30 58 H -8.722184 -3.275025 4.042024 0
M  V30 59 H -9.197582 0.796170 3.075668 0
M  V30 60 H -5.115569 -1.407203 -0.734135 0
M  V30 61 H -4.272511 -2.360735 -2.909465 0
M  V30 62 H -2.140628 -1.656112 -3.826901 0
M  V30 63 H -0.784715 -0.000785 -2.621225 0
M  V30 64 H 5.831148 2.340915 0.100278 0
M  V30 65 H 5.896706 4.217055 1.595874 0
M  V30 66 H 4.421942 4.345158 3.543585 0
M  V30 67 H 2.816901 2.511616 4.004739 0
M  V30 68 H 2.760170 0.550042 2.426768 0
M  V30 END ATOM
M  V30 BEGIN BOND
M  V30 1 1 1 2
M  V30 2 1 2 3
M  V30 3 1 2 4
M  V30 4 1 2 5
M  V30 5 1 5 6
M  V30 6 2 6 7
M  V30 7 1 7 8
M  V30 8 1 8 9
M  V30 9 2 9 10
M  V30 10 1 9 11
M  V30 11 1 11 12
M  V30 12 2 12 13
M  V30 13 1 13 14
M  V30 14 2 14 15
M  V30 15 1 15 16
M  V30 16 1 16 17
M  V30 17 2 17 18
M  V30 18 1 18 19
M  V30 19 2 19 20
M  V30 20 1 20 21
M  V30 21 1 21 22
M  V30 22 1 22 23
M  V30 23 2 23 24
M  V30 24 1 23 25
M  V30 25 2 25 26
M  V30 26 1 26 27
M  V30 27 1 15 28
M  V30 28 2 28 29
M  V30 29 1 29 30
M  V30 30 2 30 31
M  V30 31 1 31 32
M  V30 32 2 32 33
M  V30 33 1 7 34
M  V30 34 1 34 35
M  V30 35 2 35 36
M  V30 36 1 36 37
M  V30 37 2 37 38
M  V30 38 1 38 39
M  V30 39 2 39 40
M  V30 40 1 34 41
M  V30 41 2 41 5
M  V30 42 1 33 12
M  V30 43 1 40 35
M  V30 44 1 27 17
M  V30 45 1 33 28
M  V30 46 2 27 21
M  V30 47 1 1 42
M  V30 48 1 1 43
M  V30 49 1 1 44
M  V30 50 1 3 45
M  V30 51 1 3 46
M  V30 52 1 3 47
M  V30 53 1 4 48
M  V30 54 1 4 49
M  V30 55 1 4 50
M  V30 56 1 6 51
M  V30 57 1 8 52
M  V30 58 1 11 53
M  V30 59 1 13 54
M  V30 60 1 14 55
M  V30 61 1 18 56
M  V30 62 1 19 57
M  V30 63 1 22 58
M  V30 64 1 25 59
M  V30 65 1 29 60
M  V30 66 1 30 61
M  V30 67 1 31 62
M  V30 68 1 32 63
M  V30 69 1 36 64
M  V30 70 1 37 65
M  V30 71 1 38 66
M  V30 72 1 39 67
M  V30 73 1 40 68
M  V30 END BOND
M  V30 END CTAB
M  END
>  <Dataset>  (508) 
ChEMBL_Kinases

>  <Ligand_Instance>  (508) 
nan

>  <PDB_ID>  (508) 
nan

>  <Standardized_SMILES>  (508) 
CC(C)(C)c1cc(NC(=O)Nc2ccc(Oc3ccnc4[nH]c(=O)cnc34)c3ccccc23)n(-c2ccccc2)n1

>  <Name>  (508) 
nan

>  <Pocket>  (508) 
nan

>  <ATP_Site>  (508) 
nan

>  <Peripheral>  (508) 
nan

>  <Num_H_Atoms_ProtBoundConf>  (508) 
nan

>  <Num_Resolved_Atoms>  (508) 
nan

>  <Num_Not_Resolved_Atoms>  (508) 
nan

$$$$
CHEMBL1214132
     RDKit          3D

  0  0  0  0  0  0  0  0  0  0999 V3000
M  V30 BEGIN CTAB
M  V30 COUNTS 71 76 0 0 0
M  V30 BEGIN ATOM
M  V30 1 C 2.652337 -1.625967 3.484613 0
M  V30 2 C 3.692469 -0.553990 3.446955 0
M  V30 3 N 4.008252 -0.196098 2.190281 0
M  V30 4 C 4.949440 0.776641 2.040137 0
M  V30 5 C 5.405146 1.265057 0.826295 0
M  V30 6 O 4.877424 0.749877 -0.324209 0
M  V30 7 C 3.529885 0.902106 -0.592529 0
M  V30 8 C 2.561465 1.560483 0.133729 0
M  V30 9 C 1.243397 1.625085 -0.265217 0
M  V30 10 C 0.846002 1.015127 -1.437125 0
M  V30 11 N -0.522542 1.068441 -1.875906 0
M  V30 12 C -1.401369 0.023659 -1.435219 0
M  V30 13 O -0.804075 -0.819375 -0.694616 0
M  V30 14 N -2.794154 -0.046587 -1.798791 0
M  V30 15 C -3.458988 -1.193610 -1.225410 0
M  V30 16 C -3.713602 -2.509506 -1.562097 0
M  V30 17 C -4.424029 -3.030558 -0.500282 0
M  V30 18 C -4.866759 -4.449249 -0.533001 0
M  V30 19 C -5.620445 -4.777612 0.735986 0
M  V30 20 C -5.818022 -4.678114 -1.701348 0
M  V30 21 C -3.717847 -5.388371 -0.659258 0
M  V30 22 N -4.571858 -2.061761 0.405107 0
M  V30 23 N -3.992098 -0.933996 -0.015041 0
M  V30 24 C -4.116652 0.134010 0.908072 0
M  V30 25 C -5.351084 0.731887 1.059843 0
M  V30 26 C -5.637554 1.777351 1.911391 0
M  V30 27 C -4.580197 2.246860 2.665402 0
M  V30 28 C -3.328886 1.681017 2.547892 0
M  V30 29 C -3.072391 0.635453 1.686665 0
M  V30 30 C 1.800188 0.350323 -2.180469 0
M  V30 31 C 1.422138 -0.265094 -3.354850 0
M  V30 32 C 2.280365 -0.948700 -4.167144 0
M  V30 33 C 3.609872 -1.016554 -3.768587 0
M  V30 34 C 4.020417 -0.412039 -2.599820 0
M  V30 35 C 3.135725 0.287676 -1.770860 0
M  V30 36 C 6.379468 2.255594 0.818519 0
M  V30 37 C 6.904365 2.765722 1.986832 0
M  V30 38 N 6.466278 2.296072 3.187997 0
M  V30 39 C 5.513019 1.326277 3.193641 0
M  V30 40 N 5.167740 0.938725 4.429448 0
M  V30 41 C 4.237600 -0.022964 4.598613 0
M  V30 42 O 3.817190 -0.484275 5.690957 0
M  V30 43 H 1.745557 -1.316465 2.911493 0
M  V30 44 H 3.102787 -2.579400 3.088582 0
M  V30 45 H 2.313305 -1.860217 4.514205 0
M  V30 46 H 2.898889 2.033276 1.034834 0
M  V30 47 H 0.545698 2.157861 0.357003 0
M  V30 48 H -0.917847 1.818662 -2.494452 0
M  V30 49 H -3.076176 0.738769 -2.408372 0
M  V30 50 H -3.340040 -2.833928 -2.500098 0
M  V30 51 H -4.893023 -4.933959 1.576775 0
M  V30 52 H -6.094676 -5.778831 0.599885 0
M  V30 53 H -6.358346 -4.012591 0.994200 0
M  V30 54 H -5.299232 -4.648839 -2.684897 0
M  V30 55 H -6.595820 -3.884629 -1.747172 0
M  V30 56 H -6.313416 -5.660975 -1.564134 0
M  V30 57 H -2.800058 -4.925110 -1.064122 0
M  V30 58 H -3.479069 -5.879180 0.310113 0
M  V30 59 H -3.985191 -6.216352 -1.346905 0
M  V30 60 H -6.190282 0.358362 0.460890 0
M  V30 61 H -6.639430 2.192759 1.971442 0
M  V30 62 H -4.728275 3.070131 3.360243 0
M  V30 63 H -2.456064 2.015277 3.122450 0
M  V30 64 H -2.098018 0.167321 1.569885 0
M  V30 65 H 0.363166 -0.194747 -3.645176 0
M  V30 66 H 1.892337 -1.398026 -5.068483 0
M  V30 67 H 4.311561 -1.558904 -4.404965 0
M  V30 68 H 5.056504 -0.478072 -2.311011 0
M  V30 69 H 6.705702 2.606850 -0.144070 0
M  V30 70 H 7.667332 3.541144 1.990480 0
M  V30 71 H 5.571770 1.331362 5.304377 0
M  V30 END ATOM
M  V30 BEGIN BOND
M  V30 1 1 1 2
M  V30 2 2 2 3
M  V30 3 1 3 4
M  V30 4 2 4 5
M  V30 5 1 5 6
M  V30 6 1 6 7
M  V30 7 2 7 8
M  V30 8 1 8 9
M  V30 9 2 9 10
M  V30 10 1 10 11
M  V30 11 1 11 12
M  V30 12 2 12 13
M  V30 13 1 12 14
M  V30 14 1 14 15
M  V30 15 2 15 16
M  V30 16 1 16 17
M  V30 17 1 17 18
M  V30 18 1 18 19
M  V30 19 1 18 20
M  V30 20 1 18 21
M  V30 21 2 17 22
M  V30 22 1 22 23
M  V30 23 1 23 24
M  V30 24 2 24 25
M  V30 25 1 25 26
M  V30 26 2 26 27
M  V30 27 1 27 28
M  V30 28 2 28 29
M  V30 29 1 10 30
M  V30 30 2 30 31
M  V30 31 1 31 32
M  V30 32 2 32 33
M  V30 33 1 33 34
M  V30 34 2 34 35
M  V30 35 1 5 36
M  V30 36 2 36 37
M  V30 37 1 37 38
M  V30 38 2 38 39
M  V30 39 1 39 40
M  V30 40 1 40 41
M  V30 41 2 41 42
M  V30 42 1 41 2
M  V30 43 1 39 4
M  V30 44 1 35 7
M  V30 45 1 23 15
M  V30 46 1 29 24
M  V30 47 1 35 30
M  V30 48 1 1 43
M  V30 49 1 1 44
M  V30 50 1 1 45
M  V30 51 1 8 46
M  V30 52 1 9 47
M  V30 53 1 11 48
M  V30 54 1 14 49
M  V30 55 1 16 50
M  V30 56 1 19 51
M  V30 57 1 19 52
M  V30 58 1 19 53
M  V30 59 1 20 54
M  V30 60 1 20 55
M  V30 61 1 20 56
M  V30 62 1 21 57
M  V30 63 1 21 58
M  V30 64 1 21 59
M  V30 65 1 25 60
M  V30 66 1 26 61
M  V30 67 1 27 62
M  V30 68 1 28 63
M  V30 69 1 29 64
M  V30 70 1 31 65
M  V30 71 1 32 66
M  V30 72 1 33 67
M  V30 73 1 34 68
M  V30 74 1 36 69
M  V30 75 1 37 70
M  V30 76 1 40 71
M  V30 END BOND
M  V30 END CTAB
M  END
>  <Dataset>  (509) 
ChEMBL_Kinases

>  <Ligand_Instance>  (509) 
nan

>  <PDB_ID>  (509) 
nan

>  <Standardized_SMILES>  (509) 
Cc1nc2c(Oc3ccc(NC(=O)Nc4cc(C(C)(C)C)nn4-c4ccccc4)c4ccccc34)ccnc2[nH]c1=O

>  <Name>  (509) 
nan

>  <Pocket>  (509) 
nan

>  <ATP_Site>  (509) 
nan

>  <Peripheral>  (509) 
nan

>  <Num_H_Atoms_ProtBoundConf>  (509) 
nan

>  <Num_Resolved_Atoms>  (509) 
nan

>  <Num_Not_Resolved_Atoms>  (509) 
nan

$$$$
CHEMBL2088576
     RDKit          3D

  0  0  0  0  0  0  0  0  0  0999 V3000
M  V30 BEGIN CTAB
M  V30 COUNTS 57 60 0 0 0
M  V30 BEGIN ATOM
M  V30 1 C 5.501924 1.076515 3.754514 0
M  V30 2 C 6.132931 -0.026113 2.919204 0
M  V30 3 C 5.138701 -1.166473 2.714816 0
M  V30 4 N 3.974002 -0.643173 2.030147 0
M  V30 5 C 3.980756 -0.039186 0.743821 0
M  V30 6 O 5.091822 0.055350 0.130908 0
M  V30 7 C 2.797959 0.484219 0.069464 0
M  V30 8 C 2.982269 1.015914 -1.190328 0
M  V30 9 C 1.861581 1.523648 -1.849550 0
M  V30 10 C 0.572734 1.536748 -1.338132 0
M  V30 11 C -0.522400 2.116916 -2.153217 0
M  V30 12 C -1.312247 0.984462 -2.757639 0
M  V30 13 C 0.441895 0.995255 -0.079384 0
M  V30 14 C -0.872288 0.954351 0.551840 0
M  V30 15 C -1.118163 2.121614 1.261909 0
M  V30 16 O -0.354569 3.127223 1.380679 0
M  V30 17 C -2.317865 2.284361 1.949959 0
M  V30 18 C -3.236577 1.253112 1.896901 0
M  V30 19 N -2.980184 0.123942 1.201244 0
M  V30 20 N -3.855713 -0.884093 1.146511 0
M  V30 21 C -3.566713 -2.005507 0.446641 0
M  V30 22 O -4.613002 -2.912519 0.527742 0
M  V30 23 C -4.631409 -4.163057 -0.069240 0
M  V30 24 C -5.589922 -4.490706 -1.006115 0
M  V30 25 C -5.582842 -5.746076 -1.583647 0
M  V30 26 C -4.621148 -6.663612 -1.222874 0
M  V30 27 F -4.694295 -7.866046 -1.841572 0
M  V30 28 C -3.637673 -6.389953 -0.290556 0
M  V30 29 C -3.667540 -5.118331 0.276079 0
M  V30 30 F -2.689096 -4.862423 1.203105 0
M  V30 31 C -2.387168 -2.186740 -0.239777 0
M  V30 32 C -1.469149 -1.158350 -0.196639 0
M  V30 33 C -1.823367 -0.043733 0.532582 0
M  V30 34 C 1.542332 0.486290 0.591155 0
M  V30 35 H 6.272455 1.826002 3.962819 0
M  V30 36 H 4.637265 1.468533 3.199172 0
M  V30 37 H 5.141591 0.669045 4.720820 0
M  V30 38 H 6.463446 0.417201 1.976660 0
M  V30 39 H 7.016540 -0.397787 3.505073 0
M  V30 40 H 4.837376 -1.545242 3.690655 0
M  V30 41 H 5.647544 -1.951949 2.117103 0
M  V30 42 H 3.032039 -0.689774 2.475394 0
M  V30 43 H 3.939575 1.064506 -1.699567 0
M  V30 44 H 2.010831 1.942985 -2.845614 0
M  V30 45 H -1.157081 2.789099 -1.537626 0
M  V30 46 H -0.078944 2.692116 -3.000954 0
M  V30 47 H -1.482101 1.152995 -3.860266 0
M  V30 48 H -2.251548 0.754420 -2.256500 0
M  V30 49 H -0.709948 0.028700 -2.742552 0
M  V30 50 H -2.589987 3.162212 2.527933 0
M  V30 51 H -4.176929 1.365546 2.428208 0
M  V30 52 H -6.319413 -3.736123 -1.252426 0
M  V30 53 H -6.366468 -5.925088 -2.308111 0
M  V30 54 H -2.893811 -7.116978 -0.019661 0
M  V30 55 H -2.240599 -3.094349 -0.764497 0
M  V30 56 H -0.522158 -1.237190 -0.714317 0
M  V30 57 H 1.376759 0.073538 1.578792 0
M  V30 END ATOM
M  V30 BEGIN BOND
M  V30 1 1 1 2
M  V30 2 1 2 3
M  V30 3 1 3 4
M  V30 4 1 4 5
M  V30 5 2 5 6
M  V30 6 1 5 7
M  V30 7 2 7 8
M  V30 8 1 8 9
M  V30 9 2 9 10
M  V30 10 1 10 11
M  V30 11 1 11 12
M  V30 12 1 10 13
M  V30 13 1 13 14
M  V30 14 1 14 15
M  V30 15 2 15 16
M  V30 16 1 15 17
M  V30 17 2 17 18
M  V30 18 1 18 19
M  V30 19 1 19 20
M  V30 20 2 20 21
M  V30 21 1 21 22
M  V30 22 1 22 23
M  V30 23 2 23 24
M  V30 24 1 24 25
M  V30 25 2 25 26
M  V30 26 1 26 27
M  V30 27 1 26 28
M  V30 28 2 28 29
M  V30 29 1 29 30
M  V30 30 1 21 31
M  V30 31 2 31 32
M  V30 32 1 32 33
M  V30 33 2 13 34
M  V30 34 1 34 7
M  V30 35 2 33 14
M  V30 36 1 33 19
M  V30 37 1 29 23
M  V30 38 1 1 35
M  V30 39 1 1 36
M  V30 40 1 1 37
M  V30 41 1 2 38
M  V30 42 1 2 39
M  V30 43 1 3 40
M  V30 44 1 3 41
M  V30 45 1 4 42
M  V30 46 1 8 43
M  V30 47 1 9 44
M  V30 48 1 11 45
M  V30 49 1 11 46
M  V30 50 1 12 47
M  V30 51 1 12 48
M  V30 52 1 12 49
M  V30 53 1 17 50
M  V30 54 1 18 51
M  V30 55 1 24 52
M  V30 56 1 25 53
M  V30 57 1 28 54
M  V30 58 1 31 55
M  V30 59 1 32 56
M  V30 60 1 34 57
M  V30 END BOND
M  V30 END CTAB
M  END
>  <Dataset>  (510) 
ChEMBL_Kinases

>  <Ligand_Instance>  (510) 
nan

>  <PDB_ID>  (510) 
nan

>  <Standardized_SMILES>  (510) 
CCCNC(=O)c1ccc(CC)c(-c2c(=O)ccn3nc(Oc4ccc(F)cc4F)ccc23)c1

>  <Name>  (510) 
nan

>  <Pocket>  (510) 
nan

>  <ATP_Site>  (510) 
nan

>  <Peripheral>  (510) 
nan

>  <Num_H_Atoms_ProtBoundConf>  (510) 
nan

>  <Num_Resolved_Atoms>  (510) 
nan

>  <Num_Not_Resolved_Atoms>  (510) 
nan

$$$$
CHEMBL1214134
     RDKit          3D

  0  0  0  0  0  0  0  0  0  0999 V3000
M  V30 BEGIN CTAB
M  V30 COUNTS 71 76 0 0 0
M  V30 BEGIN ATOM
M  V30 1 C 3.389845 -4.014158 4.806684 0
M  V30 2 C 3.294204 -3.020250 3.681802 0
M  V30 3 C 4.314681 -2.081272 3.605339 0
M  V30 4 C 4.217971 -1.161664 2.557238 0
M  V30 5 C 3.161483 -1.191160 1.650086 0
M  V30 6 N 3.257389 -0.168124 0.664770 0
M  V30 7 N 4.044128 -0.117259 -0.418609 0
M  V30 8 C 3.827509 1.023154 -1.089019 0
M  V30 9 C 4.503434 1.462703 -2.351968 0
M  V30 10 C 5.496146 0.442860 -2.809367 0
M  V30 11 C 3.470084 1.597477 -3.474715 0
M  V30 12 C 5.119829 2.799752 -2.106919 0
M  V30 13 C 2.863988 1.755060 -0.428637 0
M  V30 14 C 2.535286 0.966398 0.667957 0
M  V30 15 N 1.541304 1.423236 1.599439 0
M  V30 16 C 0.205593 1.002892 1.250495 0
M  V30 17 O -0.051276 0.298120 0.217743 0
M  V30 18 N -0.947146 1.317695 1.998000 0
M  V30 19 C -2.242064 0.875538 1.606096 0
M  V30 20 C -3.069392 1.602530 0.776812 0
M  V30 21 C -4.332942 1.113840 0.426781 0
M  V30 22 C -4.793325 -0.115441 0.901651 0
M  V30 23 O -6.053045 -0.341247 0.402121 0
M  V30 24 C -6.348714 -1.398570 -0.406797 0
M  V30 25 C -7.255391 -2.459298 -0.298792 0
M  V30 26 C -7.379081 -3.430554 -1.264826 0
M  V30 27 N -6.624248 -3.399296 -2.365506 0
M  V30 28 C -5.729617 -2.392948 -2.519886 0
M  V30 29 N -5.032260 -2.472572 -3.665584 0
M  V30 30 C -4.115315 -1.527530 -3.926433 0
M  V30 31 O -3.392530 -1.471235 -4.949183 0
M  V30 32 C -3.946269 -0.530548 -2.998247 0
M  V30 33 N -4.652136 -0.471267 -1.863854 0
M  V30 34 C -5.580611 -1.396479 -1.562091 0
M  V30 35 C -3.943745 -0.810982 1.724784 0
M  V30 36 C -4.486616 -2.002020 2.144057 0
M  V30 37 C -3.758874 -2.813912 2.978919 0
M  V30 38 C -2.490032 -2.376850 3.360371 0
M  V30 39 C -1.976003 -1.164463 2.914975 0
M  V30 40 C -2.700605 -0.337844 2.073361 0
M  V30 41 C 2.176708 -2.150068 1.779101 0
M  V30 42 C 2.232493 -3.076172 2.797664 0
M  V30 43 H 4.355088 -4.585807 4.693174 0
M  V30 44 H 2.567045 -4.755917 4.741715 0
M  V30 45 H 3.317197 -3.539810 5.792481 0
M  V30 46 H 5.125683 -2.063213 4.306496 0
M  V30 47 H 5.032179 -0.446338 2.531652 0
M  V30 48 H 5.590851 0.513054 -3.908383 0
M  V30 49 H 5.154166 -0.580463 -2.564841 0
M  V30 50 H 6.522706 0.650325 -2.401695 0
M  V30 51 H 2.931148 0.638192 -3.623822 0
M  V30 52 H 4.008046 1.845053 -4.397030 0
M  V30 53 H 2.759525 2.406393 -3.257168 0
M  V30 54 H 5.701287 2.776953 -1.181759 0
M  V30 55 H 5.712057 3.056558 -3.008775 0
M  V30 56 H 4.276607 3.531849 -1.958229 0
M  V30 57 H 2.464666 2.719495 -0.709693 0
M  V30 58 H 1.662753 1.991503 2.451501 0
M  V30 59 H -0.820128 1.901878 2.873443 0
M  V30 60 H -2.658466 2.540633 0.444040 0
M  V30 61 H -4.843001 1.826592 -0.236014 0
M  V30 62 H -7.813425 -2.370258 0.648003 0
M  V30 63 H -8.145886 -4.148793 -0.961264 0
M  V30 64 H -5.160005 -3.228531 -4.370033 0
M  V30 65 H -3.231863 0.294630 -3.096028 0
M  V30 66 H -5.465107 -2.355822 1.867769 0
M  V30 67 H -4.101542 -3.755569 3.353445 0
M  V30 68 H -1.915397 -3.017647 4.019141 0
M  V30 69 H -0.983919 -0.847298 3.227584 0
M  V30 70 H 1.395469 -2.098924 1.031957 0
M  V30 71 H 1.448700 -3.816219 2.876119 0
M  V30 END ATOM
M  V30 BEGIN BOND
M  V30 1 1 1 2
M  V30 2 2 2 3
M  V30 3 1 3 4
M  V30 4 2 4 5
M  V30 5 1 5 6
M  V30 6 1 6 7
M  V30 7 2 7 8
M  V30 8 1 8 9
M  V30 9 1 9 10
M  V30 10 1 9 11
M  V30 11 1 9 12
M  V30 12 1 8 13
M  V30 13 2 13 14
M  V30 14 1 14 15
M  V30 15 1 15 16
M  V30 16 2 16 17
M  V30 17 1 16 18
M  V30 18 1 18 19
M  V30 19 2 19 20
M  V30 20 1 20 21
M  V30 21 2 21 22
M  V30 22 1 22 23
M  V30 23 1 23 24
M  V30 24 2 24 25
M  V30 25 1 25 26
M  V30 26 2 26 27
M  V30 27 1 27 28
M  V30 28 1 28 29
M  V30 29 1 29 30
M  V30 30 2 30 31
M  V30 31 1 30 32
M  V30 32 2 32 33
M  V30 33 1 33 34
M  V30 34 1 22 35
M  V30 35 2 35 36
M  V30 36 1 36 37
M  V30 37 2 37 38
M  V30 38 1 38 39
M  V30 39 2 39 40
M  V30 40 1 5 41
M  V30 41 2 41 42
M  V30 42 1 42 2
M  V30 43 1 14 6
M  V30 44 1 40 19
M  V30 45 1 34 24
M  V30 46 1 40 35
M  V30 47 2 34 28
M  V30 48 1 1 43
M  V30 49 1 1 44
M  V30 50 1 1 45
M  V30 51 1 3 46
M  V30 52 1 4 47
M  V30 53 1 10 48
M  V30 54 1 10 49
M  V30 55 1 10 50
M  V30 56 1 11 51
M  V30 57 1 11 52
M  V30 58 1 11 53
M  V30 59 1 12 54
M  V30 60 1 12 55
M  V30 61 1 12 56
M  V30 62 1 13 57
M  V30 63 1 15 58
M  V30 64 1 18 59
M  V30 65 1 20 60
M  V30 66 1 21 61
M  V30 67 1 25 62
M  V30 68 1 26 63
M  V30 69 1 29 64
M  V30 70 1 32 65
M  V30 71 1 36 66
M  V30 72 1 37 67
M  V30 73 1 38 68
M  V30 74 1 39 69
M  V30 75 1 41 70
M  V30 76 1 42 71
M  V30 END BOND
M  V30 END CTAB
M  END
>  <Dataset>  (511) 
ChEMBL_Kinases

>  <Ligand_Instance>  (511) 
nan

>  <PDB_ID>  (511) 
nan

>  <Standardized_SMILES>  (511) 
Cc1ccc(-n2nc(C(C)(C)C)cc2NC(=O)Nc2ccc(Oc3ccnc4[nH]c(=O)cnc34)c3ccccc23)cc1

>  <Name>  (511) 
nan

>  <Pocket>  (511) 
nan

>  <ATP_Site>  (511) 
nan

>  <Peripheral>  (511) 
nan

>  <Num_H_Atoms_ProtBoundConf>  (511) 
nan

>  <Num_Resolved_Atoms>  (511) 
nan

>  <Num_Not_Resolved_Atoms>  (511) 
nan

$$$$
CHEMBL2088575
     RDKit          3D

  0  0  0  0  0  0  0  0  0  0999 V3000
M  V30 BEGIN CTAB
M  V30 COUNTS 53 57 0 0 0
M  V30 BEGIN ATOM
M  V30 1 C -1.552244 1.609664 3.131199 0
M  V30 2 C -0.782961 2.375204 2.393259 0
M  V30 3 C 0.382332 1.743482 1.848844 0
M  V30 4 C 1.203160 2.528493 1.066245 0
M  V30 5 C 2.361308 2.030012 0.486657 0
M  V30 6 C 2.742261 0.702822 0.676397 0
M  V30 7 C 3.929761 0.062234 0.126300 0
M  V30 8 O 4.183133 -1.155106 0.356864 0
M  V30 9 N 4.853104 0.770217 -0.689476 0
M  V30 10 C 6.046102 0.140583 -1.246021 0
M  V30 11 C 7.213378 0.946795 -1.630782 0
M  V30 12 C 6.269407 0.531313 -2.707286 0
M  V30 13 C 1.890971 -0.042338 1.465650 0
M  V30 14 C 0.730100 0.423811 2.057132 0
M  V30 15 C -0.118273 -0.404470 2.872765 0
M  V30 16 C 0.134742 -0.455024 4.231774 0
M  V30 17 O 1.074757 0.192906 4.770943 0
M  V30 18 C -0.680849 -1.248543 5.013430 0
M  V30 19 C -1.708285 -1.955739 4.420500 0
M  V30 20 N -1.973669 -1.924532 3.112791 0
M  V30 21 N -2.967249 -2.608999 2.546780 0
M  V30 22 C -3.205445 -2.548235 1.201587 0
M  V30 23 O -4.289629 -3.351019 0.888362 0
M  V30 24 C -4.689826 -3.450550 -0.427920 0
M  V30 25 C -5.970206 -3.013591 -0.700008 0
M  V30 26 C -6.472308 -3.072399 -2.004471 0
M  V30 27 C -5.674091 -3.575017 -3.032009 0
M  V30 28 F -6.125448 -3.646308 -4.301356 0
M  V30 29 C -4.377933 -4.020210 -2.770210 0
M  V30 30 C -3.907619 -3.947364 -1.455177 0
M  V30 31 F -2.639832 -4.383451 -1.153343 0
M  V30 32 C -2.378581 -1.749235 0.440379 0
M  V30 33 C -1.367292 -1.048932 0.995845 0
M  V30 34 C -1.170477 -1.146725 2.362408 0
M  V30 35 H -2.412199 1.400111 3.749395 0
M  V30 36 H -2.399064 1.367915 3.751222 0
M  V30 37 H -1.046636 3.408786 2.231968 0
M  V30 38 H 0.928230 3.546800 0.908963 0
M  V30 39 H 3.024121 2.622641 -0.131696 0
M  V30 40 H 4.706088 1.767016 -0.916834 0
M  V30 41 H 6.170797 -0.928951 -0.980610 0
M  V30 42 H 7.297615 2.024180 -1.388074 0
M  V30 43 H 8.195404 0.429473 -1.667749 0
M  V30 44 H 6.542053 -0.317691 -3.366814 0
M  V30 45 H 5.656548 1.329473 -3.157036 0
M  V30 46 H 2.125748 -1.068166 1.651887 0
M  V30 47 H -0.533730 -1.334240 6.099817 0
M  V30 48 H -2.353443 -2.580977 5.027819 0
M  V30 49 H -6.669200 -2.612564 -0.003641 0
M  V30 50 H -7.463392 -2.752270 -2.305679 0
M  V30 51 H -3.735208 -4.412817 -3.536957 0
M  V30 52 H -2.659332 -1.773275 -0.597990 0
M  V30 53 H -0.750634 -0.439177 0.351558 0
M  V30 END ATOM
M  V30 BEGIN BOND
M  V30 1 2 1 2
M  V30 2 1 2 3
M  V30 3 2 3 4
M  V30 4 1 4 5
M  V30 5 2 5 6
M  V30 6 1 6 7
M  V30 7 2 7 8
M  V30 8 1 7 9
M  V30 9 1 9 10
M  V30 10 1 10 11
M  V30 11 1 11 12
M  V30 12 1 6 13
M  V30 13 2 13 14
M  V30 14 1 14 15
M  V30 15 1 15 16
M  V30 16 2 16 17
M  V30 17 1 16 18
M  V30 18 2 18 19
M  V30 19 1 19 20
M  V30 20 1 20 21
M  V30 21 2 21 22
M  V30 22 1 22 23
M  V30 23 1 23 24
M  V30 24 2 24 25
M  V30 25 1 25 26
M  V30 26 2 26 27
M  V30 27 1 27 28
M  V30 28 1 27 29
M  V30 29 2 29 30
M  V30 30 1 30 31
M  V30 31 1 22 32
M  V30 32 2 32 33
M  V30 33 1 33 34
M  V30 34 1 14 3
M  V30 35 2 34 15
M  V30 36 1 12 10
M  V30 37 1 34 20
M  V30 38 1 30 24
M  V30 39 1 1 35
M  V30 40 1 1 36
M  V30 41 1 2 37
M  V30 42 1 4 38
M  V30 43 1 5 39
M  V30 44 1 9 40
M  V30 45 1 10 41
M  V30 46 1 11 42
M  V30 47 1 11 43
M  V30 48 1 12 44
M  V30 49 1 12 45
M  V30 50 1 13 46
M  V30 51 1 18 47
M  V30 52 1 19 48
M  V30 53 1 25 49
M  V30 54 1 26 50
M  V30 55 1 29 51
M  V30 56 1 32 52
M  V30 57 1 33 53
M  V30 END BOND
M  V30 END CTAB
M  END
>  <Dataset>  (512) 
ChEMBL_Kinases

>  <Ligand_Instance>  (512) 
nan

>  <PDB_ID>  (512) 
nan

>  <Standardized_SMILES>  (512) 
C=Cc1ccc(C(=O)NC2CC2)cc1-c1c(=O)ccn2nc(Oc3ccc(F)cc3F)ccc12

>  <Name>  (512) 
nan

>  <Pocket>  (512) 
nan

>  <ATP_Site>  (512) 
nan

>  <Peripheral>  (512) 
nan

>  <Num_H_Atoms_ProtBoundConf>  (512) 
nan

>  <Num_Resolved_Atoms>  (512) 
nan

>  <Num_Not_Resolved_Atoms>  (512) 
nan

$$$$
CHEMBL1088633
     RDKit          3D

  0  0  0  0  0  0  0  0  0  0999 V3000
M  V30 BEGIN CTAB
M  V30 COUNTS 33 35 0 0 0
M  V30 BEGIN ATOM
M  V30 1 C -1.337504 -5.768398 1.872756 0
M  V30 2 O -1.292582 -4.581143 1.335516 0
M  V30 3 C -1.255341 -3.434831 0.809463 0
M  V30 4 C -1.718975 -2.587364 -0.165163 0
M  V30 5 C -1.351673 -1.282928 -0.371144 0
M  V30 6 C -0.437145 -0.675750 0.417873 0
M  V30 7 C 0.125616 -1.384774 1.438575 0
M  V30 8 C -0.291266 -2.712320 1.602555 0
M  V30 9 Cl 0.593625 -3.408176 2.980099 0
M  V30 10 C -0.045894 0.655260 0.027330 0
M  V30 11 C 0.945556 1.460616 0.706483 0
M  V30 12 C 1.629788 1.511000 1.886779 0
M  V30 13 C 2.688750 2.293248 2.292756 0
M  V30 14 C 3.182370 3.198152 1.404189 0
M  V30 15 C 2.603823 3.282047 0.162620 0
M  V30 16 Cl 3.262663 4.458915 -0.947592 0
M  V30 17 C 1.565130 2.443373 -0.099112 0
M  V30 18 N -0.588251 1.113879 -1.020530 0
M  V30 19 C -1.526501 0.598501 -1.927339 0
M  V30 20 C -2.116242 -0.723299 -1.519914 0
M  V30 21 H -0.364280 -5.974036 2.492618 0
M  V30 22 H -2.174368 -5.949791 2.652424 0
M  V30 23 H -1.419479 -6.713677 1.260159 0
M  V30 24 H -2.454583 -3.203566 -0.717155 0
M  V30 25 H 0.866064 -0.904402 2.024832 0
M  V30 26 H 1.194933 0.850938 2.618659 0
M  V30 27 H 3.056330 2.120749 3.297114 0
M  V30 28 H 4.005000 3.795263 1.734795 0
M  V30 29 H 1.206369 2.639750 -1.143034 0
M  V30 30 H -2.342345 1.370323 -2.090117 0
M  V30 31 H -1.034873 0.523031 -2.938650 0
M  V30 32 H -2.046254 -1.418134 -2.393865 0
M  V30 33 H -3.187482 -0.574527 -1.248871 0
M  V30 END ATOM
M  V30 BEGIN BOND
M  V30 1 1 1 2
M  V30 2 1 2 3
M  V30 3 2 3 4
M  V30 4 1 4 5
M  V30 5 2 5 6
M  V30 6 1 6 7
M  V30 7 2 7 8
M  V30 8 1 8 9
M  V30 9 1 6 10
M  V30 10 1 10 11
M  V30 11 2 11 12
M  V30 12 1 12 13
M  V30 13 2 13 14
M  V30 14 1 14 15
M  V30 15 1 15 16
M  V30 16 2 15 17
M  V30 17 2 10 18
M  V30 18 1 18 19
M  V30 19 1 19 20
M  V30 20 1 8 3
M  V30 21 1 17 11
M  V30 22 1 20 5
M  V30 23 1 1 21
M  V30 24 1 1 22
M  V30 25 1 1 23
M  V30 26 1 4 24
M  V30 27 1 7 25
M  V30 28 1 12 26
M  V30 29 1 13 27
M  V30 30 1 14 28
M  V30 31 1 17 29
M  V30 32 1 19 30
M  V30 33 1 19 31
M  V30 34 1 20 32
M  V30 35 1 20 33
M  V30 END BOND
M  V30 END CTAB
M  END
>  <Dataset>  (513) 
ChEMBL_Kinases

>  <Ligand_Instance>  (513) 
nan

>  <PDB_ID>  (513) 
nan

>  <Standardized_SMILES>  (513) 
COc1cc2c(cc1Cl)C(c1cccc(Cl)c1)=NCC2

>  <Name>  (513) 
nan

>  <Pocket>  (513) 
nan

>  <ATP_Site>  (513) 
nan

>  <Peripheral>  (513) 
nan

>  <Num_H_Atoms_ProtBoundConf>  (513) 
nan

>  <Num_Resolved_Atoms>  (513) 
nan

>  <Num_Not_Resolved_Atoms>  (513) 
nan

$$$$
CHEMBL1214135
     RDKit          3D

  0  0  0  0  0  0  0  0  0  0999 V3000
M  V30 BEGIN CTAB
M  V30 COUNTS 74 79 0 0 0
M  V30 BEGIN ATOM
M  V30 1 C 1.032843 -5.579417 5.045006 0
M  V30 2 C 1.525927 -5.063933 3.734865 0
M  V30 3 C 2.453669 -5.797333 2.988175 0
M  V30 4 C 2.865590 -5.246531 1.772557 0
M  V30 5 C 2.367596 -4.021125 1.334304 0
M  V30 6 N 2.936160 -3.675741 0.074913 0
M  V30 7 N 4.194845 -3.434990 -0.188597 0
M  V30 8 C 4.373833 -3.139095 -1.487844 0
M  V30 9 C 5.637046 -2.797232 -2.232645 0
M  V30 10 C 6.292405 -4.028490 -2.782031 0
M  V30 11 C 5.292644 -1.920375 -3.441612 0
M  V30 12 C 6.582233 -2.004937 -1.380948 0
M  V30 13 C 3.135413 -3.195705 -2.097965 0
M  V30 14 C 2.252592 -3.538557 -1.074050 0
M  V30 15 N 0.835834 -3.697752 -1.314011 0
M  V30 16 C -0.022506 -2.575628 -1.179580 0
M  V30 17 O 0.485668 -1.500193 -0.859313 0
M  V30 18 N -1.442076 -2.591341 -1.387351 0
M  V30 19 C -2.037013 -1.296550 -1.174548 0
M  V30 20 C -2.206129 -0.329461 -2.160912 0
M  V30 21 C -2.794354 0.864917 -1.796410 0
M  V30 22 C -3.226024 1.151824 -0.496955 0
M  V30 23 O -3.784351 2.406752 -0.362203 0
M  V30 24 C -3.279447 3.417412 0.432078 0
M  V30 25 C -2.147915 3.512964 1.248014 0
M  V30 26 C -1.877200 4.663158 1.945496 0
M  V30 27 N -2.676719 5.738563 1.878044 0
M  V30 28 C -3.784000 5.691848 1.100327 0
M  V30 29 N -4.501124 6.816868 1.112330 0
M  V30 30 C -5.621299 6.870080 0.371528 0
M  V30 31 O -6.313796 7.916214 0.365192 0
M  V30 32 C -5.973495 5.760899 -0.363227 0
M  V30 33 C -7.213598 5.846814 -1.170247 0
M  V30 34 N -5.235310 4.638540 -0.359654 0
M  V30 35 C -4.108695 4.547427 0.368589 0
M  V30 36 C -3.040704 0.165413 0.451316 0
M  V30 37 C -3.480321 0.473263 1.699666 0
M  V30 38 C -3.333304 -0.470737 2.694709 0
M  V30 39 C -2.752289 -1.704550 2.432474 0
M  V30 40 C -2.327913 -1.955451 1.146256 0
M  V30 41 C -2.455070 -1.041206 0.120073 0
M  V30 42 C 1.452754 -3.325227 2.098125 0
M  V30 43 C 1.031990 -3.850595 3.302294 0
M  V30 44 H 1.773599 -6.237016 5.535995 0
M  V30 45 H 0.771576 -4.702247 5.703304 0
M  V30 46 H 0.077371 -6.111546 4.858487 0
M  V30 47 H 2.804753 -6.742166 3.378426 0
M  V30 48 H 3.579375 -5.881563 1.269260 0
M  V30 49 H 5.557317 -4.783802 -3.085762 0
M  V30 50 H 6.889662 -3.729931 -3.671298 0
M  V30 51 H 6.999204 -4.399719 -2.006035 0
M  V30 52 H 4.941530 -2.537784 -4.285333 0
M  V30 53 H 4.480722 -1.211169 -3.156368 0
M  V30 54 H 6.190252 -1.338212 -3.672323 0
M  V30 55 H 7.287276 -2.626757 -0.790886 0
M  V30 56 H 6.005319 -1.339143 -0.711749 0
M  V30 57 H 7.189911 -1.347616 -2.046160 0
M  V30 58 H 2.920925 -3.010515 -3.143048 0
M  V30 59 H 0.358552 -4.564799 -1.581862 0
M  V30 60 H -1.870665 -3.510278 -1.660320 0
M  V30 61 H -1.871126 -0.569867 -3.137933 0
M  V30 62 H -2.885598 1.555588 -2.623405 0
M  V30 63 H -1.591254 2.589349 1.213086 0
M  V30 64 H -0.953236 4.529418 2.517703 0
M  V30 65 H -4.242371 7.662293 1.665612 0
M  V30 66 H -8.045356 6.322299 -0.595771 0
M  V30 67 H -7.075982 6.511883 -2.055362 0
M  V30 68 H -7.494091 4.824979 -1.484943 0
M  V30 69 H -3.943336 1.413319 1.946266 0
M  V30 70 H -3.668579 -0.263274 3.692574 0
M  V30 71 H -2.652977 -2.422266 3.239400 0
M  V30 72 H -1.878524 -2.918109 0.955785 0
M  V30 73 H 1.148029 -2.401049 1.653673 0
M  V30 74 H 0.319542 -3.276311 3.864222 0
M  V30 END ATOM
M  V30 BEGIN BOND
M  V30 1 1 1 2
M  V30 2 2 2 3
M  V30 3 1 3 4
M  V30 4 2 4 5
M  V30 5 1 5 6
M  V30 6 1 6 7
M  V30 7 2 7 8
M  V30 8 1 8 9
M  V30 9 1 9 10
M  V30 10 1 9 11
M  V30 11 1 9 12
M  V30 12 1 8 13
M  V30 13 2 13 14
M  V30 14 1 14 15
M  V30 15 1 15 16
M  V30 16 2 16 17
M  V30 17 1 16 18
M  V30 18 1 18 19
M  V30 19 2 19 20
M  V30 20 1 20 21
M  V30 21 2 21 22
M  V30 22 1 22 23
M  V30 23 1 23 24
M  V30 24 2 24 25
M  V30 25 1 25 26
M  V30 26 2 26 27
M  V30 27 1 27 28
M  V30 28 1 28 29
M  V30 29 1 29 30
M  V30 30 2 30 31
M  V30 31 1 30 32
M  V30 32 1 32 33
M  V30 33 2 32 34
M  V30 34 1 34 35
M  V30 35 1 22 36
M  V30 36 2 36 37
M  V30 37 1 37 38
M  V30 38 2 38 39
M  V30 39 1 39 40
M  V30 40 2 40 41
M  V30 41 1 5 42
M  V30 42 2 42 43
M  V30 43 1 43 2
M  V30 44 1 14 6
M  V30 45 1 41 19
M  V30 46 1 35 24
M  V30 47 1 41 36
M  V30 48 2 35 28
M  V30 49 1 1 44
M  V30 50 1 1 45
M  V30 51 1 1 46
M  V30 52 1 3 47
M  V30 53 1 4 48
M  V30 54 1 10 49
M  V30 55 1 10 50
M  V30 56 1 10 51
M  V30 57 1 11 52
M  V30 58 1 11 53
M  V30 59 1 11 54
M  V30 60 1 12 55
M  V30 61 1 12 56
M  V30 62 1 12 57
M  V30 63 1 13 58
M  V30 64 1 15 59
M  V30 65 1 18 60
M  V30 66 1 20 61
M  V30 67 1 21 62
M  V30 68 1 25 63
M  V30 69 1 26 64
M  V30 70 1 29 65
M  V30 71 1 33 66
M  V30 72 1 33 67
M  V30 73 1 33 68
M  V30 74 1 37 69
M  V30 75 1 38 70
M  V30 76 1 39 71
M  V30 77 1 40 72
M  V30 78 1 42 73
M  V30 79 1 43 74
M  V30 END BOND
M  V30 END CTAB
M  END
>  <Dataset>  (514) 
ChEMBL_Kinases

>  <Ligand_Instance>  (514) 
nan

>  <PDB_ID>  (514) 
nan

>  <Standardized_SMILES>  (514) 
Cc1ccc(-n2nc(C(C)(C)C)cc2NC(=O)Nc2ccc(Oc3ccnc4[nH]c(=O)c(C)nc34)c3ccccc23)cc1

>  <Name>  (514) 
nan

>  <Pocket>  (514) 
nan

>  <ATP_Site>  (514) 
nan

>  <Peripheral>  (514) 
nan

>  <Num_H_Atoms_ProtBoundConf>  (514) 
nan

>  <Num_Resolved_Atoms>  (514) 
nan

>  <Num_Not_Resolved_Atoms>  (514) 
nan

$$$$
CHEMBL1084715
     RDKit          3D

  0  0  0  0  0  0  0  0  0  0999 V3000
M  V30 BEGIN CTAB
M  V30 COUNTS 49 51 0 0 0
M  V30 BEGIN ATOM
M  V30 1 C 3.106551 -4.572421 2.847257 0
M  V30 2 C 3.666352 -4.917811 1.509247 0
M  V30 3 N 4.723459 -4.058496 1.043074 0
M  V30 4 C 4.602083 -2.662725 0.818212 0
M  V30 5 N 5.350207 -1.695768 0.371999 0
M  V30 6 C 4.880489 -0.490364 0.305932 0
M  V30 7 C 5.792615 0.564990 -0.215202 0
M  V30 8 C 3.628771 -0.174961 0.683497 0
M  V30 9 C 2.763431 1.015381 0.768735 0
M  V30 10 C 3.018913 2.275673 0.354734 0
M  V30 11 C 2.203467 3.375812 0.456551 0
M  V30 12 N 1.010809 3.134515 1.046087 0
M  V30 13 C 0.678085 1.917257 1.484321 0
M  V30 14 N -0.526646 1.499686 2.114671 0
M  V30 15 C -1.534088 0.707069 1.552160 0
M  V30 16 C -1.483814 0.173338 0.286164 0
M  V30 17 C -2.476268 -0.622601 -0.250464 0
M  V30 18 C -3.600624 -0.904942 0.536861 0
M  V30 19 C -4.586751 -1.783589 -0.142499 0
M  V30 20 N -5.511149 -0.963354 -0.901383 0
M  V30 21 C -6.570242 -0.246701 -0.284785 0
M  V30 22 C -7.457843 0.567966 -1.189014 0
M  V30 23 O -6.844597 -0.221698 0.937762 0
M  V30 24 C -3.654472 -0.371758 1.804223 0
M  V30 25 C -2.651728 0.420950 2.320140 0
M  V30 26 N 1.545461 0.919299 1.333947 0
M  V30 27 S 3.004228 -1.740189 1.201252 0
M  V30 28 H 3.831202 -4.877615 3.611570 0
M  V30 29 H 2.759445 -3.544822 2.966287 0
M  V30 30 H 2.222150 -5.257376 2.997480 0
M  V30 31 H 3.968508 -5.970686 1.502213 0
M  V30 32 H 2.829167 -4.859658 0.746933 0
M  V30 33 H 5.695355 -4.355947 0.818454 0
M  V30 34 H 5.896418 1.406976 0.524605 0
M  V30 35 H 6.845594 0.228160 -0.354808 0
M  V30 36 H 5.428192 1.004798 -1.161067 0
M  V30 37 H 3.957343 2.477008 -0.117133 0
M  V30 38 H 2.481894 4.352820 0.099189 0
M  V30 39 H -0.568283 1.864891 3.066524 0
M  V30 40 H -0.559741 0.458097 -0.244328 0
M  V30 41 H -2.227604 -0.930007 -1.255581 0
M  V30 42 H -5.156065 -2.375664 0.619449 0
M  V30 43 H -4.104060 -2.476807 -0.838585 0
M  V30 44 H -5.395569 -0.891962 -1.956940 0
M  V30 45 H -7.922527 1.388511 -0.614609 0
M  V30 46 H -8.267741 -0.065764 -1.606849 0
M  V30 47 H -6.910219 0.985847 -2.031275 0
M  V30 48 H -4.543175 -0.626767 2.361407 0
M  V30 49 H -2.744081 0.813957 3.319184 0
M  V30 END ATOM
M  V30 BEGIN BOND
M  V30 1 1 1 2
M  V30 2 1 2 3
M  V30 3 1 3 4
M  V30 4 2 4 5
M  V30 5 1 5 6
M  V30 6 1 6 7
M  V30 7 2 6 8
M  V30 8 1 8 9
M  V30 9 2 9 10
M  V30 10 1 10 11
M  V30 11 2 11 12
M  V30 12 1 12 13
M  V30 13 1 13 14
M  V30 14 1 14 15
M  V30 15 2 15 16
M  V30 16 1 16 17
M  V30 17 2 17 18
M  V30 18 1 18 19
M  V30 19 1 19 20
M  V30 20 1 20 21
M  V30 21 1 21 22
M  V30 22 2 21 23
M  V30 23 1 18 24
M  V30 24 2 24 25
M  V30 25 2 13 26
M  V30 26 1 8 27
M  V30 27 1 27 4
M  V30 28 1 26 9
M  V30 29 1 25 15
M  V30 30 1 1 28
M  V30 31 1 1 29
M  V30 32 1 1 30
M  V30 33 1 2 31
M  V30 34 1 2 32
M  V30 35 1 3 33
M  V30 36 1 7 34
M  V30 37 1 7 35
M  V30 38 1 7 36
M  V30 39 1 10 37
M  V30 40 1 11 38
M  V30 41 1 14 39
M  V30 42 1 16 40
M  V30 43 1 17 41
M  V30 44 1 19 42
M  V30 45 1 19 43
M  V30 46 1 20 44
M  V30 47 1 22 45
M  V30 48 1 22 46
M  V30 49 1 22 47
M  V30 50 1 24 48
M  V30 51 1 25 49
M  V30 END BOND
M  V30 END CTAB
M  END
>  <Dataset>  (515) 
ChEMBL_Kinases

>  <Ligand_Instance>  (515) 
nan

>  <PDB_ID>  (515) 
nan

>  <Standardized_SMILES>  (515) 
CCNc1nc(C)c(-c2ccnc(Nc3ccc(CNC(C)=O)cc3)n2)s1

>  <Name>  (515) 
nan

>  <Pocket>  (515) 
nan

>  <ATP_Site>  (515) 
nan

>  <Peripheral>  (515) 
nan

>  <Num_H_Atoms_ProtBoundConf>  (515) 
nan

>  <Num_Resolved_Atoms>  (515) 
nan

>  <Num_Not_Resolved_Atoms>  (515) 
nan

$$$$
CHEMBL4640708
     RDKit          3D

  0  0  0  0  0  0  0  0  0  0999 V3000
M  V30 BEGIN CTAB
M  V30 COUNTS 57 61 0 0 0
M  V30 BEGIN ATOM
M  V30 1 C 1.625491 -2.189278 5.301110 0
M  V30 2 C 2.612177 -2.115125 4.159231 0
M  V30 3 C 3.839172 -2.727161 4.204228 0
M  V30 4 C 4.755660 -2.700203 3.191673 0
M  V30 5 C 4.353679 -1.991598 2.070250 0
M  V30 6 C 3.109790 -1.361621 2.001551 0
M  V30 7 C 2.537139 -0.533972 0.989574 0
M  V30 8 N 2.894937 0.777579 0.872402 0
M  V30 9 N 2.189287 1.365413 -0.070462 0
M  V30 10 C 1.983851 2.730534 -0.577885 0
M  V30 11 C 0.758998 3.201248 0.233878 0
M  V30 12 S 0.166033 4.444263 1.142495 0
M  V30 13 N -0.489709 2.699317 0.542920 0
M  V30 14 C -1.752495 2.179002 0.848922 0
M  V30 15 C -1.715941 1.782175 2.195729 0
M  V30 16 C -2.805184 1.197449 2.839084 0
M  V30 17 C -3.929713 1.042616 2.030697 0
M  V30 18 C -3.913653 1.439729 0.735857 0
M  V30 19 C -2.882228 2.008874 0.085432 0
M  V30 20 F -2.768794 2.418684 -1.199017 0
M  V30 21 C 1.405945 0.396893 -0.535724 0
M  V30 22 C 1.577705 -0.833431 0.104344 0
M  V30 23 C 0.765599 -1.981788 -0.205463 0
M  V30 24 C 0.542860 -3.090217 0.569838 0
M  V30 25 C -0.407325 -4.053479 0.278173 0
M  V30 26 N -1.177935 -3.890881 -0.855932 0
M  V30 27 C -1.016236 -2.836621 -1.665945 0
M  V30 28 C -1.842650 -2.538892 -2.817247 0
M  V30 29 C -2.883481 -3.386396 -3.104699 0
M  V30 30 C -3.756656 -3.228618 -4.159405 0
M  V30 31 C -3.572259 -2.124361 -5.001172 0
M  V30 32 C -2.541349 -1.270609 -4.728757 0
M  V30 33 C -1.661960 -1.447693 -3.646012 0
M  V30 34 C -0.054095 -1.936452 -1.304488 0
M  V30 35 N 2.274580 -1.442876 3.051268 0
M  V30 36 H 0.827831 -2.911370 5.010144 0
M  V30 37 H 2.135440 -2.636098 6.156076 0
M  V30 38 H 1.161220 -1.221013 5.530146 0
M  V30 39 H 4.051693 -3.242081 5.130721 0
M  V30 40 H 5.716934 -3.178720 3.235513 0
M  V30 41 H 4.953035 -1.886689 1.200743 0
M  V30 42 H 2.816958 3.361282 -0.301109 0
M  V30 43 H 1.677298 2.701164 -1.603135 0
M  V30 44 H -0.287050 1.851934 0.020422 0
M  V30 45 H -0.891322 1.862792 2.924014 0
M  V30 46 H -2.873277 0.863633 3.848623 0
M  V30 47 H -4.820004 0.594112 2.431348 0
M  V30 48 H -4.824420 1.288098 0.135429 0
M  V30 49 H 0.707553 0.548951 -1.387024 0
M  V30 50 H 1.112607 -3.253158 1.440884 0
M  V30 51 H -0.554793 -4.902114 0.895526 0
M  V30 52 H -3.074454 -4.249402 -2.494059 0
M  V30 53 H -4.557179 -3.911935 -4.357420 0
M  V30 54 H -4.253582 -1.973504 -5.845610 0
M  V30 55 H -2.362535 -0.382328 -5.357547 0
M  V30 56 H -0.897119 -0.716737 -3.521137 0
M  V30 57 H 0.075942 -1.123070 -1.977906 0
M  V30 END ATOM
M  V30 BEGIN BOND
M  V30 1 1 1 2
M  V30 2 2 2 3
M  V30 3 1 3 4
M  V30 4 2 4 5
M  V30 5 1 5 6
M  V30 6 1 6 7
M  V30 7 2 7 8
M  V30 8 1 8 9
M  V30 9 1 9 10
M  V30 10 1 10 11
M  V30 11 2 11 12
M  V30 12 1 11 13
M  V30 13 1 13 14
M  V30 14 2 14 15
M  V30 15 1 15 16
M  V30 16 2 16 17
M  V30 17 1 17 18
M  V30 18 2 18 19
M  V30 19 1 19 20
M  V30 20 1 9 21
M  V30 21 2 21 22
M  V30 22 1 22 23
M  V30 23 2 23 24
M  V30 24 1 24 25
M  V30 25 2 25 26
M  V30 26 1 26 27
M  V30 27 1 27 28
M  V30 28 2 28 29
M  V30 29 1 29 30
M  V30 30 2 30 31
M  V30 31 1 31 32
M  V30 32 2 32 33
M  V30 33 2 27 34
M  V30 34 2 6 35
M  V30 35 1 35 2
M  V30 36 1 22 7
M  V30 37 1 34 23
M  V30 38 1 19 14
M  V30 39 1 33 28
M  V30 40 1 1 36
M  V30 41 1 1 37
M  V30 42 1 1 38
M  V30 43 1 3 39
M  V30 44 1 4 40
M  V30 45 1 5 41
M  V30 46 1 10 42
M  V30 47 1 10 43
M  V30 48 1 13 44
M  V30 49 1 15 45
M  V30 50 1 16 46
M  V30 51 1 17 47
M  V30 52 1 18 48
M  V30 53 1 21 49
M  V30 54 1 24 50
M  V30 55 1 25 51
M  V30 56 1 29 52
M  V30 57 1 30 53
M  V30 58 1 31 54
M  V30 59 1 32 55
M  V30 60 1 33 56
M  V30 61 1 34 57
M  V30 END BOND
M  V30 END CTAB
M  END
>  <Dataset>  (516) 
ChEMBL_Kinases

>  <Ligand_Instance>  (516) 
nan

>  <PDB_ID>  (516) 
nan

>  <Standardized_SMILES>  (516) 
Cc1cccc(-c2nn(CC(=S)Nc3ccccc3F)cc2-c2ccnc(-c3ccccc3)c2)n1

>  <Name>  (516) 
nan

>  <Pocket>  (516) 
nan

>  <ATP_Site>  (516) 
nan

>  <Peripheral>  (516) 
nan

>  <Num_H_Atoms_ProtBoundConf>  (516) 
nan

>  <Num_Resolved_Atoms>  (516) 
nan

>  <Num_Not_Resolved_Atoms>  (516) 
nan

$$$$
CHEMBL1099350
     RDKit          3D

  0  0  0  0  0  0  0  0  0  0999 V3000
M  V30 BEGIN CTAB
M  V30 COUNTS 80 86 0 0 0
M  V30 BEGIN ATOM
M  V30 1 C -4.068388 -6.976511 -3.273799 0
M  V30 2 C -4.190650 -5.472052 -3.345209 0
M  V30 3 N -2.999166 -4.857920 -2.781965 0
M  V30 4 C -1.848029 -4.511762 -3.427303 0
M  V30 5 C -1.031383 -3.964057 -2.430897 0
M  V30 6 C 0.288971 -3.506146 -2.877410 0
M  V30 7 C 1.227466 -4.356765 -3.437840 0
M  V30 8 C 2.438224 -3.819579 -3.822976 0
M  V30 9 N 2.740029 -2.520458 -3.678118 0
M  V30 10 C 1.828320 -1.672170 -3.129146 0
M  V30 11 N 1.857792 -0.342954 -2.866421 0
M  V30 12 C 0.697018 0.054584 -2.308519 0
M  V30 13 C 0.422631 1.433522 -1.911027 0
M  V30 14 C 1.405519 2.367718 -2.120999 0
M  V30 15 C 1.191960 3.698466 -1.758412 0
M  V30 16 C -0.021778 4.036250 -1.190916 0
M  V30 17 C -1.036302 3.106515 -0.967049 0
M  V30 18 C -2.342513 3.515389 -0.347043 0
M  V30 19 N -2.310982 3.411994 1.078548 0
M  V30 20 C -3.584335 3.814757 1.612102 0
M  V30 21 C -3.592742 3.796650 3.128514 0
M  V30 22 O -3.211836 2.539138 3.548925 0
M  V30 23 C -1.957879 2.198718 3.103141 0
M  V30 24 C -1.854318 2.153306 1.588146 0
M  V30 25 C -0.773214 1.800990 -1.344725 0
M  V30 26 C -0.098641 -1.069947 -2.214929 0
M  V30 27 C 0.597577 -2.166855 -2.727033 0
M  V30 28 C -1.698231 -3.991850 -1.225707 0
M  V30 29 C -1.075043 -3.484350 -0.034746 0
M  V30 30 C 0.076858 -4.197912 0.314944 0
M  V30 31 C 0.824875 -3.865368 1.434350 0
M  V30 32 C 0.391412 -2.800520 2.195553 0
M  V30 33 N 1.091812 -2.371044 3.376040 0
M  V30 34 C 2.087713 -1.388950 3.098785 0
M  V30 35 O 2.209631 -1.045969 1.892004 0
M  V30 36 N 2.924563 -0.800917 4.114798 0
M  V30 37 C 3.898002 0.183405 3.715415 0
M  V30 38 C 3.611788 1.551643 3.668266 0
M  V30 39 C 4.598490 2.438137 3.274495 0
M  V30 40 C 5.864645 1.963155 2.929295 0
M  V30 41 C 6.145433 0.599410 2.977677 0
M  V30 42 C 5.155857 -0.265106 3.370156 0
M  V30 43 C -0.739175 -2.083196 1.871351 0
M  V30 44 C -1.481439 -2.415588 0.757857 0
M  V30 45 N -2.905655 -4.556552 -1.519217 0
M  V30 46 H -3.716720 -7.419695 -4.238611 0
M  V30 47 H -3.339768 -7.280512 -2.489110 0
M  V30 48 H -5.040056 -7.426185 -2.967298 0
M  V30 49 H -4.269838 -5.218533 -4.442026 0
M  V30 50 H -5.109440 -5.094812 -2.861474 0
M  V30 51 H -1.737668 -4.686283 -4.488939 0
M  V30 52 H 0.968716 -5.402447 -3.547947 0
M  V30 53 H 3.183223 -4.471833 -4.263082 0
M  V30 54 H 2.693737 0.223905 -3.091833 0
M  V30 55 H 2.380428 2.178438 -2.559869 0
M  V30 56 H 1.950445 4.450237 -1.914050 0
M  V30 57 H -0.202330 5.067543 -0.903762 0
M  V30 58 H -2.514942 4.588413 -0.585267 0
M  V30 59 H -3.164499 2.914154 -0.798136 0
M  V30 60 H -3.828989 4.824188 1.258402 0
M  V30 61 H -4.394332 3.121099 1.282744 0
M  V30 62 H -4.638631 3.952770 3.437115 0
M  V30 63 H -2.974229 4.625574 3.543129 0
M  V30 64 H -1.246850 2.943453 3.524483 0
M  V30 65 H -1.670424 1.213424 3.487763 0
M  V30 66 H -0.773306 2.031044 1.369444 0
M  V30 67 H -2.414160 1.273712 1.244139 0
M  V30 68 H -1.544645 1.035594 -1.186557 0
M  V30 69 H -1.083869 -1.083674 -1.813996 0
M  V30 70 H 0.475244 -5.044201 -0.236247 0
M  V30 71 H 1.708281 -4.397101 1.719931 0
M  V30 72 H 0.955980 -2.681718 4.344418 0
M  V30 73 H 2.755915 -1.142413 5.084156 0
M  V30 74 H 2.600204 1.821550 3.954927 0
M  V30 75 H 4.340863 3.489801 3.249931 0
M  V30 76 H 6.636267 2.679525 2.619066 0
M  V30 77 H 7.139123 0.246226 2.704829 0
M  V30 78 H 5.383938 -1.316759 3.403900 0
M  V30 79 H -1.110394 -1.253585 2.430983 0
M  V30 80 H -2.380748 -1.948697 0.383697 0
M  V30 END ATOM
M  V30 BEGIN BOND
M  V30 1 1 1 2
M  V30 2 1 2 3
M  V30 3 1 3 4
M  V30 4 2 4 5
M  V30 5 1 5 6
M  V30 6 2 6 7
M  V30 7 1 7 8
M  V30 8 2 8 9
M  V30 9 1 9 10
M  V30 10 1 10 11
M  V30 11 1 11 12
M  V30 12 1 12 13
M  V30 13 2 13 14
M  V30 14 1 14 15
M  V30 15 2 15 16
M  V30 16 1 16 17
M  V30 17 1 17 18
M  V30 18 1 18 19
M  V30 19 1 19 20
M  V30 20 1 20 21
M  V30 21 1 21 22
M  V30 22 1 22 23
M  V30 23 1 23 24
M  V30 24 2 17 25
M  V30 25 2 12 26
M  V30 26 1 26 27
M  V30 27 1 5 28
M  V30 28 1 28 29
M  V30 29 2 29 30
M  V30 30 1 30 31
M  V30 31 2 31 32
M  V30 32 1 32 33
M  V30 33 1 33 34
M  V30 34 2 34 35
M  V30 35 1 34 36
M  V30 36 1 36 37
M  V30 37 2 37 38
M  V30 38 1 38 39
M  V30 39 2 39 40
M  V30 40 1 40 41
M  V30 41 2 41 42
M  V30 42 1 32 43
M  V30 43 2 43 44
M  V30 44 2 28 45
M  V30 45 1 45 3
M  V30 46 1 27 6
M  V30 47 1 44 29
M  V30 48 2 27 10
M  V30 49 1 42 37
M  V30 50 1 25 13
M  V30 51 1 24 19
M  V30 52 1 1 46
M  V30 53 1 1 47
M  V30 54 1 1 48
M  V30 55 1 2 49
M  V30 56 1 2 50
M  V30 57 1 4 51
M  V30 58 1 7 52
M  V30 59 1 8 53
M  V30 60 1 11 54
M  V30 61 1 14 55
M  V30 62 1 15 56
M  V30 63 1 16 57
M  V30 64 1 18 58
M  V30 65 1 18 59
M  V30 66 1 20 60
M  V30 67 1 20 61
M  V30 68 1 21 62
M  V30 69 1 21 63
M  V30 70 1 23 64
M  V30 71 1 23 65
M  V30 72 1 24 66
M  V30 73 1 24 67
M  V30 74 1 25 68
M  V30 75 1 26 69
M  V30 76 1 30 70
M  V30 77 1 31 71
M  V30 78 1 33 72
M  V30 79 1 36 73
M  V30 80 1 38 74
M  V30 81 1 39 75
M  V30 82 1 40 76
M  V30 83 1 41 77
M  V30 84 1 42 78
M  V30 85 1 43 79
M  V30 86 1 44 80
M  V30 END BOND
M  V30 END CTAB
M  END
>  <Dataset>  (517) 
ChEMBL_Kinases

>  <Ligand_Instance>  (517) 
nan

>  <PDB_ID>  (517) 
nan

>  <Standardized_SMILES>  (517) 
CCn1cc(-c2ccnc3[nH]c(-c4cccc(CN5CCOCC5)c4)cc23)c(-c2ccc(NC(=O)Nc3ccccc3)cc2)n1

>  <Name>  (517) 
nan

>  <Pocket>  (517) 
nan

>  <ATP_Site>  (517) 
nan

>  <Peripheral>  (517) 
nan

>  <Num_H_Atoms_ProtBoundConf>  (517) 
nan

>  <Num_Resolved_Atoms>  (517) 
nan

>  <Num_Not_Resolved_Atoms>  (517) 
nan

$$$$
CHEMBL2070424
     RDKit          3D

  0  0  0  0  0  0  0  0  0  0999 V3000
M  V30 BEGIN CTAB
M  V30 COUNTS 67 70 0 0 0
M  V30 BEGIN ATOM
M  V30 1 C 4.258993 -5.439420 2.407790 0
M  V30 2 C 5.560640 -5.804041 1.724220 0
M  V30 3 N 5.665394 -5.390632 0.392556 0
M  V30 4 C 4.901898 -5.930128 -0.629616 0
M  V30 5 C 3.428150 -5.624853 -0.605941 0
M  V30 6 C 6.512650 -4.277638 0.219211 0
M  V30 7 C 6.637900 -3.745347 -1.184688 0
M  V30 8 O 5.442370 -3.326418 -1.693369 0
M  V30 9 C 4.561172 -2.341073 -1.345908 0
M  V30 10 C 3.484220 -2.398322 -2.223898 0
M  V30 11 C 2.406802 -1.490812 -2.104839 0
M  V30 12 C 2.459501 -0.550986 -1.094069 0
M  V30 13 N 1.404459 0.387631 -0.906250 0
M  V30 14 C 1.050027 1.685714 -1.355220 0
M  V30 15 O 1.869468 2.215686 -2.163891 0
M  V30 16 C -0.181886 2.209011 -0.829801 0
M  V30 17 C -0.783083 3.320318 -1.279049 0
M  V30 18 C -2.030246 3.693825 -0.620852 0
M  V30 19 C -2.987624 2.730427 -0.305217 0
M  V30 20 C -4.146868 3.103386 0.347901 0
M  V30 21 C -4.418850 4.384997 0.709375 0
M  V30 22 O -5.629925 4.660909 1.375353 0
M  V30 23 C -6.472292 3.598276 1.742261 0
M  V30 24 C -6.101708 3.210636 3.038488 0
M  V30 25 C -6.781977 2.157209 3.664607 0
M  V30 26 C -7.796596 1.522565 3.003505 0
M  V30 27 C -8.488563 0.429221 3.673142 0
M  V30 28 N -9.542852 -0.334111 3.090204 0
M  V30 29 O -8.182061 0.090884 4.837179 0
M  V30 30 C -8.141436 1.919631 1.736175 0
M  V30 31 C -7.496199 2.947207 1.094265 0
M  V30 32 C -3.505451 5.353690 0.415188 0
M  V30 33 C -2.330588 5.005436 -0.240125 0
M  V30 34 S -0.700059 1.113209 0.511760 0
M  V30 35 C 0.459291 -0.199897 0.014110 0
M  V30 36 S 0.078064 -1.591111 0.742540 0
M  V30 37 C 3.514643 -0.461288 -0.201137 0
M  V30 38 C 4.527896 -1.370830 -0.370711 0
M  V30 39 H 3.438182 -6.112076 2.084069 0
M  V30 40 H 4.038270 -4.369014 2.260525 0
M  V30 41 H 4.319457 -5.584405 3.510387 0
M  V30 42 H 6.356744 -5.280119 2.315891 0
M  V30 43 H 5.806161 -6.890342 1.899013 0
M  V30 44 H 5.289232 -5.631621 -1.626260 0
M  V30 45 H 4.961591 -7.074413 -0.690115 0
M  V30 46 H 2.827060 -6.464465 -0.203255 0
M  V30 47 H 3.082856 -5.501933 -1.651987 0
M  V30 48 H 3.273589 -4.660104 -0.106336 0
M  V30 49 H 7.529361 -4.575208 0.619864 0
M  V30 50 H 6.152675 -3.435569 0.863029 0
M  V30 51 H 7.424705 -2.952525 -1.248288 0
M  V30 52 H 6.997039 -4.612375 -1.816193 0
M  V30 53 H 3.266099 -3.065400 -3.075511 0
M  V30 54 H 1.531194 -1.456777 -2.736672 0
M  V30 55 H -0.334273 3.890446 -2.094931 0
M  V30 56 H -2.876375 1.684645 -0.554943 0
M  V30 57 H -4.883778 2.333506 0.587966 0
M  V30 58 H -5.323333 3.624368 3.672422 0
M  V30 59 H -6.528596 1.820773 4.679175 0
M  V30 60 H -10.524055 -0.576332 3.247872 0
M  V30 61 H -9.465462 -0.901320 2.206907 0
M  V30 62 H -8.932972 1.448601 1.176262 0
M  V30 63 H -7.646106 3.361171 0.122748 0
M  V30 64 H -3.712463 6.383511 0.700974 0
M  V30 65 H -1.580803 5.766864 -0.488001 0
M  V30 66 H 3.628086 0.229902 0.597746 0
M  V30 67 H 5.391404 -1.362963 0.267166 0
M  V30 END ATOM
M  V30 BEGIN BOND
M  V30 1 1 1 2
M  V30 2 1 2 3
M  V30 3 1 3 4
M  V30 4 1 4 5
M  V30 5 1 3 6
M  V30 6 1 6 7
M  V30 7 1 7 8
M  V30 8 1 8 9
M  V30 9 2 9 10
M  V30 10 1 10 11
M  V30 11 2 11 12
M  V30 12 1 12 13
M  V30 13 1 13 14
M  V30 14 2 14 15
M  V30 15 1 14 16
M  V30 16 2 16 17
M  V30 17 1 17 18
M  V30 18 2 18 19
M  V30 19 1 19 20
M  V30 20 2 20 21
M  V30 21 1 21 22
M  V30 22 1 22 23
M  V30 23 2 23 24
M  V30 24 1 24 25
M  V30 25 2 25 26
M  V30 26 1 26 27
M  V30 27 1 27 28
M  V30 28 2 27 29
M  V30 29 1 26 30
M  V30 30 2 30 31
M  V30 31 1 21 32
M  V30 32 2 32 33
M  V30 33 1 16 34
M  V30 34 1 34 35
M  V30 35 2 35 36
M  V30 36 1 12 37
M  V30 37 2 37 38
M  V30 38 1 38 9
M  V30 39 1 35 13
M  V30 40 1 33 18
M  V30 41 1 31 23
M  V30 42 1 1 39
M  V30 43 1 1 40
M  V30 44 1 1 41
M  V30 45 1 2 42
M  V30 46 1 2 43
M  V30 47 1 4 44
M  V30 48 1 4 45
M  V30 49 1 5 46
M  V30 50 1 5 47
M  V30 51 1 5 48
M  V30 52 1 6 49
M  V30 53 1 6 50
M  V30 54 1 7 51
M  V30 55 1 7 52
M  V30 56 1 10 53
M  V30 57 1 11 54
M  V30 58 1 17 55
M  V30 59 1 19 56
M  V30 60 1 20 57
M  V30 61 1 24 58
M  V30 62 1 25 59
M  V30 63 1 28 60
M  V30 64 1 28 61
M  V30 65 1 30 62
M  V30 66 1 31 63
M  V30 67 1 32 64
M  V30 68 1 33 65
M  V30 69 1 37 66
M  V30 70 1 38 67
M  V30 END BOND
M  V30 END CTAB
M  END
>  <Dataset>  (518) 
ChEMBL_Kinases

>  <Ligand_Instance>  (518) 
nan

>  <PDB_ID>  (518) 
nan

>  <Standardized_SMILES>  (518) 
CCN(CC)CCOc1ccc(N2C(=O)/C(=C/c3ccc(Oc4ccc(C(N)=O)cc4)cc3)SC2=S)cc1

>  <Name>  (518) 
nan

>  <Pocket>  (518) 
nan

>  <ATP_Site>  (518) 
nan

>  <Peripheral>  (518) 
nan

>  <Num_H_Atoms_ProtBoundConf>  (518) 
nan

>  <Num_Resolved_Atoms>  (518) 
nan

>  <Num_Not_Resolved_Atoms>  (518) 
nan

$$$$
CHEMBL2070426
     RDKit          3D

  0  0  0  0  0  0  0  0  0  0999 V3000
M  V30 BEGIN CTAB
M  V30 COUNTS 68 72 0 0 0
M  V30 BEGIN ATOM
M  V30 1 N 7.413151 -0.030536 2.203760 0
M  V30 2 C 8.597503 0.718942 2.411181 0
M  V30 3 O 9.690570 0.101225 2.504113 0
M  V30 4 C 8.549591 2.172005 2.514093 0
M  V30 5 C 9.703606 2.896464 2.725322 0
M  V30 6 C 9.606377 4.290428 2.815388 0
M  V30 7 C 8.385940 4.939978 2.696934 0
M  V30 8 C 7.233895 4.214252 2.485785 0
M  V30 9 O 5.944124 4.768952 2.350580 0
M  V30 10 C 4.818800 3.941770 2.153559 0
M  V30 11 C 4.383409 3.556570 0.895880 0
M  V30 12 C 3.255236 2.733078 0.807316 0
M  V30 13 C 2.573691 2.300325 1.925125 0
M  V30 14 C 1.400745 1.444045 1.819969 0
M  V30 15 C 0.467293 1.516405 0.924699 0
M  V30 16 S 0.470969 2.757017 -0.405109 0
M  V30 17 C -0.416050 1.636934 -1.534511 0
M  V30 18 S -0.070332 1.820423 -3.105477 0
M  V30 19 N -1.223048 0.833208 -0.678201 0
M  V30 20 C -2.361453 0.186824 -1.218662 0
M  V30 21 C -3.001473 -0.685086 -0.381102 0
M  V30 22 C -4.126781 -1.355685 -0.809725 0
M  V30 23 C -4.692145 -1.224898 -2.059726 0
M  V30 24 O -5.730101 -1.733751 -2.709696 0
M  V30 25 C -6.743648 -2.605006 -2.574957 0
M  V30 26 C -6.499257 -4.060839 -2.388696 0
M  V30 27 C -5.708317 -4.498003 -1.223789 0
M  V30 28 N -5.549495 -5.959554 -1.110903 0
M  V30 29 C -4.671649 -6.272938 0.000648 0
M  V30 30 C -5.370233 -7.210201 0.921758 0
M  V30 31 C -6.790349 -7.268248 0.466227 0
M  V30 32 C -6.811245 -6.579718 -0.884909 0
M  V30 33 C -3.995885 -0.320417 -2.872324 0
M  V30 34 C -2.864621 0.371262 -2.477425 0
M  V30 35 C -0.734115 0.776679 0.647233 0
M  V30 36 O -1.195405 0.163718 1.656421 0
M  V30 37 C 3.006464 2.683589 3.180057 0
M  V30 38 C 4.134964 3.507781 3.281037 0
M  V30 39 C 7.336199 2.822646 2.396506 0
M  V30 40 H 6.736378 0.230202 1.432936 0
M  V30 41 H 6.914406 -0.848905 2.591216 0
M  V30 42 H 10.630930 2.362469 2.812735 0
M  V30 43 H 10.497146 4.848983 2.979254 0
M  V30 44 H 8.276777 6.003845 2.761433 0
M  V30 45 H 4.911293 3.892737 0.042112 0
M  V30 46 H 2.971194 2.468022 -0.187952 0
M  V30 47 H 1.275328 0.656707 2.559144 0
M  V30 48 H -2.799272 -0.988064 0.621749 0
M  V30 49 H -4.714179 -2.060044 -0.201820 0
M  V30 50 H -7.473807 -2.264522 -1.763495 0
M  V30 51 H -7.370848 -2.532626 -3.536705 0
M  V30 52 H -6.082993 -4.498226 -3.357245 0
M  V30 53 H -7.519413 -4.539059 -2.340153 0
M  V30 54 H -6.043177 -4.137970 -0.255479 0
M  V30 55 H -4.649776 -4.111014 -1.375731 0
M  V30 56 H -3.738603 -6.729940 -0.435326 0
M  V30 57 H -4.352072 -5.323117 0.497475 0
M  V30 58 H -5.288191 -6.827683 1.974295 0
M  V30 59 H -4.921309 -8.235752 0.853699 0
M  V30 60 H -7.167866 -8.295207 0.360617 0
M  V30 61 H -7.479024 -6.745164 1.184485 0
M  V30 62 H -7.671935 -5.895986 -0.925543 0
M  V30 63 H -6.987494 -7.358524 -1.671996 0
M  V30 64 H -4.275610 -0.071597 -3.897952 0
M  V30 65 H -2.368934 1.064741 -3.139629 0
M  V30 66 H 2.510936 2.375802 4.103260 0
M  V30 67 H 4.490905 3.821248 4.270877 0
M  V30 68 H 6.455063 2.208141 2.230129 0
M  V30 END ATOM
M  V30 BEGIN BOND
M  V30 1 1 1 2
M  V30 2 2 2 3
M  V30 3 1 2 4
M  V30 4 2 4 5
M  V30 5 1 5 6
M  V30 6 2 6 7
M  V30 7 1 7 8
M  V30 8 1 8 9
M  V30 9 1 9 10
M  V30 10 2 10 11
M  V30 11 1 11 12
M  V30 12 2 12 13
M  V30 13 1 13 14
M  V30 14 2 14 15
M  V30 15 1 15 16
M  V30 16 1 16 17
M  V30 17 2 17 18
M  V30 18 1 17 19
M  V30 19 1 19 20
M  V30 20 2 20 21
M  V30 21 1 21 22
M  V30 22 2 22 23
M  V30 23 1 23 24
M  V30 24 1 24 25
M  V30 25 1 25 26
M  V30 26 1 26 27
M  V30 27 1 27 28
M  V30 28 1 28 29
M  V30 29 1 29 30
M  V30 30 1 30 31
M  V30 31 1 31 32
M  V30 32 1 23 33
M  V30 33 2 33 34
M  V30 34 1 19 35
M  V30 35 2 35 36
M  V30 36 1 13 37
M  V30 37 2 37 38
M  V30 38 2 8 39
M  V30 39 1 39 4
M  V30 40 1 38 10
M  V30 41 1 35 15
M  V30 42 1 34 20
M  V30 43 1 32 28
M  V30 44 1 1 40
M  V30 45 1 1 41
M  V30 46 1 5 42
M  V30 47 1 6 43
M  V30 48 1 7 44
M  V30 49 1 11 45
M  V30 50 1 12 46
M  V30 51 1 14 47
M  V30 52 1 21 48
M  V30 53 1 22 49
M  V30 54 1 25 50
M  V30 55 1 25 51
M  V30 56 1 26 52
M  V30 57 1 26 53
M  V30 58 1 27 54
M  V30 59 1 27 55
M  V30 60 1 29 56
M  V30 61 1 29 57
M  V30 62 1 30 58
M  V30 63 1 30 59
M  V30 64 1 31 60
M  V30 65 1 31 61
M  V30 66 1 32 62
M  V30 67 1 32 63
M  V30 68 1 33 64
M  V30 69 1 34 65
M  V30 70 1 37 66
M  V30 71 1 38 67
M  V30 72 1 39 68
M  V30 END BOND
M  V30 END CTAB
M  END
>  <Dataset>  (519) 
ChEMBL_Kinases

>  <Ligand_Instance>  (519) 
nan

>  <PDB_ID>  (519) 
nan

>  <Standardized_SMILES>  (519) 
NC(=O)c1cccc(Oc2ccc(/C=C3\SC(=S)N(c4ccc(OCCCN5CCCC5)cc4)C3=O)cc2)c1

>  <Name>  (519) 
nan

>  <Pocket>  (519) 
nan

>  <ATP_Site>  (519) 
nan

>  <Peripheral>  (519) 
nan

>  <Num_H_Atoms_ProtBoundConf>  (519) 
nan

>  <Num_Resolved_Atoms>  (519) 
nan

>  <Num_Not_Resolved_Atoms>  (519) 
nan

$$$$
CHEMBL2070432
     RDKit          3D

  0  0  0  0  0  0  0  0  0  0999 V3000
M  V30 BEGIN CTAB
M  V30 COUNTS 70 73 0 0 0
M  V30 BEGIN ATOM
M  V30 1 C 10.196442 -3.262877 0.095927 0
M  V30 2 C 8.972706 -4.162086 0.207884 0
M  V30 3 N 7.866910 -3.750832 -0.551504 0
M  V30 4 C 6.723735 -4.571713 -0.451840 0
M  V30 5 C 6.025635 -4.551454 0.897699 0
M  V30 6 C 7.655551 -2.404403 -0.842999 0
M  V30 7 C 6.348351 -2.114873 -1.594976 0
M  V30 8 C 6.312079 -0.638302 -1.834013 0
M  V30 9 O 5.212990 -0.128435 -2.482726 0
M  V30 10 C 3.896629 -0.107208 -2.167184 0
M  V30 11 C 3.126498 -0.551985 -1.117422 0
M  V30 12 C 1.759825 -0.387855 -1.057863 0
M  V30 13 C 1.098927 0.251434 -2.087461 0
M  V30 14 N -0.309208 0.334563 -1.846150 0
M  V30 15 C -0.886795 1.446413 -1.152050 0
M  V30 16 O -0.222667 2.439186 -0.698178 0
M  V30 17 C -2.327931 1.390133 -0.980752 0
M  V30 18 C -3.051263 2.080401 -0.136146 0
M  V30 19 C -4.498390 1.906852 -0.088482 0
M  V30 20 C -5.009904 1.959127 1.211271 0
M  V30 21 C -6.371450 1.818809 1.455651 0
M  V30 22 C -7.238953 1.621608 0.372106 0
M  V30 23 O -8.593207 1.482602 0.635674 0
M  V30 24 C -8.981702 1.539841 1.976961 0
M  V30 25 C -9.350079 2.673198 2.667639 0
M  V30 26 C -9.713504 2.574839 4.003695 0
M  V30 27 C -9.711064 1.339025 4.660864 0
M  V30 28 C -9.341659 0.196588 3.971157 0
M  V30 29 C -9.323060 -1.111544 4.605398 0
M  V30 30 N -9.697241 -1.246104 5.967469 0
M  V30 31 O -8.998868 -2.197115 4.065264 0
M  V30 32 C -8.983318 0.319937 2.639381 0
M  V30 33 C -6.719784 1.572183 -0.905387 0
M  V30 34 C -5.359507 1.712593 -1.146587 0
M  V30 35 S -2.864918 0.153992 -2.188238 0
M  V30 36 C -1.242433 -0.655695 -2.262233 0
M  V30 37 S -0.886302 -2.184684 -2.705343 0
M  V30 38 C 1.824574 0.715425 -3.162448 0
M  V30 39 C 3.199035 0.538097 -3.199663 0
M  V30 40 H 9.882640 -2.204827 0.198488 0
M  V30 41 H 10.820836 -3.467959 0.990773 0
M  V30 42 H 10.807159 -3.475490 -0.799548 0
M  V30 43 H 8.721102 -4.190863 1.309597 0
M  V30 44 H 9.345847 -5.181397 -0.033224 0
M  V30 45 H 7.055516 -5.637174 -0.652985 0
M  V30 46 H 5.973675 -4.346861 -1.240836 0
M  V30 47 H 5.149170 -5.259780 0.804330 0
M  V30 48 H 5.623717 -3.580656 1.175688 0
M  V30 49 H 6.661206 -4.998051 1.693227 0
M  V30 50 H 8.479022 -1.986884 -1.496714 0
M  V30 51 H 7.618857 -1.719985 0.033808 0
M  V30 52 H 6.316166 -2.713253 -2.512202 0
M  V30 53 H 5.527791 -2.421161 -0.917163 0
M  V30 54 H 7.215147 -0.355848 -2.454872 0
M  V30 55 H 6.402706 -0.122536 -0.849785 0
M  V30 56 H 3.730438 -1.029917 -0.361669 0
M  V30 57 H 1.338396 -0.807479 -0.150491 0
M  V30 58 H -2.549762 2.778352 0.520178 0
M  V30 59 H -4.380931 2.111345 2.104028 0
M  V30 60 H -6.731218 1.866096 2.493397 0
M  V30 61 H -9.337095 3.595454 2.125017 0
M  V30 62 H -10.005599 3.468676 4.553519 0
M  V30 63 H -9.996011 1.245227 5.718348 0
M  V30 64 H -9.986678 -0.813742 6.868077 0
M  V30 65 H -9.781573 -2.107212 6.512927 0
M  V30 66 H -8.698167 -0.592393 2.130453 0
M  V30 67 H -7.373599 1.420327 -1.761006 0
M  V30 68 H -4.893076 1.684641 -2.119753 0
M  V30 69 H 1.217781 1.199524 -3.912989 0
M  V30 70 H 3.591629 0.969826 -4.124507 0
M  V30 END ATOM
M  V30 BEGIN BOND
M  V30 1 1 1 2
M  V30 2 1 2 3
M  V30 3 1 3 4
M  V30 4 1 4 5
M  V30 5 1 3 6
M  V30 6 1 6 7
M  V30 7 1 7 8
M  V30 8 1 8 9
M  V30 9 1 9 10
M  V30 10 2 10 11
M  V30 11 1 11 12
M  V30 12 2 12 13
M  V30 13 1 13 14
M  V30 14 1 14 15
M  V30 15 2 15 16
M  V30 16 1 15 17
M  V30 17 2 17 18
M  V30 18 1 18 19
M  V30 19 2 19 20
M  V30 20 1 20 21
M  V30 21 2 21 22
M  V30 22 1 22 23
M  V30 23 1 23 24
M  V30 24 2 24 25
M  V30 25 1 25 26
M  V30 26 2 26 27
M  V30 27 1 27 28
M  V30 28 1 28 29
M  V30 29 1 29 30
M  V30 30 2 29 31
M  V30 31 2 28 32
M  V30 32 1 22 33
M  V30 33 2 33 34
M  V30 34 1 17 35
M  V30 35 1 35 36
M  V30 36 2 36 37
M  V30 37 1 13 38
M  V30 38 2 38 39
M  V30 39 1 39 10
M  V30 40 1 36 14
M  V30 41 1 34 19
M  V30 42 1 32 24
M  V30 43 1 1 40
M  V30 44 1 1 41
M  V30 45 1 1 42
M  V30 46 1 2 43
M  V30 47 1 2 44
M  V30 48 1 4 45
M  V30 49 1 4 46
M  V30 50 1 5 47
M  V30 51 1 5 48
M  V30 52 1 5 49
M  V30 53 1 6 50
M  V30 54 1 6 51
M  V30 55 1 7 52
M  V30 56 1 7 53
M  V30 57 1 8 54
M  V30 58 1 8 55
M  V30 59 1 11 56
M  V30 60 1 12 57
M  V30 61 1 18 58
M  V30 62 1 20 59
M  V30 63 1 21 60
M  V30 64 1 25 61
M  V30 65 1 26 62
M  V30 66 1 27 63
M  V30 67 1 30 64
M  V30 68 1 30 65
M  V30 69 1 32 66
M  V30 70 1 33 67
M  V30 71 1 34 68
M  V30 72 1 38 69
M  V30 73 1 39 70
M  V30 END BOND
M  V30 END CTAB
M  END
>  <Dataset>  (520) 
ChEMBL_Kinases

>  <Ligand_Instance>  (520) 
nan

>  <PDB_ID>  (520) 
nan

>  <Standardized_SMILES>  (520) 
CCN(CC)CCCOc1ccc(N2C(=O)/C(=C/c3ccc(Oc4cccc(C(N)=O)c4)cc3)SC2=S)cc1

>  <Name>  (520) 
nan

>  <Pocket>  (520) 
nan

>  <ATP_Site>  (520) 
nan

>  <Peripheral>  (520) 
nan

>  <Num_H_Atoms_ProtBoundConf>  (520) 
nan

>  <Num_Resolved_Atoms>  (520) 
nan

>  <Num_Not_Resolved_Atoms>  (520) 
nan

$$$$
CHEMBL2070433
     RDKit          3D

  0  0  0  0  0  0  0  0  0  0999 V3000
M  V30 BEGIN CTAB
M  V30 COUNTS 70 73 0 0 0
M  V30 BEGIN ATOM
M  V30 1 C 8.108704 -3.384776 0.191366 0
M  V30 2 C 6.960861 -4.317474 -0.043080 0
M  V30 3 N 5.888805 -3.835411 -0.809656 0
M  V30 4 C 4.802776 -4.732611 -1.008350 0
M  V30 5 C 4.023293 -5.008926 0.265860 0
M  V30 6 C 6.042285 -2.760056 -1.685339 0
M  V30 7 C 4.812215 -2.344876 -2.464687 0
M  V30 8 C 5.206269 -1.143279 -3.321868 0
M  V30 9 O 4.095945 -0.655076 -4.045282 0
M  V30 10 C 2.959894 -0.085682 -3.527815 0
M  V30 11 C 2.874687 0.095355 -2.170887 0
M  V30 12 C 1.672459 0.666313 -1.798574 0
M  V30 13 C 0.586097 1.062290 -2.600916 0
M  V30 14 N -0.550683 1.617793 -1.960324 0
M  V30 15 C -1.178842 2.810652 -1.546779 0
M  V30 16 O -0.468697 3.773813 -1.925957 0
M  V30 17 C -2.413173 2.692958 -0.828768 0
M  V30 18 C -3.158017 3.741382 -0.483085 0
M  V30 19 C -4.334777 3.259196 0.232955 0
M  V30 20 C -4.616235 3.911096 1.402100 0
M  V30 21 C -5.669376 3.554020 2.220988 0
M  V30 22 C -6.470956 2.518019 1.873668 0
M  V30 23 O -7.614709 1.890577 2.480743 0
M  V30 24 C -7.154050 0.837587 3.373042 0
M  V30 25 C -6.863505 -0.411846 2.952317 0
M  V30 26 C -6.430621 -1.229965 3.963632 0
M  V30 27 C -6.329765 -0.747658 5.259908 0
M  V30 28 C -5.753449 -1.716631 6.221361 0
M  V30 29 N -5.593271 -2.099448 7.538990 0
M  V30 30 O -5.097004 -2.618789 5.574164 0
M  V30 31 C -6.704020 0.628355 5.455263 0
M  V30 32 C -7.183969 1.636263 4.487128 0
M  V30 33 C -6.228949 1.814387 0.675383 0
M  V30 34 C -5.164026 2.220349 -0.095742 0
M  V30 35 S -2.659422 0.919034 -0.513330 0
M  V30 36 C -1.280468 0.426010 -1.587134 0
M  V30 37 S -1.481774 -1.178903 -1.664098 0
M  V30 38 C 0.786280 0.833188 -3.966454 0
M  V30 39 C 1.962516 0.265745 -4.411445 0
M  V30 40 H 8.549402 -3.651772 1.200315 0
M  V30 41 H 8.970980 -3.591897 -0.506201 0
M  V30 42 H 7.851721 -2.329938 0.214148 0
M  V30 43 H 6.554545 -4.618336 0.968150 0
M  V30 44 H 7.438018 -5.243656 -0.495761 0
M  V30 45 H 5.265070 -5.732572 -1.293433 0
M  V30 46 H 4.092742 -4.491772 -1.800189 0
M  V30 47 H 4.510792 -5.804089 0.854616 0
M  V30 48 H 3.038450 -5.424367 -0.035101 0
M  V30 49 H 3.815786 -4.074200 0.820369 0
M  V30 50 H 6.817463 -3.022250 -2.467227 0
M  V30 51 H 6.459092 -1.838746 -1.175630 0
M  V30 52 H 4.590925 -3.194142 -3.215665 0
M  V30 53 H 3.897566 -2.257212 -1.905085 0
M  V30 54 H 5.928421 -1.555800 -4.064858 0
M  V30 55 H 5.699375 -0.400452 -2.695886 0
M  V30 56 H 3.567826 -0.107363 -1.390373 0
M  V30 57 H 1.518613 0.844645 -0.718359 0
M  V30 58 H -2.847677 4.734628 -0.743536 0
M  V30 59 H -4.058200 4.754832 1.797587 0
M  V30 60 H -6.014648 3.960351 3.158012 0
M  V30 61 H -6.994645 -0.632683 1.928677 0
M  V30 62 H -6.220511 -2.205368 3.560202 0
M  V30 63 H -6.493539 -2.511089 7.866774 0
M  V30 64 H -4.688595 -1.956389 8.032079 0
M  V30 65 H -6.500830 0.632414 6.566658 0
M  V30 66 H -7.202840 2.225397 5.327232 0
M  V30 67 H -6.761153 0.981172 0.236700 0
M  V30 68 H -4.923290 1.728315 -1.054680 0
M  V30 69 H -0.044931 1.139253 -4.583770 0
M  V30 70 H 2.082513 0.105787 -5.476556 0
M  V30 END ATOM
M  V30 BEGIN BOND
M  V30 1 1 1 2
M  V30 2 1 2 3
M  V30 3 1 3 4
M  V30 4 1 4 5
M  V30 5 1 3 6
M  V30 6 1 6 7
M  V30 7 1 7 8
M  V30 8 1 8 9
M  V30 9 1 9 10
M  V30 10 2 10 11
M  V30 11 1 11 12
M  V30 12 2 12 13
M  V30 13 1 13 14
M  V30 14 1 14 15
M  V30 15 2 15 16
M  V30 16 1 15 17
M  V30 17 2 17 18
M  V30 18 1 18 19
M  V30 19 2 19 20
M  V30 20 1 20 21
M  V30 21 2 21 22
M  V30 22 1 22 23
M  V30 23 1 23 24
M  V30 24 2 24 25
M  V30 25 1 25 26
M  V30 26 2 26 27
M  V30 27 1 27 28
M  V30 28 1 28 29
M  V30 29 2 28 30
M  V30 30 1 27 31
M  V30 31 2 31 32
M  V30 32 1 22 33
M  V30 33 2 33 34
M  V30 34 1 17 35
M  V30 35 1 35 36
M  V30 36 2 36 37
M  V30 37 1 13 38
M  V30 38 2 38 39
M  V30 39 1 39 10
M  V30 40 1 36 14
M  V30 41 1 34 19
M  V30 42 1 32 24
M  V30 43 1 1 40
M  V30 44 1 1 41
M  V30 45 1 1 42
M  V30 46 1 2 43
M  V30 47 1 2 44
M  V30 48 1 4 45
M  V30 49 1 4 46
M  V30 50 1 5 47
M  V30 51 1 5 48
M  V30 52 1 5 49
M  V30 53 1 6 50
M  V30 54 1 6 51
M  V30 55 1 7 52
M  V30 56 1 7 53
M  V30 57 1 8 54
M  V30 58 1 8 55
M  V30 59 1 11 56
M  V30 60 1 12 57
M  V30 61 1 18 58
M  V30 62 1 20 59
M  V30 63 1 21 60
M  V30 64 1 25 61
M  V30 65 1 26 62
M  V30 66 1 29 63
M  V30 67 1 29 64
M  V30 68 1 31 65
M  V30 69 1 32 66
M  V30 70 1 33 67
M  V30 71 1 34 68
M  V30 72 1 38 69
M  V30 73 1 39 70
M  V30 END BOND
M  V30 END CTAB
M  END
>  <Dataset>  (521) 
ChEMBL_Kinases

>  <Ligand_Instance>  (521) 
nan

>  <PDB_ID>  (521) 
nan

>  <Standardized_SMILES>  (521) 
CCN(CC)CCCOc1ccc(N2C(=O)/C(=C/c3ccc(Oc4ccc(C(N)=O)cc4)cc3)SC2=S)cc1

>  <Name>  (521) 
nan

>  <Pocket>  (521) 
nan

>  <ATP_Site>  (521) 
nan

>  <Peripheral>  (521) 
nan

>  <Num_H_Atoms_ProtBoundConf>  (521) 
nan

>  <Num_Resolved_Atoms>  (521) 
nan

>  <Num_Not_Resolved_Atoms>  (521) 
nan

$$$$
CHEMBL2087966
     RDKit          3D

  0  0  0  0  0  0  0  0  0  0999 V3000
M  V30 BEGIN CTAB
M  V30 COUNTS 47 51 0 0 0
M  V30 BEGIN ATOM
M  V30 1 C -0.466586 -4.600838 -1.551779 0
M  V30 2 C 0.379379 -3.531623 -0.927979 0
M  V30 3 C 1.714182 -3.885062 -0.568553 0
M  V30 4 C 2.327185 -2.812409 -0.017906 0
M  V30 5 C 1.971089 -1.540147 0.250762 0
M  V30 6 C 0.626032 -1.270896 -0.138404 0
M  V30 7 C -0.137147 -0.007166 0.020276 0
M  V30 8 N 0.612323 1.045346 -0.261803 0
M  V30 9 C 0.075118 2.218542 -0.158835 0
M  V30 10 N 0.815893 3.421599 -0.423864 0
M  V30 11 C 1.318584 4.473601 0.465364 0
M  V30 12 C 2.072648 3.764293 1.551582 0
M  V30 13 C 3.393682 3.397102 1.487009 0
M  V30 14 C 3.881041 2.757476 2.605303 0
M  V30 15 C 3.216593 2.448320 3.747090 0
M  V30 16 C 1.876880 2.817453 3.815582 0
M  V30 17 F 1.069148 2.583456 4.872046 0
M  V30 18 C 1.338324 3.469062 2.709722 0
M  V30 19 S -1.699891 1.882377 0.395184 0
M  V30 20 C -1.512946 0.092916 0.433717 0
M  V30 21 C -2.182766 -1.117365 0.707227 0
M  V30 22 C -2.936581 -1.619888 -0.321166 0
M  V30 23 C -3.658643 -2.817250 -0.302731 0
M  V30 24 C -3.480994 -3.422323 0.958656 0
M  V30 25 N -3.990699 -4.594819 1.403175 0
M  V30 26 C -3.600215 -4.832102 2.623395 0
M  V30 27 N -2.808023 -3.803801 3.030373 0
M  V30 28 N -2.754517 -2.954402 1.979113 0
M  V30 29 C -2.078427 -1.798420 1.913100 0
M  V30 30 N 0.016331 -2.310055 -0.677182 0
M  V30 31 H -1.465526 -4.536337 -1.072725 0
M  V30 32 H -0.032162 -5.597931 -1.266679 0
M  V30 33 H -0.564279 -4.452723 -2.638337 0
M  V30 34 H 2.143571 -4.848464 -0.706019 0
M  V30 35 H 3.371515 -3.032630 0.280885 0
M  V30 36 H 2.476583 -0.708776 0.682865 0
M  V30 37 H 0.964461 3.453755 -1.473998 0
M  V30 38 H 1.924289 5.184654 -0.095573 0
M  V30 39 H 0.388693 4.931016 0.890473 0
M  V30 40 H 3.965207 3.616295 0.607832 0
M  V30 41 H 4.933057 2.455949 2.571373 0
M  V30 42 H 3.625929 1.951640 4.607079 0
M  V30 43 H 0.288443 3.762230 2.754421 0
M  V30 44 H -3.038273 -1.094692 -1.290345 0
M  V30 45 H -4.262957 -3.274812 -1.033676 0
M  V30 46 H -4.018096 -5.788386 2.964486 0
M  V30 47 H -1.507367 -1.418032 2.721061 0
M  V30 END ATOM
M  V30 BEGIN BOND
M  V30 1 1 1 2
M  V30 2 2 2 3
M  V30 3 1 3 4
M  V30 4 2 4 5
M  V30 5 1 5 6
M  V30 6 1 6 7
M  V30 7 1 7 8
M  V30 8 2 8 9
M  V30 9 1 9 10
M  V30 10 1 10 11
M  V30 11 1 11 12
M  V30 12 2 12 13
M  V30 13 1 13 14
M  V30 14 2 14 15
M  V30 15 1 15 16
M  V30 16 1 16 17
M  V30 17 2 16 18
M  V30 18 1 9 19
M  V30 19 1 19 20
M  V30 20 1 20 21
M  V30 21 1 21 22
M  V30 22 2 22 23
M  V30 23 1 23 24
M  V30 24 2 24 25
M  V30 25 1 25 26
M  V30 26 2 26 27
M  V30 27 1 27 28
M  V30 28 1 28 29
M  V30 29 2 6 30
M  V30 30 1 30 2
M  V30 31 2 20 7
M  V30 32 2 29 21
M  V30 33 1 18 12
M  V30 34 1 28 24
M  V30 35 1 1 31
M  V30 36 1 1 32
M  V30 37 1 1 33
M  V30 38 1 3 34
M  V30 39 1 4 35
M  V30 40 1 5 36
M  V30 41 1 10 37
M  V30 42 1 11 38
M  V30 43 1 11 39
M  V30 44 1 13 40
M  V30 45 1 14 41
M  V30 46 1 15 42
M  V30 47 1 18 43
M  V30 48 1 22 44
M  V30 49 1 23 45
M  V30 50 1 26 46
M  V30 51 1 29 47
M  V30 END BOND
M  V30 END CTAB
M  END
>  <Dataset>  (522) 
ChEMBL_Kinases

>  <Ligand_Instance>  (522) 
nan

>  <PDB_ID>  (522) 
nan

>  <Standardized_SMILES>  (522) 
Cc1cccc(-c2nc(NCc3cccc(F)c3)sc2-c2ccc3ncnn3c2)n1

>  <Name>  (522) 
nan

>  <Pocket>  (522) 
nan

>  <ATP_Site>  (522) 
nan

>  <Peripheral>  (522) 
nan

>  <Num_H_Atoms_ProtBoundConf>  (522) 
nan

>  <Num_Resolved_Atoms>  (522) 
nan

>  <Num_Not_Resolved_Atoms>  (522) 
nan

$$$$
CHEMBL4643060
     RDKit          3D

  0  0  0  0  0  0  0  0  0  0999 V3000
M  V30 BEGIN CTAB
M  V30 COUNTS 52 56 0 0 0
M  V30 BEGIN ATOM
M  V30 1 C 1.959967 -4.052113 -1.697902 0
M  V30 2 N 3.049391 -4.797036 -1.170785 0
M  V30 3 C 4.241309 -3.994395 -0.984949 0
M  V30 4 C 4.016683 -2.834878 -0.048219 0
M  V30 5 N 2.808733 -3.089381 0.711171 0
M  V30 6 C 1.737155 -2.184510 0.931435 0
M  V30 7 C 1.742388 -0.902420 0.428524 0
M  V30 8 C 0.640167 -0.115362 0.708594 0
M  V30 9 C 0.594437 1.247227 0.201636 0
M  V30 10 C -0.361977 1.691316 -0.693636 0
M  V30 11 C -0.382191 2.975219 -1.153193 0
M  V30 12 N 0.524474 3.875957 -0.761466 0
M  V30 13 C 1.469848 3.482604 0.107715 0
M  V30 14 C 1.536616 2.196439 0.604149 0
M  V30 15 C -0.431952 -0.573430 1.458190 0
M  V30 16 C -1.585028 0.292742 1.734728 0
M  V30 17 C -1.432718 1.448336 2.466680 0
M  V30 18 C -2.543528 2.259591 2.718371 0
M  V30 19 C -3.778267 1.887011 2.227154 0
M  V30 20 C -4.902728 2.649789 2.446740 0
M  V30 21 F -4.810733 3.788385 3.155054 0
M  V30 22 C -6.139725 2.253438 1.940788 0
M  V30 23 C -6.267886 1.084449 1.205925 0
M  V30 24 C -5.133341 0.335450 0.996786 0
M  V30 25 C -3.913720 0.731405 1.498774 0
M  V30 26 C -2.827590 -0.096151 1.231891 0
M  V30 27 N -0.360123 -1.845424 1.916270 0
M  V30 28 N 0.694141 -2.622604 1.657911 0
M  V30 29 C 2.802691 -4.434816 1.254868 0
M  V30 30 C 2.724156 -5.398854 0.108357 0
M  V30 31 H 1.653313 -4.416099 -2.715020 0
M  V30 32 H 2.195786 -2.980906 -1.814936 0
M  V30 33 H 1.030390 -4.140968 -1.086283 0
M  V30 34 H 5.028269 -4.701797 -0.614977 0
M  V30 35 H 4.623021 -3.650699 -1.983175 0
M  V30 36 H 4.030044 -1.862760 -0.555917 0
M  V30 37 H 4.869224 -2.838019 0.664728 0
M  V30 38 H 2.560958 -0.522758 -0.155717 0
M  V30 39 H -1.087229 0.979328 -1.010157 0
M  V30 40 H -1.155397 3.249898 -1.847943 0
M  V30 41 H 2.216588 4.218568 0.432536 0
M  V30 42 H 2.310956 1.897483 1.308315 0
M  V30 43 H -0.449117 1.682566 2.820219 0
M  V30 44 H -2.413548 3.168532 3.296492 0
M  V30 45 H -7.049759 2.824511 2.090458 0
M  V30 46 H -7.230021 0.762409 0.804471 0
M  V30 47 H -5.233470 -0.564827 0.430890 0
M  V30 48 H -2.977813 -1.008071 0.647294 0
M  V30 49 H 1.847719 -4.550198 1.830440 0
M  V30 50 H 3.670337 -4.618669 1.917738 0
M  V30 51 H 1.749925 -5.910974 0.037079 0
M  V30 52 H 3.503513 -6.171080 0.285593 0
M  V30 END ATOM
M  V30 BEGIN BOND
M  V30 1 1 1 2
M  V30 2 1 2 3
M  V30 3 1 3 4
M  V30 4 1 4 5
M  V30 5 1 5 6
M  V30 6 2 6 7
M  V30 7 1 7 8
M  V30 8 1 8 9
M  V30 9 2 9 10
M  V30 10 1 10 11
M  V30 11 2 11 12
M  V30 12 1 12 13
M  V30 13 2 13 14
M  V30 14 2 8 15
M  V30 15 1 15 16
M  V30 16 2 16 17
M  V30 17 1 17 18
M  V30 18 2 18 19
M  V30 19 1 19 20
M  V30 20 1 20 21
M  V30 21 2 20 22
M  V30 22 1 22 23
M  V30 23 2 23 24
M  V30 24 1 24 25
M  V30 25 2 25 26
M  V30 26 1 15 27
M  V30 27 2 27 28
M  V30 28 1 5 29
M  V30 29 1 29 30
M  V30 30 1 30 2
M  V30 31 1 28 6
M  V30 32 1 14 9
M  V30 33 1 26 16
M  V30 34 1 25 19
M  V30 35 1 1 31
M  V30 36 1 1 32
M  V30 37 1 1 33
M  V30 38 1 3 34
M  V30 39 1 3 35
M  V30 40 1 4 36
M  V30 41 1 4 37
M  V30 42 1 7 38
M  V30 43 1 10 39
M  V30 44 1 11 40
M  V30 45 1 13 41
M  V30 46 1 14 42
M  V30 47 1 17 43
M  V30 48 1 18 44
M  V30 49 1 22 45
M  V30 50 1 23 46
M  V30 51 1 24 47
M  V30 52 1 26 48
M  V30 53 1 29 49
M  V30 54 1 29 50
M  V30 55 1 30 51
M  V30 56 1 30 52
M  V30 END BOND
M  V30 END CTAB
M  END
>  <Dataset>  (523) 
ChEMBL_Kinases

>  <Ligand_Instance>  (523) 
nan

>  <PDB_ID>  (523) 
nan

>  <Standardized_SMILES>  (523) 
CN1CCN(c2cc(-c3ccncc3)c(-c3ccc4c(F)cccc4c3)nn2)CC1

>  <Name>  (523) 
nan

>  <Pocket>  (523) 
nan

>  <ATP_Site>  (523) 
nan

>  <Peripheral>  (523) 
nan

>  <Num_H_Atoms_ProtBoundConf>  (523) 
nan

>  <Num_Resolved_Atoms>  (523) 
nan

>  <Num_Not_Resolved_Atoms>  (523) 
nan

$$$$
CHEMBL1093756
     RDKit          3D

  0  0  0  0  0  0  0  0  0  0999 V3000
M  V30 BEGIN CTAB
M  V30 COUNTS 67 72 0 0 0
M  V30 BEGIN ATOM
M  V30 1 C 5.216333 -4.284412 -2.407347 0
M  V30 2 C 4.103524 -4.263551 -1.383368 0
M  V30 3 C 4.447892 -5.224263 -0.238036 0
M  V30 4 C 2.823888 -4.747503 -2.041745 0
M  V30 5 C 3.875194 -2.894984 -0.850559 0
M  V30 6 C 2.993684 -1.972214 -1.403024 0
M  V30 7 C 3.033903 -0.804299 -0.661541 0
M  V30 8 N 2.266099 0.355016 -0.928336 0
M  V30 9 C 1.006852 0.790687 -0.472026 0
M  V30 10 O 0.600838 -0.094291 0.323017 0
M  V30 11 N 0.303973 1.957940 -0.804664 0
M  V30 12 C -0.936955 1.909124 -0.063655 0
M  V30 13 C -1.130534 2.403928 1.207272 0
M  V30 14 C -2.366886 2.285315 1.799755 0
M  V30 15 C -3.369478 1.672380 1.095300 0
M  V30 16 O -4.596201 1.576739 1.732659 0
M  V30 17 C -5.060531 0.308775 2.049330 0
M  V30 18 C -4.479158 -0.936191 1.889234 0
M  V30 19 C -5.102481 -2.102902 2.267433 0
M  V30 20 N -6.345573 -2.054487 2.825336 0
M  V30 21 C -6.911274 -0.843800 2.981005 0
M  V30 22 N -8.123425 -0.669660 3.512609 0
M  V30 23 C -8.325794 0.670682 3.491343 0
M  V30 24 O -9.312441 1.355122 3.876970 0
M  V30 25 N -7.244439 1.266352 2.954475 0
M  V30 26 C -6.318690 0.336523 2.615850 0
M  V30 27 C -3.229066 1.154384 -0.196043 0
M  V30 28 C -4.253451 0.558111 -0.901258 0
M  V30 29 C -4.072666 0.078383 -2.177445 0
M  V30 30 C -2.834400 0.201388 -2.757488 0
M  V30 31 C -1.806471 0.802082 -2.047962 0
M  V30 32 C -1.979299 1.286692 -0.766276 0
M  V30 33 N 3.907554 -1.010729 0.305767 0
M  V30 34 C 4.312693 -0.130232 1.339950 0
M  V30 35 C 4.838260 1.141482 1.219630 0
M  V30 36 C 5.160460 1.802776 2.386416 0
M  V30 37 C 4.996451 1.289528 3.653675 0
M  V30 38 C 4.469713 0.017251 3.759794 0
M  V30 39 C 4.131157 -0.685451 2.613043 0
M  V30 40 N 4.388341 -2.231784 0.182601 0
M  V30 41 H 5.913623 -3.431497 -2.316355 0
M  V30 42 H 5.813104 -5.223134 -2.261819 0
M  V30 43 H 4.780024 -4.332573 -3.409589 0
M  V30 44 H 5.258206 -5.910417 -0.537913 0
M  V30 45 H 4.777289 -4.625574 0.634014 0
M  V30 46 H 3.529922 -5.774660 0.086890 0
M  V30 47 H 1.966108 -4.214515 -1.537581 0
M  V30 48 H 2.816177 -4.405898 -3.078453 0
M  V30 49 H 2.675780 -5.830621 -1.902669 0
M  V30 50 H 2.379395 -2.174891 -2.288134 0
M  V30 51 H 2.743697 0.990843 -1.604486 0
M  V30 52 H 0.824483 2.563355 -1.483145 0
M  V30 53 H -0.274528 2.872596 1.682317 0
M  V30 54 H -2.524074 2.673639 2.797256 0
M  V30 55 H -3.485991 -0.886680 1.441353 0
M  V30 56 H -4.536052 -3.011756 2.087395 0
M  V30 57 H -8.867817 -1.278858 3.899132 0
M  V30 58 H -7.088435 2.299010 2.796388 0
M  V30 59 H -5.213689 0.476817 -0.447897 0
M  V30 60 H -4.923992 -0.388953 -2.691947 0
M  V30 61 H -2.655054 -0.161214 -3.754886 0
M  V30 62 H -0.839536 0.884291 -2.534843 0
M  V30 63 H 4.949978 1.503527 0.210987 0
M  V30 64 H 5.577118 2.816409 2.257087 0
M  V30 65 H 5.269692 1.866034 4.530275 0
M  V30 66 H 4.337887 -0.396531 4.750100 0
M  V30 67 H 3.729852 -1.668870 2.799610 0
M  V30 END ATOM
M  V30 BEGIN BOND
M  V30 1 1 1 2
M  V30 2 1 2 3
M  V30 3 1 2 4
M  V30 4 1 2 5
M  V30 5 1 5 6
M  V30 6 2 6 7
M  V30 7 1 7 8
M  V30 8 1 8 9
M  V30 9 2 9 10
M  V30 10 1 9 11
M  V30 11 1 11 12
M  V30 12 2 12 13
M  V30 13 1 13 14
M  V30 14 2 14 15
M  V30 15 1 15 16
M  V30 16 1 16 17
M  V30 17 2 17 18
M  V30 18 1 18 19
M  V30 19 2 19 20
M  V30 20 1 20 21
M  V30 21 1 21 22
M  V30 22 1 22 23
M  V30 23 2 23 24
M  V30 24 1 23 25
M  V30 25 1 25 26
M  V30 26 1 15 27
M  V30 27 2 27 28
M  V30 28 1 28 29
M  V30 29 2 29 30
M  V30 30 1 30 31
M  V30 31 2 31 32
M  V30 32 1 7 33
M  V30 33 1 33 34
M  V30 34 2 34 35
M  V30 35 1 35 36
M  V30 36 2 36 37
M  V30 37 1 37 38
M  V30 38 2 38 39
M  V30 39 1 33 40
M  V30 40 2 40 5
M  V30 41 1 32 12
M  V30 42 1 39 34
M  V30 43 1 26 17
M  V30 44 1 32 27
M  V30 45 2 26 21
M  V30 46 1 1 41
M  V30 47 1 1 42
M  V30 48 1 1 43
M  V30 49 1 3 44
M  V30 50 1 3 45
M  V30 51 1 3 46
M  V30 52 1 4 47
M  V30 53 1 4 48
M  V30 54 1 4 49
M  V30 55 1 6 50
M  V30 56 1 8 51
M  V30 57 1 11 52
M  V30 58 1 13 53
M  V30 59 1 14 54
M  V30 60 1 18 55
M  V30 61 1 19 56
M  V30 62 1 22 57
M  V30 63 1 25 58
M  V30 64 1 28 59
M  V30 65 1 29 60
M  V30 66 1 30 61
M  V30 67 1 31 62
M  V30 68 1 35 63
M  V30 69 1 36 64
M  V30 70 1 37 65
M  V30 71 1 38 66
M  V30 72 1 39 67
M  V30 END BOND
M  V30 END CTAB
M  END
>  <Dataset>  (524) 
ChEMBL_Kinases

>  <Ligand_Instance>  (524) 
nan

>  <PDB_ID>  (524) 
nan

>  <Standardized_SMILES>  (524) 
CC(C)(C)c1cc(NC(=O)Nc2ccc(Oc3ccnc4[nH]c(=O)[nH]c34)c3ccccc23)n(-c2ccccc2)n1

>  <Name>  (524) 
nan

>  <Pocket>  (524) 
nan

>  <ATP_Site>  (524) 
nan

>  <Peripheral>  (524) 
nan

>  <Num_H_Atoms_ProtBoundConf>  (524) 
nan

>  <Num_Resolved_Atoms>  (524) 
nan

>  <Num_Not_Resolved_Atoms>  (524) 
nan

$$$$
CHEMBL209770
     RDKit          3D

  0  0  0  0  0  0  0  0  0  0999 V3000
M  V30 BEGIN CTAB
M  V30 COUNTS 44 45 0 0 0
M  V30 BEGIN ATOM
M  V30 1 C 0.386179 -5.184232 4.137196 0
M  V30 2 C 0.404330 -4.335107 2.908452 0
M  V30 3 O -0.595562 -4.645810 1.967249 0
M  V30 4 C -0.715817 -3.938393 0.753270 0
M  V30 5 N 0.138372 -2.935177 0.469306 0
M  V30 6 C 0.062612 -2.225656 -0.684966 0
M  V30 7 N 1.009479 -1.157815 -0.930359 0
M  V30 8 C 0.552226 0.120877 -0.436802 0
M  V30 9 O -0.593107 -0.136733 0.076350 0
M  V30 10 C 1.500806 1.234394 -0.673835 0
M  V30 11 N 1.002436 2.484363 -0.162831 0
M  V30 12 C 1.883102 3.591289 -0.402111 0
M  V30 13 C 1.653153 4.760064 0.495234 0
M  V30 14 C 1.775733 4.430225 1.957726 0
M  V30 15 O 0.673499 4.877595 2.684274 0
M  V30 16 C 1.750223 2.899781 2.072532 0
M  V30 17 C 0.584113 2.447752 1.217032 0
M  V30 18 C -0.911878 -2.513758 -1.626027 0
M  V30 19 C -1.807017 -3.554487 -1.344050 0
M  V30 20 N -2.797564 -3.830311 -2.325637 0
M  V30 21 C -1.704754 -4.260235 -0.158186 0
M  V30 22 C -2.645166 -5.335044 0.110958 0
M  V30 23 N -3.402110 -6.190588 0.308702 0
M  V30 24 H -0.533439 -5.104374 4.727765 0
M  V30 25 H 1.208052 -4.816390 4.789591 0
M  V30 26 H 0.581452 -6.238331 3.813489 0
M  V30 27 H 1.420098 -4.335167 2.503389 0
M  V30 28 H 0.199406 -3.270724 3.220197 0
M  V30 29 H 1.895603 -1.412684 -1.421785 0
M  V30 30 H 1.655731 1.380490 -1.761891 0
M  V30 31 H 2.484441 0.934294 -0.231769 0
M  V30 32 H 2.935997 3.257724 -0.312517 0
M  V30 33 H 1.700124 3.932135 -1.445747 0
M  V30 34 H 0.585457 5.077721 0.330064 0
M  V30 35 H 2.324850 5.574391 0.236549 0
M  V30 36 H 2.733340 4.828593 2.320701 0
M  V30 37 H 0.885121 4.732878 3.642263 0
M  V30 38 H 2.701831 2.515857 1.684157 0
M  V30 39 H 1.616786 2.574286 3.110298 0
M  V30 40 H 0.157484 1.504446 1.532890 0
M  V30 41 H -0.211072 3.214557 1.321281 0
M  V30 42 H -0.926783 -1.914861 -2.531941 0
M  V30 43 H -3.595895 -3.308757 -1.890680 0
M  V30 44 H -2.623986 -4.399900 -3.172192 0
M  V30 END ATOM
M  V30 BEGIN BOND
M  V30 1 1 1 2
M  V30 2 1 2 3
M  V30 3 1 3 4
M  V30 4 2 4 5
M  V30 5 1 5 6
M  V30 6 1 6 7
M  V30 7 1 7 8
M  V30 8 2 8 9
M  V30 9 1 8 10
M  V30 10 1 10 11
M  V30 11 1 11 12
M  V30 12 1 12 13
M  V30 13 1 13 14
M  V30 14 1 14 15
M  V30 15 1 14 16
M  V30 16 1 16 17
M  V30 17 2 6 18
M  V30 18 1 18 19
M  V30 19 1 19 20
M  V30 20 2 19 21
M  V30 21 1 21 22
M  V30 22 3 22 23
M  V30 23 1 21 4
M  V30 24 1 17 11
M  V30 25 1 1 24
M  V30 26 1 1 25
M  V30 27 1 1 26
M  V30 28 1 2 27
M  V30 29 1 2 28
M  V30 30 1 7 29
M  V30 31 1 10 30
M  V30 32 1 10 31
M  V30 33 1 12 32
M  V30 34 1 12 33
M  V30 35 1 13 34
M  V30 36 1 13 35
M  V30 37 1 14 36
M  V30 38 1 15 37
M  V30 39 1 16 38
M  V30 40 1 16 39
M  V30 41 1 17 40
M  V30 42 1 17 41
M  V30 43 1 18 42
M  V30 44 1 20 43
M  V30 45 1 20 44
M  V30 END BOND
M  V30 END CTAB
M  END
>  <Dataset>  (525) 
ChEMBL_Kinases

>  <Ligand_Instance>  (525) 
nan

>  <PDB_ID>  (525) 
nan

>  <Standardized_SMILES>  (525) 
CCOc1nc(NC(=O)CN2CCC(O)CC2)cc(N)c1C#N

>  <Name>  (525) 
nan

>  <Pocket>  (525) 
nan

>  <ATP_Site>  (525) 
nan

>  <Peripheral>  (525) 
nan

>  <Num_H_Atoms_ProtBoundConf>  (525) 
nan

>  <Num_Resolved_Atoms>  (525) 
nan

>  <Num_Not_Resolved_Atoms>  (525) 
nan

$$$$
CHEMBL213075
     RDKit          3D

  0  0  0  0  0  0  0  0  0  0999 V3000
M  V30 BEGIN CTAB
M  V30 COUNTS 39 43 0 0 0
M  V30 BEGIN ATOM
M  V30 1 N -0.845189 -7.051403 1.689359 0
M  V30 2 C -0.656260 -5.661452 1.454532 0
M  V30 3 C 0.441766 -4.980553 1.952563 0
M  V30 4 C 0.624416 -3.630212 1.723879 0
M  V30 5 C -0.329546 -2.939987 0.968408 0
M  V30 6 C -0.032143 -1.520823 0.792391 0
M  V30 7 C 0.720292 -1.141782 -0.302085 0
M  V30 8 C 1.015105 0.195218 -0.490697 0
M  V30 9 N 1.716086 0.820983 -1.455244 0
M  V30 10 C 1.689522 2.151459 -1.144990 0
M  V30 11 C 2.287198 3.186031 -1.866152 0
M  V30 12 C 2.181314 4.498139 -1.436180 0
M  V30 13 C 1.461658 4.751843 -0.264813 0
M  V30 14 O 1.369399 6.054710 0.142087 0
M  V30 15 C 0.901599 3.678730 0.390007 0
M  V30 16 C 0.975538 2.373302 0.011105 0
M  V30 17 C 0.562019 1.137504 0.404941 0
M  V30 18 C -0.178804 0.766203 1.482916 0
M  V30 19 C -0.481587 -0.557973 1.686518 0
M  V30 20 C -1.285707 -0.794784 2.890164 0
M  V30 21 O -1.708131 -1.880932 3.328085 0
M  V30 22 N -1.454003 0.536032 3.421081 0
M  V30 23 C -0.789512 1.455299 2.572687 0
M  V30 24 O -0.862595 2.636047 2.925088 0
M  V30 25 C -1.436719 -3.596586 0.458683 0
M  V30 26 Cl -2.564159 -2.649307 -0.467293 0
M  V30 27 C -1.580003 -4.948392 0.711733 0
M  V30 28 H -1.255111 -7.619659 2.471620 0
M  V30 29 H -1.267831 -7.543699 2.506325 0
M  V30 30 H 1.147079 -5.580320 2.533645 0
M  V30 31 H 1.503750 -3.199397 2.151548 0
M  V30 32 H 1.077264 -1.886117 -1.008133 0
M  V30 33 H 2.178411 0.356713 -2.268657 0
M  V30 34 H 2.838934 2.970044 -2.768544 0
M  V30 35 H 2.665199 5.249720 -2.037432 0
M  V30 36 H 2.051431 6.543547 0.703987 0
M  V30 37 H 0.373487 3.954585 1.267740 0
M  V30 38 H -2.015431 0.644480 4.316794 0
M  V30 39 H -2.451771 -5.418015 0.298450 0
M  V30 END ATOM
M  V30 BEGIN BOND
M  V30 1 1 1 2
M  V30 2 2 2 3
M  V30 3 1 3 4
M  V30 4 2 4 5
M  V30 5 1 5 6
M  V30 6 2 6 7
M  V30 7 1 7 8
M  V30 8 1 8 9
M  V30 9 1 9 10
M  V30 10 2 10 11
M  V30 11 1 11 12
M  V30 12 2 12 13
M  V30 13 1 13 14
M  V30 14 1 13 15
M  V30 15 2 15 16
M  V30 16 1 16 17
M  V30 17 1 17 18
M  V30 18 2 18 19
M  V30 19 1 19 20
M  V30 20 2 20 21
M  V30 21 1 20 22
M  V30 22 1 22 23
M  V30 23 2 23 24
M  V30 24 1 5 25
M  V30 25 1 25 26
M  V30 26 2 25 27
M  V30 27 1 27 2
M  V30 28 1 19 6
M  V30 29 2 17 8
M  V30 30 1 23 18
M  V30 31 1 16 10
M  V30 32 1 1 28
M  V30 33 1 1 29
M  V30 34 1 3 30
M  V30 35 1 4 31
M  V30 36 1 7 32
M  V30 37 1 9 33
M  V30 38 1 11 34
M  V30 39 1 12 35
M  V30 40 1 14 36
M  V30 41 1 15 37
M  V30 42 1 22 38
M  V30 43 1 27 39
M  V30 END BOND
M  V30 END CTAB
M  END
>  <Dataset>  (526) 
ChEMBL_Kinases

>  <Ligand_Instance>  (526) 
nan

>  <PDB_ID>  (526) 
nan

>  <Standardized_SMILES>  (526) 
Nc1ccc(-c2cc3[nH]c4ccc(O)cc4c3c3c2C(=O)NC3=O)c(Cl)c1

>  <Name>  (526) 
nan

>  <Pocket>  (526) 
nan

>  <ATP_Site>  (526) 
nan

>  <Peripheral>  (526) 
nan

>  <Num_H_Atoms_ProtBoundConf>  (526) 
nan

>  <Num_Resolved_Atoms>  (526) 
nan

>  <Num_Not_Resolved_Atoms>  (526) 
nan

$$$$
CHEMBL572784
     RDKit          3D

  0  0  0  0  0  0  0  0  0  0999 V3000
M  V30 BEGIN CTAB
M  V30 COUNTS 38 41 0 0 0
M  V30 BEGIN ATOM
M  V30 1 C -1.036329 -3.521588 1.967399 0
M  V30 2 N -0.090689 -3.888820 2.971490 0
M  V30 3 C 0.591268 -5.124514 2.757621 0
M  V30 4 C 0.708687 -2.798679 3.426206 0
M  V30 5 C 1.517965 -2.156637 2.325466 0
M  V30 6 N 0.942982 -1.147895 1.671603 0
M  V30 7 C 1.535788 -0.478272 0.671315 0
M  V30 8 C 2.804707 -0.987312 0.432531 0
M  V30 9 S 3.423661 0.012879 -0.905792 0
M  V30 10 C 1.869138 1.080909 -1.048086 0
M  V30 11 C 1.641965 2.123609 -1.936940 0
M  V30 12 C 0.411522 2.722869 -1.809462 0
M  V30 13 C -0.437361 2.238437 -0.842488 0
M  V30 14 C -1.760515 2.894654 -0.716331 0
M  V30 15 C -2.421846 3.443353 -1.815366 0
M  V30 16 C -3.599521 3.954172 -1.315915 0
M  V30 17 O -3.655270 3.739697 -0.035040 0
M  V30 18 C -2.591403 3.115971 0.368822 0
M  V30 19 C -0.178753 1.215651 0.008700 0
M  V30 20 C 1.022963 0.558672 -0.045677 0
M  V30 21 C 3.395251 -2.003255 1.084380 0
M  V30 22 O 4.535603 -2.332917 0.744465 0
M  V30 23 N 2.747554 -2.632651 2.077217 0
M  V30 24 H -0.576189 -3.659836 0.957334 0
M  V30 25 H -1.958223 -4.154678 1.973838 0
M  V30 26 H -1.263355 -2.441433 2.051588 0
M  V30 27 H 0.926821 -5.305422 1.711935 0
M  V30 28 H -0.114806 -5.955501 3.041059 0
M  V30 29 H 1.457496 -5.220556 3.407699 0
M  V30 30 H 1.374838 -3.112368 4.254050 0
M  V30 31 H 0.009311 -2.051545 3.888092 0
M  V30 32 H 2.428675 2.355539 -2.620164 0
M  V30 33 H 0.205115 3.537115 -2.487190 0
M  V30 34 H -2.050089 3.445254 -2.833744 0
M  V30 35 H -4.308408 4.446190 -1.987127 0
M  V30 36 H -2.278447 2.768166 1.353379 0
M  V30 37 H -0.925008 0.920299 0.731441 0
M  V30 38 H 3.169625 -3.420691 2.603873 0
M  V30 END ATOM
M  V30 BEGIN BOND
M  V30 1 1 1 2
M  V30 2 1 2 3
M  V30 3 1 2 4
M  V30 4 1 4 5
M  V30 5 2 5 6
M  V30 6 1 6 7
M  V30 7 2 7 8
M  V30 8 1 8 9
M  V30 9 1 9 10
M  V30 10 2 10 11
M  V30 11 1 11 12
M  V30 12 2 12 13
M  V30 13 1 13 14
M  V30 14 1 14 15
M  V30 15 2 15 16
M  V30 16 1 16 17
M  V30 17 1 17 18
M  V30 18 1 13 19
M  V30 19 2 19 20
M  V30 20 1 8 21
M  V30 21 2 21 22
M  V30 22 1 21 23
M  V30 23 1 23 5
M  V30 24 1 20 7
M  V30 25 1 20 10
M  V30 26 2 18 14
M  V30 27 1 1 24
M  V30 28 1 1 25
M  V30 29 1 1 26
M  V30 30 1 3 27
M  V30 31 1 3 28
M  V30 32 1 3 29
M  V30 33 1 4 30
M  V30 34 1 4 31
M  V30 35 1 11 32
M  V30 36 1 12 33
M  V30 37 1 15 34
M  V30 38 1 16 35
M  V30 39 1 18 36
M  V30 40 1 19 37
M  V30 41 1 23 38
M  V30 END BOND
M  V30 END CTAB
M  END
>  <Dataset>  (527) 
ChEMBL_Kinases

>  <Ligand_Instance>  (527) 
nan

>  <PDB_ID>  (527) 
nan

>  <Standardized_SMILES>  (527) 
CN(C)Cc1nc2c(sc3ccc(-c4ccoc4)cc32)c(=O)[nH]1

>  <Name>  (527) 
nan

>  <Pocket>  (527) 
nan

>  <ATP_Site>  (527) 
nan

>  <Peripheral>  (527) 
nan

>  <Num_H_Atoms_ProtBoundConf>  (527) 
nan

>  <Num_Resolved_Atoms>  (527) 
nan

>  <Num_Not_Resolved_Atoms>  (527) 
nan

$$$$
CHEMBL213019
     RDKit          3D

  0  0  0  0  0  0  0  0  0  0999 V3000
M  V30 BEGIN CTAB
M  V30 COUNTS 38 42 0 0 0
M  V30 BEGIN ATOM
M  V30 1 N -0.033643 -6.149191 6.384025 0
M  V30 2 C 0.007270 -5.311987 5.600522 0
M  V30 3 C 0.063937 -4.254702 4.642674 0
M  V30 4 C -0.206455 -2.969573 5.041470 0
M  V30 5 C -0.159825 -1.927846 4.140751 0
M  V30 6 C 0.156906 -2.125226 2.814087 0
M  V30 7 C 0.261882 -1.138249 1.750297 0
M  V30 8 C -0.492176 -1.464862 0.617604 0
M  V30 9 C -0.554044 -0.661273 -0.501869 0
M  V30 10 N -1.197113 -0.767944 -1.680140 0
M  V30 11 C -0.862195 0.338585 -2.365657 0
M  V30 12 C -1.300921 0.644536 -3.637859 0
M  V30 13 C -0.895385 1.810851 -4.253360 0
M  V30 14 C -0.033659 2.668217 -3.557334 0
M  V30 15 O 0.363215 3.823547 -4.176869 0
M  V30 16 C 0.353920 2.284978 -2.293916 0
M  V30 17 C -0.016200 1.148298 -1.643003 0
M  V30 18 C 0.174268 0.504870 -0.459746 0
M  V30 19 C 0.919827 0.860670 0.618343 0
M  V30 20 C 0.967195 0.046309 1.721290 0
M  V30 21 C 1.815549 0.568227 2.783993 0
M  V30 22 O 2.078071 0.080698 3.912327 0
M  V30 23 N 2.308696 1.810265 2.243127 0
M  V30 24 C 1.765705 1.974952 0.946004 0
M  V30 25 O 2.102311 3.005233 0.351623 0
M  V30 26 C 0.426082 -3.429075 2.432017 0
M  V30 27 C 0.383273 -4.481926 3.321477 0
M  V30 28 H -0.469195 -2.680297 6.060231 0
M  V30 29 H -0.374136 -0.927521 4.425130 0
M  V30 30 H -1.087511 -2.387671 0.546203 0
M  V30 31 H -1.820628 -1.567997 -1.961309 0
M  V30 32 H -1.964589 0.013339 -4.209988 0
M  V30 33 H -1.235346 2.056121 -5.249649 0
M  V30 34 H 0.782561 4.621699 -3.742702 0
M  V30 35 H 1.004265 2.982866 -1.830221 0
M  V30 36 H 2.965630 2.407160 2.828560 0
M  V30 37 H 0.686433 -3.710337 1.417262 0
M  V30 38 H 0.590744 -5.516877 3.046784 0
M  V30 END ATOM
M  V30 BEGIN BOND
M  V30 1 3 1 2
M  V30 2 1 2 3
M  V30 3 2 3 4
M  V30 4 1 4 5
M  V30 5 2 5 6
M  V30 6 1 6 7
M  V30 7 2 7 8
M  V30 8 1 8 9
M  V30 9 1 9 10
M  V30 10 1 10 11
M  V30 11 2 11 12
M  V30 12 1 12 13
M  V30 13 2 13 14
M  V30 14 1 14 15
M  V30 15 1 14 16
M  V30 16 2 16 17
M  V30 17 1 17 18
M  V30 18 1 18 19
M  V30 19 2 19 20
M  V30 20 1 20 21
M  V30 21 2 21 22
M  V30 22 1 21 23
M  V30 23 1 23 24
M  V30 24 2 24 25
M  V30 25 1 6 26
M  V30 26 2 26 27
M  V30 27 1 27 3
M  V30 28 1 20 7
M  V30 29 2 18 9
M  V30 30 1 24 19
M  V30 31 1 17 11
M  V30 32 1 4 28
M  V30 33 1 5 29
M  V30 34 1 8 30
M  V30 35 1 10 31
M  V30 36 1 12 32
M  V30 37 1 13 33
M  V30 38 1 15 34
M  V30 39 1 16 35
M  V30 40 1 23 36
M  V30 41 1 26 37
M  V30 42 1 27 38
M  V30 END BOND
M  V30 END CTAB
M  END
>  <Dataset>  (528) 
ChEMBL_Kinases

>  <Ligand_Instance>  (528) 
nan

>  <PDB_ID>  (528) 
nan

>  <Standardized_SMILES>  (528) 
N#Cc1ccc(-c2cc3[nH]c4ccc(O)cc4c3c3c2C(=O)NC3=O)cc1

>  <Name>  (528) 
nan

>  <Pocket>  (528) 
nan

>  <ATP_Site>  (528) 
nan

>  <Peripheral>  (528) 
nan

>  <Num_H_Atoms_ProtBoundConf>  (528) 
nan

>  <Num_Resolved_Atoms>  (528) 
nan

>  <Num_Not_Resolved_Atoms>  (528) 
nan

$$$$
CHEMBL212494
     RDKit          3D

  0  0  0  0  0  0  0  0  0  0999 V3000
M  V30 BEGIN CTAB
M  V30 COUNTS 37 41 0 0 0
M  V30 BEGIN ATOM
M  V30 1 O 3.681332 0.781571 1.854522 0
M  V30 2 C 2.845426 -0.158683 1.869822 0
M  V30 3 N 2.966897 -1.397976 2.601221 0
M  V30 4 C 1.810397 -2.174656 2.341156 0
M  V30 5 O 1.760361 -3.271100 2.896393 0
M  V30 6 C 0.938726 -1.465853 1.455311 0
M  V30 7 C 1.578864 -0.277427 1.195456 0
M  V30 8 C 1.007208 0.659101 0.356925 0
M  V30 9 C 1.494388 1.975105 -0.031155 0
M  V30 10 C 1.526878 2.259011 -1.402552 0
M  V30 11 C 1.937654 3.437097 -1.990059 0
M  V30 12 C 2.353934 4.419369 -1.115573 0
M  V30 13 C 2.347495 4.207058 0.244514 0
M  V30 14 F 2.748087 5.142479 1.154736 0
M  V30 15 C 1.925529 3.008252 0.773322 0
M  V30 16 C -0.236770 0.385245 -0.230250 0
M  V30 17 C -0.874282 -0.811421 0.035220 0
M  V30 18 N -2.067300 -1.318545 -0.396529 0
M  V30 19 C -2.166125 -2.525407 0.192420 0
M  V30 20 C -3.229315 -3.407213 0.038319 0
M  V30 21 C -3.233971 -4.624278 0.688428 0
M  V30 22 C -2.141782 -4.944943 1.504670 0
M  V30 23 O -2.147742 -6.158748 2.152271 0
M  V30 24 C -1.129755 -4.018145 1.604453 0
M  V30 25 C -1.076830 -2.806147 0.985509 0
M  V30 26 C -0.267779 -1.715772 0.877928 0
M  V30 27 H 3.825002 -1.575486 3.195990 0
M  V30 28 H 1.197283 1.483209 -2.108384 0
M  V30 29 H 1.929420 3.566822 -3.043467 0
M  V30 30 H 2.692682 5.375490 -1.496733 0
M  V30 31 H 1.897850 2.808527 1.833638 0
M  V30 32 H -0.775492 1.058924 -0.909362 0
M  V30 33 H -2.738266 -0.845370 -1.046074 0
M  V30 34 H -4.084949 -3.188305 -0.583806 0
M  V30 35 H -4.068047 -5.299498 0.558649 0
M  V30 36 H -2.287980 -6.203619 3.146199 0
M  V30 37 H -0.341381 -4.335095 2.239844 0
M  V30 END ATOM
M  V30 BEGIN BOND
M  V30 1 2 1 2
M  V30 2 1 2 3
M  V30 3 1 3 4
M  V30 4 2 4 5
M  V30 5 1 4 6
M  V30 6 2 6 7
M  V30 7 1 7 8
M  V30 8 1 8 9
M  V30 9 2 9 10
M  V30 10 1 10 11
M  V30 11 2 11 12
M  V30 12 1 12 13
M  V30 13 1 13 14
M  V30 14 2 13 15
M  V30 15 2 8 16
M  V30 16 1 16 17
M  V30 17 1 17 18
M  V30 18 1 18 19
M  V30 19 2 19 20
M  V30 20 1 20 21
M  V30 21 2 21 22
M  V30 22 1 22 23
M  V30 23 1 22 24
M  V30 24 2 24 25
M  V30 25 1 25 26
M  V30 26 1 7 2
M  V30 27 1 15 9
M  V30 28 2 26 17
M  V30 29 1 26 6
M  V30 30 1 25 19
M  V30 31 1 3 27
M  V30 32 1 10 28
M  V30 33 1 11 29
M  V30 34 1 12 30
M  V30 35 1 15 31
M  V30 36 1 16 32
M  V30 37 1 18 33
M  V30 38 1 20 34
M  V30 39 1 21 35
M  V30 40 1 23 36
M  V30 41 1 24 37
M  V30 END BOND
M  V30 END CTAB
M  END
>  <Dataset>  (529) 
ChEMBL_Kinases

>  <Ligand_Instance>  (529) 
nan

>  <PDB_ID>  (529) 
nan

>  <Standardized_SMILES>  (529) 
O=C1NC(=O)c2c1c(-c1cccc(F)c1)cc1[nH]c3ccc(O)cc3c21

>  <Name>  (529) 
nan

>  <Pocket>  (529) 
nan

>  <ATP_Site>  (529) 
nan

>  <Peripheral>  (529) 
nan

>  <Num_H_Atoms_ProtBoundConf>  (529) 
nan

>  <Num_Resolved_Atoms>  (529) 
nan

>  <Num_Not_Resolved_Atoms>  (529) 
nan

$$$$
CHEMBL2087021
     RDKit          3D

  0  0  0  0  0  0  0  0  0  0999 V3000
M  V30 BEGIN CTAB
M  V30 COUNTS 40 41 0 0 0
M  V30 BEGIN ATOM
M  V30 1 C 2.920202 -8.002761 -0.812628 0
M  V30 2 C 2.685288 -6.549116 -1.173232 0
M  V30 3 C 1.845296 -5.834389 -0.132046 0
M  V30 4 C 1.602295 -4.377338 -0.480883 0
M  V30 5 C 2.884705 -3.585622 -0.603264 0
M  V30 6 O 2.676533 -2.234729 -0.925947 0
M  V30 7 C 1.971155 -1.318459 -0.198544 0
M  V30 8 O 1.428216 -1.663202 0.883467 0
M  V30 9 N 1.934096 -0.038872 -0.772681 0
M  V30 10 C 1.180352 0.998806 -0.024452 0
M  V30 11 N 1.648618 1.716408 0.803698 0
M  V30 12 N 1.032003 2.627069 1.474539 0
M  V30 13 C -0.148594 2.864966 1.329742 0
M  V30 14 C -1.269594 3.743712 1.811925 0
M  V30 15 C -0.939764 4.662586 2.787472 0
M  V30 16 C -1.923853 5.498237 3.272189 0
M  V30 17 C -3.195764 5.370692 2.752447 0
M  V30 18 C -4.188889 6.276368 3.301317 0
M  V30 19 O -3.881554 7.111692 4.190864 0
M  V30 20 O -5.529957 6.349275 2.950351 0
M  V30 21 C -3.553549 4.463240 1.778934 0
M  V30 22 C -2.532459 3.647810 1.325014 0
M  V30 23 S -0.563917 1.585586 -0.015050 0
M  V30 24 H 2.068126 -8.379619 -0.230866 0
M  V30 25 H 3.816106 -8.087489 -0.179005 0
M  V30 26 H 3.041744 -8.611883 -1.734088 0
M  V30 27 H 2.246717 -6.450167 -2.175572 0
M  V30 28 H 3.686555 -6.067220 -1.171028 0
M  V30 29 H 2.252427 -5.974445 0.881139 0
M  V30 30 H 0.826518 -6.308853 -0.183194 0
M  V30 31 H 0.931551 -3.987586 0.288256 0
M  V30 32 H 1.115815 -4.370150 -1.482648 0
M  V30 33 H 3.378747 -3.644472 0.399013 0
M  V30 34 H 3.583584 -4.035020 -1.307181 0
M  V30 35 H 2.379207 0.238867 -1.657148 0
M  V30 36 H 0.068009 4.698632 3.137621 0
M  V30 37 H -1.666416 6.209289 4.027720 0
M  V30 38 H -6.282236 6.311916 3.625600 0
M  V30 39 H -4.558625 4.382399 1.387138 0
M  V30 40 H -2.765212 2.915397 0.556838 0
M  V30 END ATOM
M  V30 BEGIN BOND
M  V30 1 1 1 2
M  V30 2 1 2 3
M  V30 3 1 3 4
M  V30 4 1 4 5
M  V30 5 1 5 6
M  V30 6 1 6 7
M  V30 7 2 7 8
M  V30 8 1 7 9
M  V30 9 1 9 10
M  V30 10 2 10 11
M  V30 11 1 11 12
M  V30 12 2 12 13
M  V30 13 1 13 14
M  V30 14 2 14 15
M  V30 15 1 15 16
M  V30 16 2 16 17
M  V30 17 1 17 18
M  V30 18 2 18 19
M  V30 19 1 18 20
M  V30 20 1 17 21
M  V30 21 2 21 22
M  V30 22 1 13 23
M  V30 23 1 23 10
M  V30 24 1 22 14
M  V30 25 1 1 24
M  V30 26 1 1 25
M  V30 27 1 1 26
M  V30 28 1 2 27
M  V30 29 1 2 28
M  V30 30 1 3 29
M  V30 31 1 3 30
M  V30 32 1 4 31
M  V30 33 1 4 32
M  V30 34 1 5 33
M  V30 35 1 5 34
M  V30 36 1 9 35
M  V30 37 1 15 36
M  V30 38 1 16 37
M  V30 39 1 20 38
M  V30 40 1 21 39
M  V30 41 1 22 40
M  V30 END BOND
M  V30 END CTAB
M  END
>  <Dataset>  (530) 
ChEMBL_Kinases

>  <Ligand_Instance>  (530) 
nan

>  <PDB_ID>  (530) 
nan

>  <Standardized_SMILES>  (530) 
CCCCCOC(=O)Nc1nnc(-c2ccc(C(=O)O)cc2)s1

>  <Name>  (530) 
nan

>  <Pocket>  (530) 
nan

>  <ATP_Site>  (530) 
nan

>  <Peripheral>  (530) 
nan

>  <Num_H_Atoms_ProtBoundConf>  (530) 
nan

>  <Num_Resolved_Atoms>  (530) 
nan

>  <Num_Not_Resolved_Atoms>  (530) 
nan

$$$$
CHEMBL2087022
     RDKit          3D

  0  0  0  0  0  0  0  0  0  0999 V3000
M  V30 BEGIN CTAB
M  V30 COUNTS 43 44 0 0 0
M  V30 BEGIN ATOM
M  V30 1 C 1.996962 -6.550550 -1.080498 0
M  V30 2 C 2.989044 -5.445280 -0.780159 0
M  V30 3 C 2.566858 -4.131138 -1.370159 0
M  V30 4 C 3.517545 -3.011652 -1.102806 0
M  V30 5 C 3.695864 -2.752680 0.365132 0
M  V30 6 C 4.668296 -1.602648 0.580239 0
M  V30 7 O 4.197447 -0.415177 -0.026129 0
M  V30 8 C 2.986488 0.145379 0.356814 0
M  V30 9 O 2.221777 -0.322778 1.239746 0
M  V30 10 N 2.578630 1.327152 -0.288516 0
M  V30 11 C 1.314465 2.016128 0.030404 0
M  V30 12 N 0.698813 2.983824 -0.307024 0
M  V30 13 N -0.437624 3.323863 0.197498 0
M  V30 14 C -1.027225 2.766902 1.030919 0
M  V30 15 C -2.284799 2.832385 1.831599 0
M  V30 16 C -3.185541 3.859971 1.640676 0
M  V30 17 C -4.322511 3.846604 2.421060 0
M  V30 18 C -4.564013 2.862309 3.351789 0
M  V30 19 C -5.779293 2.891767 4.151897 0
M  V30 20 O -6.045281 2.030411 5.003360 0
M  V30 21 O -6.736507 3.888839 4.023088 0
M  V30 22 C -3.679249 1.824995 3.561122 0
M  V30 23 C -2.544679 1.855365 2.769103 0
M  V30 24 S 0.200880 1.344363 1.308145 0
M  V30 25 H 1.242099 -6.604093 -0.265517 0
M  V30 26 H 1.437501 -6.383201 -2.018525 0
M  V30 27 H 2.487511 -7.550636 -1.111120 0
M  V30 28 H 3.962744 -5.755933 -1.208671 0
M  V30 29 H 3.021566 -5.338322 0.328321 0
M  V30 30 H 1.518515 -3.891003 -1.116231 0
M  V30 31 H 2.576215 -4.290118 -2.488098 0
M  V30 32 H 3.219520 -2.116891 -1.670104 0
M  V30 33 H 4.524790 -3.360425 -1.473367 0
M  V30 34 H 4.097218 -3.690277 0.807234 0
M  V30 35 H 2.744049 -2.569125 0.898120 0
M  V30 36 H 5.677362 -1.845565 0.255543 0
M  V30 37 H 4.673893 -1.390559 1.682796 0
M  V30 38 H 3.076754 1.834703 -1.021688 0
M  V30 39 H -2.883533 4.559849 0.890655 0
M  V30 40 H -5.000240 4.672672 2.236188 0
M  V30 41 H -7.731568 3.695686 4.032505 0
M  V30 42 H -3.851074 1.053193 4.279057 0
M  V30 43 H -1.844705 1.022308 2.944394 0
M  V30 END ATOM
M  V30 BEGIN BOND
M  V30 1 1 1 2
M  V30 2 1 2 3
M  V30 3 1 3 4
M  V30 4 1 4 5
M  V30 5 1 5 6
M  V30 6 1 6 7
M  V30 7 1 7 8
M  V30 8 2 8 9
M  V30 9 1 8 10
M  V30 10 1 10 11
M  V30 11 2 11 12
M  V30 12 1 12 13
M  V30 13 2 13 14
M  V30 14 1 14 15
M  V30 15 2 15 16
M  V30 16 1 16 17
M  V30 17 2 17 18
M  V30 18 1 18 19
M  V30 19 2 19 20
M  V30 20 1 19 21
M  V30 21 1 18 22
M  V30 22 2 22 23
M  V30 23 1 14 24
M  V30 24 1 24 11
M  V30 25 1 23 15
M  V30 26 1 1 25
M  V30 27 1 1 26
M  V30 28 1 1 27
M  V30 29 1 2 28
M  V30 30 1 2 29
M  V30 31 1 3 30
M  V30 32 1 3 31
M  V30 33 1 4 32
M  V30 34 1 4 33
M  V30 35 1 5 34
M  V30 36 1 5 35
M  V30 37 1 6 36
M  V30 38 1 6 37
M  V30 39 1 10 38
M  V30 40 1 16 39
M  V30 41 1 17 40
M  V30 42 1 21 41
M  V30 43 1 22 42
M  V30 44 1 23 43
M  V30 END BOND
M  V30 END CTAB
M  END
>  <Dataset>  (531) 
ChEMBL_Kinases

>  <Ligand_Instance>  (531) 
nan

>  <PDB_ID>  (531) 
nan

>  <Standardized_SMILES>  (531) 
CCCCCCOC(=O)Nc1nnc(-c2ccc(C(=O)O)cc2)s1

>  <Name>  (531) 
nan

>  <Pocket>  (531) 
nan

>  <ATP_Site>  (531) 
nan

>  <Peripheral>  (531) 
nan

>  <Num_H_Atoms_ProtBoundConf>  (531) 
nan

>  <Num_Resolved_Atoms>  (531) 
nan

>  <Num_Not_Resolved_Atoms>  (531) 
nan

$$$$
CHEMBL85496
     RDKit          3D

  0  0  0  0  0  0  0  0  0  0999 V3000
M  V30 BEGIN CTAB
M  V30 COUNTS 25 26 0 0 0
M  V30 BEGIN ATOM
M  V30 1 C -1.828514 -4.433393 2.164748 0
M  V30 2 O -0.600220 -3.879156 1.871289 0
M  V30 3 C -0.298878 -2.539431 1.729468 0
M  V30 4 C 1.084476 -2.557400 1.447661 0
M  V30 5 C 1.766779 -1.344077 1.242418 0
M  V30 6 C 1.083454 -0.154390 1.316207 0
M  V30 7 C 1.751204 1.145262 1.165326 0
M  V30 8 C 1.241848 2.003009 0.324177 0
M  V30 9 S -0.224129 1.846250 -0.752297 0
M  V30 10 C 0.505379 2.874084 -2.070064 0
M  V30 11 O 0.276229 2.638476 -3.273438 0
M  V30 12 N 1.270612 3.837028 -1.308868 0
M  V30 13 C 1.658265 3.360999 -0.028187 0
M  V30 14 O 2.342818 4.101241 0.770357 0
M  V30 15 C -0.266157 -0.139763 1.588768 0
M  V30 16 C -0.947096 -1.328130 1.792880 0
M  V30 17 H -1.740654 -5.532712 2.368873 0
M  V30 18 H -2.231321 -3.976046 3.113181 0
M  V30 19 H -2.605608 -4.264362 1.391954 0
M  V30 20 H 1.809870 -3.363739 1.349244 0
M  V30 21 H 2.821107 -1.222603 1.015668 0
M  V30 22 H 2.648842 1.556919 1.661817 0
M  V30 23 H 1.476177 4.770040 -1.745713 0
M  V30 24 H -0.916417 0.734040 1.674857 0
M  V30 25 H -1.992618 -1.536784 2.019635 0
M  V30 END ATOM
M  V30 BEGIN BOND
M  V30 1 1 1 2
M  V30 2 1 2 3
M  V30 3 2 3 4
M  V30 4 1 4 5
M  V30 5 2 5 6
M  V30 6 1 6 7
M  V30 7 2 7 8
M  V30 8 1 8 9
M  V30 9 1 9 10
M  V30 10 2 10 11
M  V30 11 1 10 12
M  V30 12 1 12 13
M  V30 13 2 13 14
M  V30 14 1 6 15
M  V30 15 2 15 16
M  V30 16 1 16 3
M  V30 17 1 13 8
M  V30 18 1 1 17
M  V30 19 1 1 18
M  V30 20 1 1 19
M  V30 21 1 4 20
M  V30 22 1 5 21
M  V30 23 1 7 22
M  V30 24 1 12 23
M  V30 25 1 15 24
M  V30 26 1 16 25
M  V30 END BOND
M  V30 END CTAB
M  END
>  <Dataset>  (532) 
ChEMBL_Kinases

>  <Ligand_Instance>  (532) 
nan

>  <PDB_ID>  (532) 
nan

>  <Standardized_SMILES>  (532) 
COc1ccc(/C=C2\SC(=O)NC2=O)cc1

>  <Name>  (532) 
nan

>  <Pocket>  (532) 
nan

>  <ATP_Site>  (532) 
nan

>  <Peripheral>  (532) 
nan

>  <Num_H_Atoms_ProtBoundConf>  (532) 
nan

>  <Num_Resolved_Atoms>  (532) 
nan

>  <Num_Not_Resolved_Atoms>  (532) 
nan

$$$$
CHEMBL4641631
     RDKit          3D

  0  0  0  0  0  0  0  0  0  0999 V3000
M  V30 BEGIN CTAB
M  V30 COUNTS 51 55 0 0 0
M  V30 BEGIN ATOM
M  V30 1 O -3.888895 -4.249516 0.697333 0
M  V30 2 C -2.878587 -4.804147 1.185561 0
M  V30 3 N -1.760404 -3.924014 1.106362 0
M  V30 4 C -1.744645 -2.604415 0.563147 0
M  V30 5 C -0.565255 -1.853112 0.552952 0
M  V30 6 C -0.634856 -0.576702 0.005806 0
M  V30 7 C 0.589846 0.200140 -0.003506 0
M  V30 8 C 0.528440 1.537859 0.394126 0
M  V30 9 N 1.799490 2.024926 0.292482 0
M  V30 10 C 2.184298 3.375331 0.608758 0
M  V30 11 C 1.769308 4.386523 -0.434205 0
M  V30 12 C 2.511716 5.674287 -0.059371 0
M  V30 13 O 2.061061 6.092553 1.168844 0
M  V30 14 C 2.260728 5.198679 2.193208 0
M  V30 15 C 1.608289 3.852861 1.919676 0
M  V30 16 C 2.612423 1.045511 -0.144962 0
M  V30 17 C 3.959528 0.945247 -0.430568 0
M  V30 18 N 4.524106 -0.202600 -0.869314 0
M  V30 19 C 3.776037 -1.286841 -1.039596 0
M  V30 20 C 2.403736 -1.305880 -0.783607 0
M  V30 21 C 1.894044 -0.106337 -0.340403 0
M  V30 22 C -1.831473 -0.104378 -0.495869 0
M  V30 23 C -2.987374 -0.863376 -0.476479 0
M  V30 24 N -2.876450 -2.091763 0.061310 0
M  V30 25 N -2.769914 -6.086022 1.744933 0
M  V30 26 C -3.904241 -6.966129 1.819999 0
M  V30 27 C -4.051428 -8.004477 2.837395 0
M  V30 28 C -3.655962 -8.411279 1.427731 0
M  V30 29 H -0.865092 -4.311279 1.495793 0
M  V30 30 H 0.306953 -2.331993 0.974482 0
M  V30 31 H -0.316397 2.142844 0.729626 0
M  V30 32 H 3.292600 3.406041 0.740731 0
M  V30 33 H 2.016607 4.053528 -1.453284 0
M  V30 34 H 0.685392 4.619932 -0.283980 0
M  V30 35 H 3.613512 5.486956 -0.075260 0
M  V30 36 H 2.266223 6.424238 -0.810202 0
M  V30 37 H 3.362368 4.996813 2.231161 0
M  V30 38 H 1.891564 5.671645 3.121288 0
M  V30 39 H 1.878545 3.185849 2.780507 0
M  V30 40 H 0.516966 4.004994 1.889881 0
M  V30 41 H 4.570877 1.846936 -0.286898 0
M  V30 42 H 4.208641 -2.234132 -1.395337 0
M  V30 43 H 1.777654 -2.175550 -0.915272 0
M  V30 44 H -1.861557 0.904471 -0.921951 0
M  V30 45 H -3.946109 -0.511019 -0.867618 0
M  V30 46 H -1.842738 -6.397186 2.110946 0
M  V30 47 H -4.852577 -6.546189 1.403502 0
M  V30 48 H -3.295232 -8.241669 3.601437 0
M  V30 49 H -5.071687 -8.333111 3.121120 0
M  V30 50 H -2.616731 -8.753979 1.236177 0
M  V30 51 H -4.405647 -8.927774 0.796069 0
M  V30 END ATOM
M  V30 BEGIN BOND
M  V30 1 2 1 2
M  V30 2 1 2 3
M  V30 3 1 3 4
M  V30 4 2 4 5
M  V30 5 1 5 6
M  V30 6 1 6 7
M  V30 7 2 7 8
M  V30 8 1 8 9
M  V30 9 1 9 10
M  V30 10 1 10 11
M  V30 11 1 11 12
M  V30 12 1 12 13
M  V30 13 1 13 14
M  V30 14 1 14 15
M  V30 15 1 9 16
M  V30 16 2 16 17
M  V30 17 1 17 18
M  V30 18 2 18 19
M  V30 19 1 19 20
M  V30 20 2 20 21
M  V30 21 2 6 22
M  V30 22 1 22 23
M  V30 23 2 23 24
M  V30 24 1 2 25
M  V30 25 1 25 26
M  V30 26 1 26 27
M  V30 27 1 27 28
M  V30 28 1 24 4
M  V30 29 1 28 26
M  V30 30 1 21 7
M  V30 31 1 15 10
M  V30 32 1 21 16
M  V30 33 1 3 29
M  V30 34 1 5 30
M  V30 35 1 8 31
M  V30 36 1 10 32
M  V30 37 1 11 33
M  V30 38 1 11 34
M  V30 39 1 12 35
M  V30 40 1 12 36
M  V30 41 1 14 37
M  V30 42 1 14 38
M  V30 43 1 15 39
M  V30 44 1 15 40
M  V30 45 1 17 41
M  V30 46 1 19 42
M  V30 47 1 20 43
M  V30 48 1 22 44
M  V30 49 1 23 45
M  V30 50 1 25 46
M  V30 51 1 26 47
M  V30 52 1 27 48
M  V30 53 1 27 49
M  V30 54 1 28 50
M  V30 55 1 28 51
M  V30 END BOND
M  V30 END CTAB
M  END
>  <Dataset>  (533) 
ChEMBL_Kinases

>  <Ligand_Instance>  (533) 
nan

>  <PDB_ID>  (533) 
nan

>  <Standardized_SMILES>  (533) 
O=C(Nc1cc(-c2cn(C3CCOCC3)c3cnccc23)ccn1)NC1CC1

>  <Name>  (533) 
nan

>  <Pocket>  (533) 
nan

>  <ATP_Site>  (533) 
nan

>  <Peripheral>  (533) 
nan

>  <Num_H_Atoms_ProtBoundConf>  (533) 
nan

>  <Num_Resolved_Atoms>  (533) 
nan

>  <Num_Not_Resolved_Atoms>  (533) 
nan

$$$$
CHEMBL210222
     RDKit          3D

  0  0  0  0  0  0  0  0  0  0999 V3000
M  V30 BEGIN CTAB
M  V30 COUNTS 37 37 0 0 0
M  V30 BEGIN ATOM
M  V30 1 C -0.790809 -0.543235 4.588210 0
M  V30 2 C 0.130353 -1.567447 3.954912 0
M  V30 3 O 1.001520 -1.135560 3.071957 0
M  V30 4 C 1.829350 -0.721442 2.225745 0
M  V30 5 N 1.221019 -0.197236 1.193729 0
M  V30 6 C 1.714036 0.340192 0.083762 0
M  V30 7 N 1.157975 0.864011 -1.085869 0
M  V30 8 C -0.131026 0.252772 -1.155847 0
M  V30 9 O -0.609038 -0.565807 -0.283388 0
M  V30 10 C -1.353762 0.183580 -2.001920 0
M  V30 11 C -2.484233 -0.570946 -1.443410 0
M  V30 12 C -2.134662 -2.043639 -1.242779 0
M  V30 13 C -3.666647 -0.469316 -2.361962 0
M  V30 14 C 3.132200 0.310833 0.084522 0
M  V30 15 C 3.872247 -0.212913 1.112308 0
M  V30 16 N 5.282904 -0.286852 1.082995 0
M  V30 17 C 3.193916 -0.727075 2.180394 0
M  V30 18 C 3.862615 -1.297331 3.317328 0
M  V30 19 N 4.392551 -1.766656 4.208677 0
M  V30 20 H -0.193148 0.192535 5.162310 0
M  V30 21 H -1.507514 -1.059776 5.291883 0
M  V30 22 H -1.300603 0.025134 3.795429 0
M  V30 23 H 0.568655 -2.111182 4.852441 0
M  V30 24 H -0.507493 -2.391905 3.488295 0
M  V30 25 H 1.022750 1.378717 -1.928554 0
M  V30 26 H -0.986749 -0.451792 -2.908597 0
M  V30 27 H -1.622414 1.141406 -2.471659 0
M  V30 28 H -2.841586 -0.237930 -0.443236 0
M  V30 29 H -1.144040 -2.302050 -1.654934 0
M  V30 30 H -2.144339 -2.321330 -0.155133 0
M  V30 31 H -2.888106 -2.686466 -1.737505 0
M  V30 32 H -4.477008 0.178905 -1.910847 0
M  V30 33 H -4.184326 -1.452981 -2.513133 0
M  V30 34 H -3.452536 -0.035241 -3.338752 0
M  V30 35 H 3.650130 0.697079 -0.762545 0
M  V30 36 H 6.295954 -0.332146 1.034338 0
M  V30 37 H 5.689514 -0.033334 0.113803 0
M  V30 END ATOM
M  V30 BEGIN BOND
M  V30 1 1 1 2
M  V30 2 1 2 3
M  V30 3 1 3 4
M  V30 4 2 4 5
M  V30 5 1 5 6
M  V30 6 1 6 7
M  V30 7 1 7 8
M  V30 8 2 8 9
M  V30 9 1 8 10
M  V30 10 1 10 11
M  V30 11 1 11 12
M  V30 12 1 11 13
M  V30 13 2 6 14
M  V30 14 1 14 15
M  V30 15 1 15 16
M  V30 16 2 15 17
M  V30 17 1 17 18
M  V30 18 3 18 19
M  V30 19 1 17 4
M  V30 20 1 1 20
M  V30 21 1 1 21
M  V30 22 1 1 22
M  V30 23 1 2 23
M  V30 24 1 2 24
M  V30 25 1 7 25
M  V30 26 1 10 26
M  V30 27 1 10 27
M  V30 28 1 11 28
M  V30 29 1 12 29
M  V30 30 1 12 30
M  V30 31 1 12 31
M  V30 32 1 13 32
M  V30 33 1 13 33
M  V30 34 1 13 34
M  V30 35 1 14 35
M  V30 36 1 16 36
M  V30 37 1 16 37
M  V30 END BOND
M  V30 END CTAB
M  END
>  <Dataset>  (534) 
ChEMBL_Kinases

>  <Ligand_Instance>  (534) 
nan

>  <PDB_ID>  (534) 
nan

>  <Standardized_SMILES>  (534) 
CCOc1nc(NC(=O)CC(C)C)cc(N)c1C#N

>  <Name>  (534) 
nan

>  <Pocket>  (534) 
nan

>  <ATP_Site>  (534) 
nan

>  <Peripheral>  (534) 
nan

>  <Num_H_Atoms_ProtBoundConf>  (534) 
nan

>  <Num_Resolved_Atoms>  (534) 
nan

>  <Num_Not_Resolved_Atoms>  (534) 
nan

$$$$
CHEMBL2087023
     RDKit          3D

  0  0  0  0  0  0  0  0  0  0999 V3000
M  V30 BEGIN CTAB
M  V30 COUNTS 39 41 0 0 0
M  V30 BEGIN ATOM
M  V30 1 C 5.419848 -6.992337 -1.137680 0
M  V30 2 O 5.638827 -5.981917 -0.167125 0
M  V30 3 C 4.749758 -4.925111 -0.060062 0
M  V30 4 C 3.646899 -4.835985 -0.885844 0
M  V30 5 C 2.717679 -3.816108 -0.840347 0
M  V30 6 C 2.920289 -2.827503 0.099855 0
M  V30 7 C 2.040664 -1.681542 0.284734 0
M  V30 8 O 2.230665 -0.771692 1.153288 0
M  V30 9 N 0.884697 -1.473456 -0.491078 0
M  V30 10 C 0.100687 -0.246688 -0.164950 0
M  V30 11 N 0.072810 0.827244 -0.484785 0
M  V30 12 C -0.700270 1.811897 -0.090577 0
M  V30 13 C -1.610269 1.508276 0.843964 0
M  V30 14 C -2.638331 2.417201 1.497007 0
M  V30 15 C -2.632042 3.729504 1.069105 0
M  V30 16 C -3.578978 4.521676 1.685259 0
M  V30 17 C -4.454295 4.039963 2.645311 0
M  V30 18 C -5.453600 4.878740 3.294730 0
M  V30 19 O -6.247939 4.443339 4.165324 0
M  V30 20 O -5.590437 6.231720 2.985552 0
M  V30 21 C -4.398042 2.713852 3.020119 0
M  V30 22 C -3.469898 1.871418 2.437409 0
M  V30 23 S -1.318427 -0.226480 1.133622 0
M  V30 24 C 4.027379 -2.888032 0.951495 0
M  V30 25 C 4.926932 -3.933603 0.861742 0
M  V30 26 H 5.355295 -6.532979 -2.149122 0
M  V30 27 H 6.247590 -7.720599 -1.127129 0
M  V30 28 H 4.496483 -7.575122 -0.887844 0
M  V30 29 H 3.479454 -5.604814 -1.625062 0
M  V30 30 H 1.869926 -3.749408 -1.476512 0
M  V30 31 H 0.614286 -2.157000 -1.247420 0
M  V30 32 H -0.596708 2.824976 -0.511702 0
M  V30 33 H -1.953885 4.099611 0.326301 0
M  V30 34 H -3.624952 5.570153 1.390302 0
M  V30 35 H -6.180391 6.845776 3.561492 0
M  V30 36 H -5.058803 2.276813 3.768489 0
M  V30 37 H -3.371420 0.811470 2.687801 0
M  V30 38 H 4.236666 -2.127138 1.718420 0
M  V30 39 H 5.788817 -3.996919 1.512031 0
M  V30 END ATOM
M  V30 BEGIN BOND
M  V30 1 1 1 2
M  V30 2 1 2 3
M  V30 3 2 3 4
M  V30 4 1 4 5
M  V30 5 2 5 6
M  V30 6 1 6 7
M  V30 7 2 7 8
M  V30 8 1 7 9
M  V30 9 1 9 10
M  V30 10 2 10 11
M  V30 11 1 11 12
M  V30 12 2 12 13
M  V30 13 1 13 14
M  V30 14 2 14 15
M  V30 15 1 15 16
M  V30 16 2 16 17
M  V30 17 1 17 18
M  V30 18 2 18 19
M  V30 19 1 18 20
M  V30 20 1 17 21
M  V30 21 2 21 22
M  V30 22 1 13 23
M  V30 23 1 6 24
M  V30 24 2 24 25
M  V30 25 1 25 3
M  V30 26 1 23 10
M  V30 27 1 22 14
M  V30 28 1 1 26
M  V30 29 1 1 27
M  V30 30 1 1 28
M  V30 31 1 4 29
M  V30 32 1 5 30
M  V30 33 1 9 31
M  V30 34 1 12 32
M  V30 35 1 15 33
M  V30 36 1 16 34
M  V30 37 1 20 35
M  V30 38 1 21 36
M  V30 39 1 22 37
M  V30 40 1 24 38
M  V30 41 1 25 39
M  V30 END BOND
M  V30 END CTAB
M  END
>  <Dataset>  (535) 
ChEMBL_Kinases

>  <Ligand_Instance>  (535) 
nan

>  <PDB_ID>  (535) 
nan

>  <Standardized_SMILES>  (535) 
COc1ccc(C(=O)Nc2ncc(-c3ccc(C(=O)O)cc3)s2)cc1

>  <Name>  (535) 
nan

>  <Pocket>  (535) 
nan

>  <ATP_Site>  (535) 
nan

>  <Peripheral>  (535) 
nan

>  <Num_H_Atoms_ProtBoundConf>  (535) 
nan

>  <Num_Resolved_Atoms>  (535) 
nan

>  <Num_Not_Resolved_Atoms>  (535) 
nan

$$$$
CHEMBL2087025
     RDKit          3D

  0  0  0  0  0  0  0  0  0  0999 V3000
M  V30 BEGIN CTAB
M  V30 COUNTS 40 42 0 0 0
M  V30 BEGIN ATOM
M  V30 1 C -0.512617 -8.510553 1.231764 0
M  V30 2 O -0.216854 -7.760577 0.055020 0
M  V30 3 C -0.366624 -6.382737 0.160539 0
M  V30 4 C -0.772937 -5.708415 1.301533 0
M  V30 5 C -0.884936 -4.314526 1.279022 0
M  V30 6 C -0.589708 -3.615038 0.118138 0
M  V30 7 C -0.733700 -2.164554 0.184468 0
M  V30 8 O -1.109576 -1.643639 1.268131 0
M  V30 9 N -0.467609 -1.309750 -0.923825 0
M  V30 10 C -0.688458 0.056738 -0.582740 0
M  V30 11 C 0.337087 0.825348 -0.068089 0
M  V30 12 C -0.138069 2.099341 0.174321 0
M  V30 13 C 0.622837 3.223604 0.719580 0
M  V30 14 C 1.969170 3.057018 1.048485 0
M  V30 15 C 2.685562 4.136489 1.568025 0
M  V30 16 C 1.989391 5.309607 1.718550 0
M  V30 17 C 2.712513 6.451556 2.258403 0
M  V30 18 O 3.922703 6.468064 2.603099 0
M  V30 19 O 2.155503 7.703332 2.471183 0
M  V30 20 C 0.663292 5.529224 1.410966 0
M  V30 21 C -0.028647 4.434382 0.893758 0
M  V30 22 N -1.435248 2.077518 -0.196300 0
M  V30 23 N -1.775360 0.880239 -0.644967 0
M  V30 24 C -0.188860 -4.265619 -1.011600 0
M  V30 25 C -0.081650 -5.650503 -0.975941 0
M  V30 26 H 0.042470 -8.078970 2.112704 0
M  V30 27 H -1.585140 -8.321469 1.430726 0
M  V30 28 H -0.243413 -9.579137 1.145649 0
M  V30 29 H -0.987736 -6.312742 2.172767 0
M  V30 30 H -1.207245 -3.857552 2.205860 0
M  V30 31 H -0.159608 -1.703736 -1.820994 0
M  V30 32 H 1.360601 0.538347 0.134598 0
M  V30 33 H 2.470454 2.100034 0.906988 0
M  V30 34 H 3.730139 4.062179 1.839417 0
M  V30 35 H 2.415921 8.315718 3.256200 0
M  V30 36 H 0.185481 6.481197 1.557579 0
M  V30 37 H -1.081184 4.558240 0.634742 0
M  V30 38 H -2.082910 2.896039 -0.136685 0
M  V30 39 H 0.040487 -3.732173 -1.910657 0
M  V30 40 H 0.237958 -6.140969 -1.884587 0
M  V30 END ATOM
M  V30 BEGIN BOND
M  V30 1 1 1 2
M  V30 2 1 2 3
M  V30 3 2 3 4
M  V30 4 1 4 5
M  V30 5 2 5 6
M  V30 6 1 6 7
M  V30 7 2 7 8
M  V30 8 1 7 9
M  V30 9 1 9 10
M  V30 10 1 10 11
M  V30 11 2 11 12
M  V30 12 1 12 13
M  V30 13 2 13 14
M  V30 14 1 14 15
M  V30 15 2 15 16
M  V30 16 1 16 17
M  V30 17 2 17 18
M  V30 18 1 17 19
M  V30 19 1 16 20
M  V30 20 2 20 21
M  V30 21 1 12 22
M  V30 22 1 22 23
M  V30 23 1 6 24
M  V30 24 2 24 25
M  V30 25 1 25 3
M  V30 26 2 23 10
M  V30 27 1 21 13
M  V30 28 1 1 26
M  V30 29 1 1 27
M  V30 30 1 1 28
M  V30 31 1 4 29
M  V30 32 1 5 30
M  V30 33 1 9 31
M  V30 34 1 11 32
M  V30 35 1 14 33
M  V30 36 1 15 34
M  V30 37 1 19 35
M  V30 38 1 20 36
M  V30 39 1 21 37
M  V30 40 1 22 38
M  V30 41 1 24 39
M  V30 42 1 25 40
M  V30 END BOND
M  V30 END CTAB
M  END
>  <Dataset>  (536) 
ChEMBL_Kinases

>  <Ligand_Instance>  (536) 
nan

>  <PDB_ID>  (536) 
nan

>  <Standardized_SMILES>  (536) 
COc1ccc(C(=O)Nc2cc(-c3ccc(C(=O)O)cc3)[nH]n2)cc1

>  <Name>  (536) 
nan

>  <Pocket>  (536) 
nan

>  <ATP_Site>  (536) 
nan

>  <Peripheral>  (536) 
nan

>  <Num_H_Atoms_ProtBoundConf>  (536) 
nan

>  <Num_Resolved_Atoms>  (536) 
nan

>  <Num_Not_Resolved_Atoms>  (536) 
nan

$$$$
CHEMBL2087020
     RDKit          3D

  0  0  0  0  0  0  0  0  0  0999 V3000
M  V30 BEGIN CTAB
M  V30 COUNTS 37 38 0 0 0
M  V30 BEGIN ATOM
M  V30 1 C 2.553893 -6.837630 0.920230 0
M  V30 2 C 3.260472 -5.493644 1.000089 0
M  V30 3 C 3.537021 -5.200285 2.451015 0
M  V30 4 C 2.351938 -4.499320 0.353519 0
M  V30 5 O 2.909546 -3.179725 0.364786 0
M  V30 6 C 2.220048 -2.119100 -0.187217 0
M  V30 7 O 1.099247 -2.439869 -0.675857 0
M  V30 8 N 2.770250 -0.827586 -0.173993 0
M  V30 9 C 1.815254 0.135414 -0.837498 0
M  V30 10 N 1.325978 0.742072 -1.688308 0
M  V30 11 N 0.337744 1.562758 -1.581935 0
M  V30 12 C -0.240344 1.845410 -0.629348 0
M  V30 13 C -1.366115 2.673017 -0.024363 0
M  V30 14 C -1.724690 2.686355 1.296634 0
M  V30 15 C -2.778317 3.512531 1.630723 0
M  V30 16 C -3.414159 4.269556 0.667331 0
M  V30 17 C -4.520504 5.128971 1.055042 0
M  V30 18 O -5.140009 5.842210 0.225922 0
M  V30 19 O -4.968490 5.221929 2.362086 0
M  V30 20 C -3.022924 4.226438 -0.645245 0
M  V30 21 C -1.958381 3.398941 -1.015417 0
M  V30 22 S 0.709023 0.760374 0.606221 0
M  V30 23 H 2.431951 -7.089773 -0.169387 0
M  V30 24 H 3.078718 -7.626758 1.466287 0
M  V30 25 H 1.496744 -6.697513 1.280551 0
M  V30 26 H 4.237008 -5.596120 0.479219 0
M  V30 27 H 3.745697 -6.191299 2.937927 0
M  V30 28 H 4.451427 -4.583978 2.585728 0
M  V30 29 H 2.646578 -4.793492 2.982133 0
M  V30 30 H 2.062977 -4.846981 -0.634913 0
M  V30 31 H 1.433166 -4.457399 0.990610 0
M  V30 32 H 3.690272 -0.583484 0.230982 0
M  V30 33 H -1.145481 2.047237 1.946655 0
M  V30 34 H -3.055005 3.512973 2.694460 0
M  V30 35 H -5.965254 5.276713 2.617619 0
M  V30 36 H -3.563038 4.849574 -1.373803 0
M  V30 37 H -1.704593 3.415060 -2.065515 0
M  V30 END ATOM
M  V30 BEGIN BOND
M  V30 1 1 1 2
M  V30 2 1 2 3
M  V30 3 1 2 4
M  V30 4 1 4 5
M  V30 5 1 5 6
M  V30 6 2 6 7
M  V30 7 1 6 8
M  V30 8 1 8 9
M  V30 9 2 9 10
M  V30 10 1 10 11
M  V30 11 2 11 12
M  V30 12 1 12 13
M  V30 13 2 13 14
M  V30 14 1 14 15
M  V30 15 2 15 16
M  V30 16 1 16 17
M  V30 17 2 17 18
M  V30 18 1 17 19
M  V30 19 1 16 20
M  V30 20 2 20 21
M  V30 21 1 12 22
M  V30 22 1 22 9
M  V30 23 1 21 13
M  V30 24 1 1 23
M  V30 25 1 1 24
M  V30 26 1 1 25
M  V30 27 1 2 26
M  V30 28 1 3 27
M  V30 29 1 3 28
M  V30 30 1 3 29
M  V30 31 1 4 30
M  V30 32 1 4 31
M  V30 33 1 8 32
M  V30 34 1 14 33
M  V30 35 1 15 34
M  V30 36 1 19 35
M  V30 37 1 20 36
M  V30 38 1 21 37
M  V30 END BOND
M  V30 END CTAB
M  END
>  <Dataset>  (537) 
ChEMBL_Kinases

>  <Ligand_Instance>  (537) 
nan

>  <PDB_ID>  (537) 
nan

>  <Standardized_SMILES>  (537) 
CC(C)COC(=O)Nc1nnc(-c2ccc(C(=O)O)cc2)s1

>  <Name>  (537) 
nan

>  <Pocket>  (537) 
nan

>  <ATP_Site>  (537) 
nan

>  <Peripheral>  (537) 
nan

>  <Num_H_Atoms_ProtBoundConf>  (537) 
nan

>  <Num_Resolved_Atoms>  (537) 
nan

>  <Num_Not_Resolved_Atoms>  (537) 
nan

$$$$
CHEMBL593490
     RDKit          3D

  0  0  0  0  0  0  0  0  0  0999 V3000
M  V30 BEGIN CTAB
M  V30 COUNTS 60 65 0 0 0
M  V30 BEGIN ATOM
M  V30 1 C 4.378549 -0.860954 5.552728 0
M  V30 2 C 5.276497 -1.119532 4.387118 0
M  V30 3 N 6.621713 -1.289523 4.398802 0
M  V30 4 N 6.994519 -1.492682 3.146232 0
M  V30 5 C 5.947256 -1.463529 2.307692 0
M  V30 6 C 5.762165 -1.609738 0.950000 0
M  V30 7 C 4.529068 -1.528774 0.345504 0
M  V30 8 C 3.398460 -1.291141 1.100390 0
M  V30 9 C 2.025655 -1.176599 0.658672 0
M  V30 10 C 1.508391 -0.245681 -0.252881 0
M  V30 11 C 0.145912 -0.248414 -0.595916 0
M  V30 12 O -0.042504 0.760189 -1.490624 0
M  V30 13 C -1.207942 1.186489 -2.130980 0
M  V30 14 C -2.287381 1.675500 -1.240218 0 CFG=1
M  V30 15 N -1.742476 2.824219 -0.493330 0
M  V30 16 C -3.491551 2.202907 -1.948316 0
M  V30 17 C -4.168806 1.216117 -2.819087 0
M  V30 18 C -4.225928 0.996095 -4.192584 0
M  V30 19 N -5.003978 -0.055249 -4.409992 0
M  V30 20 C -5.483845 -0.570551 -3.282264 0
M  V30 21 C -6.321968 -1.645852 -2.978369 0
M  V30 22 C -6.668762 -1.967410 -1.684427 0
M  V30 23 C -6.158919 -1.187232 -0.675871 0
M  V30 24 C -5.333710 -0.127129 -0.961508 0
M  V30 25 C -4.970283 0.216120 -2.257249 0
M  V30 26 C -0.639360 -1.208306 0.009455 0
M  V30 27 N -0.130495 -2.094180 0.881126 0
M  V30 28 C 1.171138 -2.103382 1.218832 0
M  V30 29 C 1.505136 -3.148230 2.180397 0
M  V30 30 C 1.048227 -3.369925 3.477740 0
M  V30 31 C 1.673950 -4.501211 3.970576 0
M  V30 32 O 2.474344 -4.941112 3.008185 0
M  V30 33 C 2.391038 -4.164801 1.952767 0
M  V30 34 C 3.586428 -1.142970 2.475712 0
M  V30 35 C 4.826434 -1.225143 3.076909 0
M  V30 36 H 3.521740 -0.220915 5.259585 0
M  V30 37 H 4.928658 -0.376594 6.380346 0
M  V30 38 H 3.970715 -1.833724 5.939255 0
M  V30 39 H 7.237741 -1.263194 5.246090 0
M  V30 40 H 6.622377 -1.796266 0.327441 0
M  V30 41 H 4.339969 -1.637583 -0.717700 0
M  V30 42 H 2.330499 0.405583 -0.590837 0
M  V30 43 H -0.887771 2.058253 -2.779175 0
M  V30 44 H -1.569614 0.445017 -2.895047 0
M  V30 45 H -2.651526 0.992531 -0.466769 0
M  V30 46 H -0.894604 2.595191 0.037497 0
M  V30 47 H -2.492913 3.229638 0.124612 0
M  V30 48 H -4.220112 2.586308 -1.232744 0
M  V30 49 H -3.189430 3.046266 -2.601686 0
M  V30 50 H -3.683482 1.642996 -4.854888 0
M  V30 51 H -5.229070 -0.453944 -5.368107 0
M  V30 52 H -6.725068 -2.263437 -3.776263 0
M  V30 53 H -7.318632 -2.803172 -1.478891 0
M  V30 54 H -6.425166 -1.431546 0.341591 0
M  V30 55 H -4.961538 0.452905 -0.127581 0
M  V30 56 H -1.654167 -1.122494 -0.329049 0
M  V30 57 H 0.311308 -2.688093 3.926721 0
M  V30 58 H 1.470067 -4.865226 4.968463 0
M  V30 59 H 2.979549 -4.389676 1.089184 0
M  V30 60 H 2.760170 -0.952173 3.157600 0
M  V30 END ATOM
M  V30 BEGIN BOND
M  V30 1 1 1 2
M  V30 2 1 2 3
M  V30 3 1 3 4
M  V30 4 2 4 5
M  V30 5 1 5 6
M  V30 6 2 6 7
M  V30 7 1 7 8
M  V30 8 1 8 9
M  V30 9 2 9 10
M  V30 10 1 10 11
M  V30 11 1 11 12
M  V30 12 1 12 13
M  V30 13 1 13 14
M  V30 14 1 14 15
M  V30 15 1 14 16
M  V30 16 1 16 17
M  V30 17 2 17 18
M  V30 18 1 18 19
M  V30 19 1 19 20
M  V30 20 2 20 21
M  V30 21 1 21 22
M  V30 22 2 22 23
M  V30 23 1 23 24
M  V30 24 2 24 25
M  V30 25 2 11 26
M  V30 26 1 26 27
M  V30 27 2 27 28
M  V30 28 1 28 29
M  V30 29 1 29 30
M  V30 30 2 30 31
M  V30 31 1 31 32
M  V30 32 1 32 33
M  V30 33 2 8 34
M  V30 34 1 34 35
M  V30 35 2 35 2
M  V30 36 1 35 5
M  V30 37 1 28 9
M  V30 38 2 33 29
M  V30 39 1 25 17
M  V30 40 1 25 20
M  V30 41 1 1 36
M  V30 42 1 1 37
M  V30 43 1 1 38
M  V30 44 1 3 39
M  V30 45 1 6 40
M  V30 46 1 7 41
M  V30 47 1 10 42
M  V30 48 1 13 43
M  V30 49 1 13 44
M  V30 50 1 14 45 CFG=1
M  V30 51 1 15 46
M  V30 52 1 15 47
M  V30 53 1 16 48
M  V30 54 1 16 49
M  V30 55 1 18 50
M  V30 56 1 19 51
M  V30 57 1 21 52
M  V30 58 1 22 53
M  V30 59 1 23 54
M  V30 60 1 24 55
M  V30 61 1 26 56
M  V30 62 1 30 57
M  V30 63 1 31 58
M  V30 64 1 33 59
M  V30 65 1 34 60
M  V30 END BOND
M  V30 END CTAB
M  END
>  <Dataset>  (538) 
ChEMBL_Kinases

>  <Ligand_Instance>  (538) 
nan

>  <PDB_ID>  (538) 
nan

>  <Standardized_SMILES>  (538) 
Cc1[nH]nc2ccc(-c3cc(OC[C@@H](N)Cc4c[nH]c5ccccc45)cnc3-c3ccoc3)cc12

>  <Name>  (538) 
nan

>  <Pocket>  (538) 
nan

>  <ATP_Site>  (538) 
nan

>  <Peripheral>  (538) 
nan

>  <Num_H_Atoms_ProtBoundConf>  (538) 
nan

>  <Num_Resolved_Atoms>  (538) 
nan

>  <Num_Not_Resolved_Atoms>  (538) 
nan

$$$$
CHEMBL2087968
     RDKit          3D

  0  0  0  0  0  0  0  0  0  0999 V3000
M  V30 BEGIN CTAB
M  V30 COUNTS 50 54 0 0 0
M  V30 BEGIN ATOM
M  V30 1 C 1.525134 0.710910 4.723775 0
M  V30 2 C 2.463988 -0.306921 4.184788 0
M  V30 3 C 2.797428 -1.386341 4.970844 0
M  V30 4 C 3.679888 -2.306998 4.418327 0
M  V30 5 C 4.177462 -2.116447 3.141897 0
M  V30 6 C 3.824538 -1.023202 2.376980 0
M  V30 7 C 4.490918 -1.037557 1.052148 0
M  V30 8 N 3.717762 -1.768037 0.071026 0
M  V30 9 C 2.371673 -1.294215 -0.241413 0
M  V30 10 N 1.591510 -0.476469 0.012802 0
M  V30 11 C 0.372867 -0.358553 -0.520575 0
M  V30 12 C -0.517168 0.723240 -0.115770 0
M  V30 13 C -0.881332 1.759079 -0.949059 0
M  V30 14 C -1.721188 2.793040 -0.603593 0
M  V30 15 C -2.251294 2.815949 0.667804 0
M  V30 16 C -1.879107 1.769495 1.499612 0
M  V30 17 C -2.461777 1.806366 2.873743 0
M  V30 18 N -1.046509 0.752990 1.143265 0
M  V30 19 C -0.019266 -1.266356 -1.451049 0
M  V30 20 C -1.203427 -1.513138 -2.256688 0
M  V30 21 C -1.799881 -0.779500 -3.248638 0
M  V30 22 C -2.941909 -1.246994 -3.865712 0
M  V30 23 C -3.468576 -2.476435 -3.456241 0
M  V30 24 N -4.560265 -3.113400 -3.916663 0
M  V30 25 C -4.684662 -4.253563 -3.238767 0
M  V30 26 N -3.659173 -4.289601 -2.372057 0
M  V30 27 N -2.903868 -3.216996 -2.485838 0
M  V30 28 C -1.775828 -2.738772 -1.887422 0
M  V30 29 S 1.517462 -2.346810 -1.526441 0
M  V30 30 C 2.950983 -0.102293 2.910908 0
M  V30 31 H 0.731609 0.193703 5.328935 0
M  V30 32 H 1.078767 1.314560 3.917390 0
M  V30 33 H 2.021949 1.430763 5.409774 0
M  V30 34 H 2.396267 -1.514972 5.965871 0
M  V30 35 H 3.919629 -3.146035 5.067111 0
M  V30 36 H 4.847034 -2.915928 2.860552 0
M  V30 37 H 5.532024 -1.374354 1.112308 0
M  V30 38 H 4.543759 0.053319 0.751311 0
M  V30 39 H 4.193512 -2.592759 -0.344403 0
M  V30 40 H -0.501274 1.803326 -1.951037 0
M  V30 41 H -1.977129 3.580440 -1.286922 0
M  V30 42 H -2.915335 3.593905 1.006890 0
M  V30 43 H -1.797865 2.353018 3.569860 0
M  V30 44 H -3.439809 2.360868 2.877559 0
M  V30 45 H -2.670699 0.785623 3.218884 0
M  V30 46 H -1.284538 0.125198 -3.447583 0
M  V30 47 H -3.375199 -0.631842 -4.642327 0
M  V30 48 H -5.420825 -5.047649 -3.300353 0
M  V30 49 H -1.417932 -3.438190 -1.114289 0
M  V30 50 H 2.731193 0.713100 2.257736 0
M  V30 END ATOM
M  V30 BEGIN BOND
M  V30 1 1 1 2
M  V30 2 2 2 3
M  V30 3 1 3 4
M  V30 4 2 4 5
M  V30 5 1 5 6
M  V30 6 1 6 7
M  V30 7 1 7 8
M  V30 8 1 8 9
M  V30 9 2 9 10
M  V30 10 1 10 11
M  V30 11 1 11 12
M  V30 12 2 12 13
M  V30 13 1 13 14
M  V30 14 2 14 15
M  V30 15 1 15 16
M  V30 16 1 16 17
M  V30 17 2 16 18
M  V30 18 2 11 19
M  V30 19 1 19 20
M  V30 20 1 20 21
M  V30 21 2 21 22
M  V30 22 1 22 23
M  V30 23 2 23 24
M  V30 24 1 24 25
M  V30 25 2 25 26
M  V30 26 1 26 27
M  V30 27 1 27 28
M  V30 28 1 19 29
M  V30 29 2 6 30
M  V30 30 1 30 2
M  V30 31 1 29 9
M  V30 32 1 18 12
M  V30 33 2 28 20
M  V30 34 1 27 23
M  V30 35 1 1 31
M  V30 36 1 1 32
M  V30 37 1 1 33
M  V30 38 1 3 34
M  V30 39 1 4 35
M  V30 40 1 5 36
M  V30 41 1 7 37
M  V30 42 1 7 38
M  V30 43 1 8 39
M  V30 44 1 13 40
M  V30 45 1 14 41
M  V30 46 1 15 42
M  V30 47 1 17 43
M  V30 48 1 17 44
M  V30 49 1 17 45
M  V30 50 1 21 46
M  V30 51 1 22 47
M  V30 52 1 25 48
M  V30 53 1 28 49
M  V30 54 1 30 50
M  V30 END BOND
M  V30 END CTAB
M  END
>  <Dataset>  (539) 
ChEMBL_Kinases

>  <Ligand_Instance>  (539) 
nan

>  <PDB_ID>  (539) 
nan

>  <Standardized_SMILES>  (539) 
Cc1cccc(CNc2nc(-c3cccc(C)n3)c(-c3ccc4ncnn4c3)s2)c1

>  <Name>  (539) 
nan

>  <Pocket>  (539) 
nan

>  <ATP_Site>  (539) 
nan

>  <Peripheral>  (539) 
nan

>  <Num_H_Atoms_ProtBoundConf>  (539) 
nan

>  <Num_Resolved_Atoms>  (539) 
nan

>  <Num_Not_Resolved_Atoms>  (539) 
nan

$$$$
CHEMBL4641607
     RDKit          3D

  0  0  0  0  0  0  0  0  0  0999 V3000
M  V30 BEGIN CTAB
M  V30 COUNTS 44 47 0 0 0
M  V30 BEGIN ATOM
M  V30 1 C -3.289502 -4.530640 1.820704 0
M  V30 2 C -2.052071 -5.067390 2.077421 0
M  V30 3 C -0.940273 -4.307127 1.774617 0
M  V30 4 C -0.962419 -3.039717 1.230023 0
M  V30 5 C 0.276724 -2.323520 0.948977 0
M  V30 6 C 0.386454 -0.950315 1.010549 0
M  V30 7 C 1.545187 -0.285148 0.747407 0
M  V30 8 N 1.630192 1.130731 0.812705 0
M  V30 9 C 0.451085 1.906815 1.146362 0 CFG=2
M  V30 10 C -0.620116 1.776760 0.122116 0
M  V30 11 C -0.845951 3.006836 -0.712461 0
M  V30 12 C -0.781714 4.252002 0.145389 0
M  V30 13 N 0.612063 4.308140 0.604169 0
M  V30 14 C 0.824076 3.261423 1.572800 0
M  V30 15 C 2.602247 -1.100755 0.413813 0
M  V30 16 C 3.832731 -0.553788 0.124106 0
M  V30 17 C 4.947090 -1.287018 -0.219230 0
M  V30 18 N 4.839425 -2.630479 -0.279275 0
M  V30 19 C 3.654219 -3.241669 -0.005792 0
M  V30 20 C 2.557435 -2.472167 0.335287 0
M  V30 21 C 1.366733 -3.112687 0.608305 0
M  V30 22 C -2.224087 -2.534119 0.986182 0
M  V30 23 C -3.357944 -3.264544 1.275687 0
M  V30 24 H -4.159719 -5.132331 2.060581 0
M  V30 25 H -1.984396 -6.055627 2.503123 0
M  V30 26 H 0.009400 -4.810942 2.011251 0
M  V30 27 H -0.521736 -0.475191 1.287188 0
M  V30 28 H 2.490341 1.677985 0.635656 0
M  V30 29 H 0.042165 1.379324 2.063823 0
M  V30 30 H -1.613892 1.502102 0.532033 0
M  V30 31 H -0.344342 0.975148 -0.593394 0
M  V30 32 H -1.862708 2.979091 -1.151984 0
M  V30 33 H -0.107998 3.130728 -1.525313 0
M  V30 34 H -1.479032 4.173417 0.992662 0
M  V30 35 H -0.982590 5.142355 -0.487831 0
M  V30 36 H 1.223233 4.223323 -0.233208 0
M  V30 37 H 1.889595 3.330208 1.881431 0
M  V30 38 H 0.268914 3.604655 2.495723 0
M  V30 39 H 4.010071 0.510174 0.147100 0
M  V30 40 H 5.909840 -0.836786 -0.444395 0
M  V30 41 H 3.528905 -4.328792 -0.044216 0
M  V30 42 H 1.291993 -4.175392 0.557915 0
M  V30 43 H -2.306999 -1.537227 0.556480 0
M  V30 44 H -4.354742 -2.888668 1.093104 0
M  V30 END ATOM
M  V30 BEGIN BOND
M  V30 1 2 1 2
M  V30 2 1 2 3
M  V30 3 2 3 4
M  V30 4 1 4 5
M  V30 5 2 5 6
M  V30 6 1 6 7
M  V30 7 1 7 8
M  V30 8 1 8 9
M  V30 9 1 9 10
M  V30 10 1 10 11
M  V30 11 1 11 12
M  V30 12 1 12 13
M  V30 13 1 13 14
M  V30 14 2 7 15
M  V30 15 1 15 16
M  V30 16 2 16 17
M  V30 17 1 17 18
M  V30 18 2 18 19
M  V30 19 1 19 20
M  V30 20 2 20 21
M  V30 21 1 4 22
M  V30 22 2 22 23
M  V30 23 1 23 1
M  V30 24 1 21 5
M  V30 25 1 14 9
M  V30 26 1 20 15
M  V30 27 1 1 24
M  V30 28 1 2 25
M  V30 29 1 3 26
M  V30 30 1 6 27
M  V30 31 1 8 28
M  V30 32 1 9 29 CFG=1
M  V30 33 1 10 30
M  V30 34 1 10 31
M  V30 35 1 11 32
M  V30 36 1 11 33
M  V30 37 1 12 34
M  V30 38 1 12 35
M  V30 39 1 13 36
M  V30 40 1 14 37
M  V30 41 1 14 38
M  V30 42 1 16 39
M  V30 43 1 17 40
M  V30 44 1 19 41
M  V30 45 1 21 42
M  V30 46 1 22 43
M  V30 47 1 23 44
M  V30 END BOND
M  V30 END CTAB
M  END
>  <Dataset>  (540) 
ChEMBL_Kinases

>  <Ligand_Instance>  (540) 
nan

>  <PDB_ID>  (540) 
nan

>  <Standardized_SMILES>  (540) 
c1ccc(-c2cc(N[C@@H]3CCCNC3)c3ccncc3c2)cc1

>  <Name>  (540) 
nan

>  <Pocket>  (540) 
nan

>  <ATP_Site>  (540) 
nan

>  <Peripheral>  (540) 
nan

>  <Num_H_Atoms_ProtBoundConf>  (540) 
nan

>  <Num_Resolved_Atoms>  (540) 
nan

>  <Num_Not_Resolved_Atoms>  (540) 
nan

$$$$
CHEMBL573470
     RDKit          3D

  0  0  0  0  0  0  0  0  0  0999 V3000
M  V30 BEGIN CTAB
M  V30 COUNTS 35 37 0 0 0
M  V30 BEGIN ATOM
M  V30 1 C -0.413190 -1.150847 5.013790 0
M  V30 2 C -0.039392 -2.380520 4.740945 0
M  V30 3 C 0.400464 -2.784253 3.395858 0
M  V30 4 C 0.767611 -4.101879 3.235605 0
M  V30 5 C 1.175272 -4.456854 1.970148 0
M  V30 6 C 1.177852 -3.480328 1.001507 0
M  V30 7 S 1.656736 -3.634835 -0.742772 0
M  V30 8 C 1.325174 -1.889385 -1.143143 0
M  V30 9 C 1.474913 -1.245020 -2.366197 0
M  V30 10 O 1.890121 -1.940570 -3.328028 0
M  V30 11 N 1.163567 0.059190 -2.410982 0
M  V30 12 C 0.739511 0.594103 -1.256967 0
M  V30 13 C 0.380494 2.059917 -1.258257 0
M  V30 14 N -0.999745 2.288361 -1.581244 0
M  V30 15 C -1.910535 1.659560 -0.656449 0
M  V30 16 C -1.201458 3.724286 -1.511329 0
M  V30 17 N 0.610913 -0.055362 -0.112838 0
M  V30 18 C 0.894796 -1.359132 0.040247 0
M  V30 19 C 0.815634 -2.159643 1.139242 0
M  V30 20 C 0.410382 -1.825260 2.415370 0
M  V30 21 H -0.525845 -0.201236 4.527667 0
M  V30 22 H -0.740104 -0.825046 5.988213 0
M  V30 23 H -0.072390 -3.077860 5.556084 0
M  V30 24 H 0.754527 -4.841322 4.013150 0
M  V30 25 H 1.488987 -5.439968 1.693106 0
M  V30 26 H 1.271304 0.551812 -3.319322 0
M  V30 27 H 0.535205 2.472293 -0.234280 0
M  V30 28 H 1.004788 2.613078 -1.969249 0
M  V30 29 H -1.362389 1.258030 0.229506 0
M  V30 30 H -2.647467 2.386887 -0.214232 0
M  V30 31 H -2.535218 0.861710 -1.108424 0
M  V30 32 H -2.282508 3.968393 -1.548021 0
M  V30 33 H -0.624784 4.220096 -2.312505 0
M  V30 34 H -0.779840 4.074322 -0.545180 0
M  V30 35 H 0.090776 -0.814170 2.688271 0
M  V30 END ATOM
M  V30 BEGIN BOND
M  V30 1 2 1 2
M  V30 2 1 2 3
M  V30 3 2 3 4
M  V30 4 1 4 5
M  V30 5 2 5 6
M  V30 6 1 6 7
M  V30 7 1 7 8
M  V30 8 1 8 9
M  V30 9 2 9 10
M  V30 10 1 9 11
M  V30 11 1 11 12
M  V30 12 1 12 13
M  V30 13 1 13 14
M  V30 14 1 14 15
M  V30 15 1 14 16
M  V30 16 2 12 17
M  V30 17 1 17 18
M  V30 18 1 18 19
M  V30 19 2 19 20
M  V30 20 1 20 3
M  V30 21 1 19 6
M  V30 22 2 18 8
M  V30 23 1 1 21
M  V30 24 1 1 22
M  V30 25 1 2 23
M  V30 26 1 4 24
M  V30 27 1 5 25
M  V30 28 1 11 26
M  V30 29 1 13 27
M  V30 30 1 13 28
M  V30 31 1 15 29
M  V30 32 1 15 30
M  V30 33 1 15 31
M  V30 34 1 16 32
M  V30 35 1 16 33
M  V30 36 1 16 34
M  V30 37 1 20 35
M  V30 END BOND
M  V30 END CTAB
M  END
>  <Dataset>  (541) 
ChEMBL_Kinases

>  <Ligand_Instance>  (541) 
nan

>  <PDB_ID>  (541) 
nan

>  <Standardized_SMILES>  (541) 
C=Cc1ccc2sc3c(=O)[nH]c(CN(C)C)nc3c2c1

>  <Name>  (541) 
nan

>  <Pocket>  (541) 
nan

>  <ATP_Site>  (541) 
nan

>  <Peripheral>  (541) 
nan

>  <Num_H_Atoms_ProtBoundConf>  (541) 
nan

>  <Num_Resolved_Atoms>  (541) 
nan

>  <Num_Not_Resolved_Atoms>  (541) 
nan

$$$$
CHEMBL2087019
     RDKit          3D

  0  0  0  0  0  0  0  0  0  0999 V3000
M  V30 BEGIN CTAB
M  V30 COUNTS 37 38 0 0 0
M  V30 BEGIN ATOM
M  V30 1 C 1.714916 -7.177359 1.275877 0
M  V30 2 C 2.660611 -6.386909 0.401260 0
M  V30 3 C 2.747074 -4.925544 0.851324 0
M  V30 4 C 3.702607 -4.257571 -0.082376 0
M  V30 5 O 3.918468 -2.896569 0.168468 0
M  V30 6 C 2.952968 -1.923362 0.152456 0
M  V30 7 O 1.763577 -2.261330 -0.108023 0
M  V30 8 N 3.182703 -0.569916 0.404563 0
M  V30 9 C 1.983928 0.344642 0.338645 0
M  V30 10 N 1.653837 0.879835 -0.667123 0
M  V30 11 N 0.652962 1.675631 -0.834316 0
M  V30 12 C -0.096406 1.975673 0.071449 0
M  V30 13 C -1.314107 2.772413 0.465711 0
M  V30 14 C -1.847542 2.812719 1.714496 0
M  V30 15 C -2.966771 3.606791 1.861392 0
M  V30 16 C -3.495744 4.313275 0.776435 0
M  V30 17 C -4.675239 5.142439 0.957737 0
M  V30 18 O -5.177471 5.791702 0.002530 0
M  V30 19 O -5.301227 5.256180 2.191329 0
M  V30 20 C -2.918663 4.241489 -0.476246 0
M  V30 21 C -1.782345 3.440548 -0.643761 0
M  V30 22 S 0.700708 0.976471 1.478257 0
M  V30 23 H 0.685442 -6.804856 1.109485 0
M  V30 24 H 1.979406 -6.988511 2.318056 0
M  V30 25 H 1.845693 -8.236944 1.063735 0
M  V30 26 H 2.248712 -6.449199 -0.636779 0
M  V30 27 H 3.642120 -6.873056 0.434492 0
M  V30 28 H 3.125010 -4.949354 1.880897 0
M  V30 29 H 1.710059 -4.531596 0.775158 0
M  V30 30 H 4.673604 -4.777737 0.014512 0
M  V30 31 H 3.365120 -4.389110 -1.121766 0
M  V30 32 H 4.118939 -0.227263 0.621623 0
M  V30 33 H -1.369297 2.234565 2.484328 0
M  V30 34 H -3.416702 3.655468 2.863560 0
M  V30 35 H -6.326665 5.319082 2.260129 0
M  V30 36 H -3.364688 4.807095 -1.286199 0
M  V30 37 H -1.377952 3.423742 -1.638344 0
M  V30 END ATOM
M  V30 BEGIN BOND
M  V30 1 1 1 2
M  V30 2 1 2 3
M  V30 3 1 3 4
M  V30 4 1 4 5
M  V30 5 1 5 6
M  V30 6 2 6 7
M  V30 7 1 6 8
M  V30 8 1 8 9
M  V30 9 2 9 10
M  V30 10 1 10 11
M  V30 11 2 11 12
M  V30 12 1 12 13
M  V30 13 2 13 14
M  V30 14 1 14 15
M  V30 15 2 15 16
M  V30 16 1 16 17
M  V30 17 2 17 18
M  V30 18 1 17 19
M  V30 19 1 16 20
M  V30 20 2 20 21
M  V30 21 1 12 22
M  V30 22 1 22 9
M  V30 23 1 21 13
M  V30 24 1 1 23
M  V30 25 1 1 24
M  V30 26 1 1 25
M  V30 27 1 2 26
M  V30 28 1 2 27
M  V30 29 1 3 28
M  V30 30 1 3 29
M  V30 31 1 4 30
M  V30 32 1 4 31
M  V30 33 1 8 32
M  V30 34 1 14 33
M  V30 35 1 15 34
M  V30 36 1 19 35
M  V30 37 1 20 36
M  V30 38 1 21 37
M  V30 END BOND
M  V30 END CTAB
M  END
>  <Dataset>  (542) 
ChEMBL_Kinases

>  <Ligand_Instance>  (542) 
nan

>  <PDB_ID>  (542) 
nan

>  <Standardized_SMILES>  (542) 
CCCCOC(=O)Nc1nnc(-c2ccc(C(=O)O)cc2)s1

>  <Name>  (542) 
nan

>  <Pocket>  (542) 
nan

>  <ATP_Site>  (542) 
nan

>  <Peripheral>  (542) 
nan

>  <Num_H_Atoms_ProtBoundConf>  (542) 
nan

>  <Num_Resolved_Atoms>  (542) 
nan

>  <Num_Not_Resolved_Atoms>  (542) 
nan

$$$$
CHEMBL573475
     RDKit          3D

  0  0  0  0  0  0  0  0  0  0999 V3000
M  V30 BEGIN CTAB
M  V30 COUNTS 39 42 0 0 0
M  V30 BEGIN ATOM
M  V30 1 O -0.172536 -3.546807 3.604296 0
M  V30 2 C 0.168252 -2.489939 3.024197 0
M  V30 3 N 1.250814 -2.382104 2.236026 0
M  V30 4 C 1.464813 -1.172875 1.694690 0
M  V30 5 C 2.650995 -1.005426 0.814451 0
M  V30 6 N 2.465426 -1.252356 -0.541244 0
M  V30 7 C 2.042514 -2.515808 -0.967858 0
M  V30 8 C 0.549008 -2.434218 -1.279160 0
M  V30 9 C 0.372705 -1.442235 -2.378465 0
M  V30 10 O 0.899006 -2.013248 -3.553771 0
M  V30 11 C 1.014161 -0.115833 -2.167354 0
M  V30 12 C 2.326308 -0.165950 -1.429340 0
M  V30 13 N 0.700001 -0.114676 1.883363 0
M  V30 14 C -0.403635 -0.096815 2.645404 0
M  V30 15 C -0.623836 -1.392280 3.219041 0
M  V30 16 S -2.137819 -1.174478 4.201692 0
M  V30 17 C -2.364063 0.537632 3.803446 0
M  V30 18 C -3.331733 1.394934 4.198468 0
M  V30 19 C -3.336655 2.706840 3.776132 0
M  V30 20 C -2.286477 3.022466 2.943047 0
M  V30 21 Cl -2.249312 4.700475 2.372594 0
M  V30 22 C -1.295470 2.175409 2.528462 0
M  V30 23 C -1.314160 0.869648 2.965234 0
M  V30 24 H 1.822877 -3.222484 2.110762 0
M  V30 25 H 3.459704 -1.685464 1.212371 0
M  V30 26 H 3.049775 0.016681 0.967558 0
M  V30 27 H 2.301424 -3.285646 -0.243940 0
M  V30 28 H 2.503538 -2.812330 -1.953910 0
M  V30 29 H 0.257852 -3.434771 -1.684390 0
M  V30 30 H 0.013695 -2.179967 -0.350998 0
M  V30 31 H -0.737728 -1.296925 -2.502978 0
M  V30 32 H 1.132463 -1.298390 -4.214997 0
M  V30 33 H 1.183273 0.347650 -3.176999 0
M  V30 34 H 0.267882 0.562412 -1.690867 0
M  V30 35 H 2.530685 0.784886 -0.895421 0
M  V30 36 H 3.132678 -0.246481 -2.211890 0
M  V30 37 H -4.101145 1.024795 4.853900 0
M  V30 38 H -4.096637 3.411006 4.076355 0
M  V30 39 H -0.521679 2.581864 1.858205 0
M  V30 END ATOM
M  V30 BEGIN BOND
M  V30 1 2 1 2
M  V30 2 1 2 3
M  V30 3 1 3 4
M  V30 4 1 4 5
M  V30 5 1 5 6
M  V30 6 1 6 7
M  V30 7 1 7 8
M  V30 8 1 8 9
M  V30 9 1 9 10
M  V30 10 1 9 11
M  V30 11 1 11 12
M  V30 12 2 4 13
M  V30 13 1 13 14
M  V30 14 2 14 15
M  V30 15 1 15 16
M  V30 16 1 16 17
M  V30 17 2 17 18
M  V30 18 1 18 19
M  V30 19 2 19 20
M  V30 20 1 20 21
M  V30 21 1 20 22
M  V30 22 2 22 23
M  V30 23 1 15 2
M  V30 24 1 23 17
M  V30 25 1 12 6
M  V30 26 1 23 14
M  V30 27 1 3 24
M  V30 28 1 5 25
M  V30 29 1 5 26
M  V30 30 1 7 27
M  V30 31 1 7 28
M  V30 32 1 8 29
M  V30 33 1 8 30
M  V30 34 1 9 31
M  V30 35 1 10 32
M  V30 36 1 11 33
M  V30 37 1 11 34
M  V30 38 1 12 35
M  V30 39 1 12 36
M  V30 40 1 18 37
M  V30 41 1 19 38
M  V30 42 1 22 39
M  V30 END BOND
M  V30 END CTAB
M  END
>  <Dataset>  (543) 
ChEMBL_Kinases

>  <Ligand_Instance>  (543) 
nan

>  <PDB_ID>  (543) 
nan

>  <Standardized_SMILES>  (543) 
O=c1[nH]c(CN2CCC(O)CC2)nc2c1sc1ccc(Cl)cc12

>  <Name>  (543) 
nan

>  <Pocket>  (543) 
nan

>  <ATP_Site>  (543) 
nan

>  <Peripheral>  (543) 
nan

>  <Num_H_Atoms_ProtBoundConf>  (543) 
nan

>  <Num_Resolved_Atoms>  (543) 
nan

>  <Num_Not_Resolved_Atoms>  (543) 
nan

$$$$
CHEMBL573476
     RDKit          3D

  0  0  0  0  0  0  0  0  0  0999 V3000
M  V30 BEGIN CTAB
M  V30 COUNTS 36 39 0 0 0
M  V30 BEGIN ATOM
M  V30 1 O 2.368142 -2.568740 3.961107 0
M  V30 2 C 1.578281 -2.332342 3.038219 0
M  V30 3 N 1.536158 -2.880374 1.822756 0
M  V30 4 C 0.577893 -2.452691 0.996159 0
M  V30 5 C 0.622977 -3.144492 -0.329248 0
M  V30 6 N 1.470823 -2.529540 -1.288292 0
M  V30 7 C 1.429486 -1.301834 -1.984794 0
M  V30 8 C 0.435218 -0.357027 -1.887291 0
M  V30 9 C 0.380941 0.844477 -2.548046 0
M  V30 10 C 1.435853 1.120608 -3.392563 0
M  V30 11 C 2.467621 0.219522 -3.540144 0
M  V30 12 O 3.519031 0.511390 -4.391706 0
M  V30 13 C 2.452127 -0.965034 -2.843724 0
M  V30 14 N -0.310066 -1.539731 1.304949 0
M  V30 15 C -0.396344 -0.902585 2.475825 0
M  V30 16 C 0.614417 -1.349298 3.356867 0
M  V30 17 S 0.344142 -0.400659 4.846385 0
M  V30 18 C -1.091716 0.524816 4.199983 0
M  V30 19 C -1.860454 1.492030 4.835371 0
M  V30 20 C -2.901523 2.048124 4.127637 0
M  V30 21 C -3.065442 1.575111 2.849938 0
M  V30 22 Cl -4.407318 2.300991 1.956670 0
M  V30 23 C -2.309719 0.631327 2.239993 0
M  V30 24 C -1.259158 0.053744 2.920013 0
M  V30 25 H 2.280370 -3.582832 1.694401 0
M  V30 26 H 0.781388 -4.209296 -0.185996 0
M  V30 27 H -0.446475 -3.065169 -0.714008 0
M  V30 28 H 2.307137 -3.153545 -1.504690 0
M  V30 29 H -0.404827 -0.546526 -1.243212 0
M  V30 30 H -0.432761 1.543436 -2.424886 0
M  V30 31 H 1.485715 2.024382 -3.948435 0
M  V30 32 H 3.379970 0.994332 -5.286355 0
M  V30 33 H 3.286674 -1.632616 -2.998598 0
M  V30 34 H -1.586366 1.742787 5.847993 0
M  V30 35 H -3.501051 2.799835 4.617743 0
M  V30 36 H -2.567476 0.360549 1.214963 0
M  V30 END ATOM
M  V30 BEGIN BOND
M  V30 1 2 1 2
M  V30 2 1 2 3
M  V30 3 1 3 4
M  V30 4 1 4 5
M  V30 5 1 5 6
M  V30 6 1 6 7
M  V30 7 2 7 8
M  V30 8 1 8 9
M  V30 9 2 9 10
M  V30 10 1 10 11
M  V30 11 1 11 12
M  V30 12 2 11 13
M  V30 13 2 4 14
M  V30 14 1 14 15
M  V30 15 2 15 16
M  V30 16 1 16 17
M  V30 17 1 17 18
M  V30 18 2 18 19
M  V30 19 1 19 20
M  V30 20 2 20 21
M  V30 21 1 21 22
M  V30 22 1 21 23
M  V30 23 2 23 24
M  V30 24 1 16 2
M  V30 25 1 24 18
M  V30 26 1 13 7
M  V30 27 1 24 15
M  V30 28 1 3 25
M  V30 29 1 5 26
M  V30 30 1 5 27
M  V30 31 1 6 28
M  V30 32 1 8 29
M  V30 33 1 9 30
M  V30 34 1 10 31
M  V30 35 1 12 32
M  V30 36 1 13 33
M  V30 37 1 19 34
M  V30 38 1 20 35
M  V30 39 1 23 36
M  V30 END BOND
M  V30 END CTAB
M  END
>  <Dataset>  (544) 
ChEMBL_Kinases

>  <Ligand_Instance>  (544) 
nan

>  <PDB_ID>  (544) 
nan

>  <Standardized_SMILES>  (544) 
O=c1[nH]c(CNc2cccc(O)c2)nc2c1sc1ccc(Cl)cc12

>  <Name>  (544) 
nan

>  <Pocket>  (544) 
nan

>  <ATP_Site>  (544) 
nan

>  <Peripheral>  (544) 
nan

>  <Num_H_Atoms_ProtBoundConf>  (544) 
nan

>  <Num_Resolved_Atoms>  (544) 
nan

>  <Num_Not_Resolved_Atoms>  (544) 
nan

$$$$
CHEMBL586046
     RDKit          3D

  0  0  0  0  0  0  0  0  0  0999 V3000
M  V30 BEGIN CTAB
M  V30 COUNTS 57 61 0 0 0
M  V30 BEGIN ATOM
M  V30 1 C -0.212279 -4.183670 1.470704 0
M  V30 2 C 0.281491 -3.592084 0.219741 0
M  V30 3 C 1.367084 -2.739102 0.231036 0
M  V30 4 N 2.053194 -2.395041 1.440937 0
M  V30 5 C 3.154132 -1.513637 1.352324 0
M  V30 6 C 4.422145 -2.019253 1.158874 0
M  V30 7 C 4.649510 -3.442851 1.044209 0
M  V30 8 N 4.824361 -4.582343 0.937431 0
M  V30 9 C 5.518194 -1.223130 1.065648 0
M  V30 10 N 5.314673 0.118376 1.172318 0
M  V30 11 C 4.075668 0.617823 1.361670 0
M  V30 12 C 2.911422 -0.159276 1.464811 0
M  V30 13 C 1.634053 0.445735 1.665463 0
M  V30 14 C 1.452221 1.552873 0.821033 0
M  V30 15 C 0.270192 2.304131 0.843153 0
M  V30 16 C -0.732628 1.937419 1.720433 0
M  V30 17 C -1.987310 2.722978 1.754082 0
M  V30 18 N -2.978463 2.233231 0.846909 0
M  V30 19 C -3.399969 0.883534 1.066473 0
M  V30 20 C -4.756020 0.716451 0.380500 0
M  V30 21 O -4.920676 1.668654 -0.600971 0
M  V30 22 C -3.779272 1.864138 -1.379143 0
M  V30 23 C -2.666975 2.467569 -0.534166 0
M  V30 24 C -0.551468 0.837743 2.558858 0
M  V30 25 C 0.631421 0.106054 2.519534 0
M  V30 26 C 1.790496 -2.207708 -0.990075 0
M  V30 27 C 1.125526 -2.540696 -2.165668 0
M  V30 28 C 0.041227 -3.394129 -2.167831 0
M  V30 29 N -0.769736 -3.879232 -3.114234 0
M  V30 30 C -1.700548 -4.699096 -2.577946 0
M  V30 31 C -1.453059 -4.724750 -1.217950 0
M  V30 32 C -0.359810 -3.907062 -0.951935 0
M  V30 33 H -0.937461 -3.483313 1.957145 0
M  V30 34 H -0.815796 -5.109450 1.254096 0
M  V30 35 H 0.593383 -4.522332 2.135048 0
M  V30 36 H 1.698088 -2.817457 2.320235 0
M  V30 37 H 6.542301 -1.502455 0.917159 0
M  V30 38 H 3.975197 1.709701 1.440074 0
M  V30 39 H 2.179366 1.932413 0.087727 0
M  V30 40 H 0.114361 3.151312 0.206354 0
M  V30 41 H -1.766451 3.766120 1.469569 0
M  V30 42 H -2.451664 2.736554 2.770885 0
M  V30 43 H -2.713947 0.137530 0.573194 0
M  V30 44 H -3.565600 0.668298 2.129971 0
M  V30 45 H -5.571797 0.869567 1.116633 0
M  V30 46 H -4.850634 -0.322904 -0.021797 0
M  V30 47 H -4.057677 2.592309 -2.173248 0
M  V30 48 H -3.465643 0.913221 -1.874734 0
M  V30 49 H -2.675453 3.577988 -0.689340 0
M  V30 50 H -1.718533 2.007779 -0.877225 0
M  V30 51 H -1.328285 0.558613 3.234209 0
M  V30 52 H 0.825319 -0.733713 3.128698 0
M  V30 53 H 2.632590 -1.537397 -1.034752 0
M  V30 54 H 1.431061 -2.144019 -3.128498 0
M  V30 55 H -0.743023 -3.693279 -4.131480 0
M  V30 56 H -2.508977 -5.257291 -3.061144 0
M  V30 57 H -2.007507 -5.285197 -0.453911 0
M  V30 END ATOM
M  V30 BEGIN BOND
M  V30 1 1 1 2
M  V30 2 2 2 3
M  V30 3 1 3 4
M  V30 4 1 4 5
M  V30 5 2 5 6
M  V30 6 1 6 7
M  V30 7 3 7 8
M  V30 8 1 6 9
M  V30 9 2 9 10
M  V30 10 1 10 11
M  V30 11 2 11 12
M  V30 12 1 12 13
M  V30 13 2 13 14
M  V30 14 1 14 15
M  V30 15 2 15 16
M  V30 16 1 16 17
M  V30 17 1 17 18
M  V30 18 1 18 19
M  V30 19 1 19 20
M  V30 20 1 20 21
M  V30 21 1 21 22
M  V30 22 1 22 23
M  V30 23 1 16 24
M  V30 24 2 24 25
M  V30 25 1 3 26
M  V30 26 2 26 27
M  V30 27 1 27 28
M  V30 28 1 28 29
M  V30 29 1 29 30
M  V30 30 2 30 31
M  V30 31 1 31 32
M  V30 32 1 32 2
M  V30 33 1 12 5
M  V30 34 1 25 13
M  V30 35 2 32 28
M  V30 36 1 23 18
M  V30 37 1 1 33
M  V30 38 1 1 34
M  V30 39 1 1 35
M  V30 40 1 4 36
M  V30 41 1 9 37
M  V30 42 1 11 38
M  V30 43 1 14 39
M  V30 44 1 15 40
M  V30 45 1 17 41
M  V30 46 1 17 42
M  V30 47 1 19 43
M  V30 48 1 19 44
M  V30 49 1 20 45
M  V30 50 1 20 46
M  V30 51 1 22 47
M  V30 52 1 22 48
M  V30 53 1 23 49
M  V30 54 1 23 50
M  V30 55 1 24 51
M  V30 56 1 25 52
M  V30 57 1 26 53
M  V30 58 1 27 54
M  V30 59 1 29 55
M  V30 60 1 30 56
M  V30 61 1 31 57
M  V30 END BOND
M  V30 END CTAB
M  END
>  <Dataset>  (545) 
ChEMBL_Kinases

>  <Ligand_Instance>  (545) 
nan

>  <PDB_ID>  (545) 
nan

>  <Standardized_SMILES>  (545) 
Cc1c(Nc2c(C#N)cncc2-c2ccc(CN3CCOCC3)cc2)ccc2[nH]ccc12

>  <Name>  (545) 
nan

>  <Pocket>  (545) 
nan

>  <ATP_Site>  (545) 
nan

>  <Peripheral>  (545) 
nan

>  <Num_H_Atoms_ProtBoundConf>  (545) 
nan

>  <Num_Resolved_Atoms>  (545) 
nan

>  <Num_Not_Resolved_Atoms>  (545) 
nan

$$$$
CHEMBL573478
     RDKit          3D

  0  0  0  0  0  0  0  0  0  0999 V3000
M  V30 BEGIN CTAB
M  V30 COUNTS 35 38 0 0 0
M  V30 BEGIN ATOM
M  V30 1 O -1.262385 -3.917051 0.999774 0
M  V30 2 C -0.682711 -2.845960 1.302537 0
M  V30 3 N 0.615628 -2.616552 1.054805 0
M  V30 4 C 1.097142 -1.424595 1.434760 0
M  V30 5 C 2.510308 -0.985077 1.230581 0
M  V30 6 O 2.672923 -0.238910 0.096929 0
M  V30 7 C 2.484020 -0.463545 -1.206478 0
M  V30 8 C 2.828209 0.713504 -1.886503 0
M  V30 9 C 2.742740 0.812664 -3.278992 0
M  V30 10 C 2.310261 -0.267949 -4.013527 0
M  V30 11 C 1.960683 -1.446425 -3.391818 0
M  V30 12 O 1.510442 -2.614007 -3.986810 0
M  V30 13 C 2.064809 -1.485288 -2.023268 0
M  V30 14 N 0.376406 -0.469889 2.034192 0
M  V30 15 C -0.927304 -0.591267 2.329761 0
M  V30 16 C -1.411301 -1.862257 1.916280 0
M  V30 17 S -3.166505 -1.837102 2.395047 0
M  V30 18 C -3.129493 -0.203455 3.082552 0
M  V30 19 C -4.125611 0.520251 3.657126 0
M  V30 20 C -3.898023 1.790663 4.138759 0
M  V30 21 C -2.599413 2.217744 3.974775 0
M  V30 22 Cl -2.261232 3.848925 4.580937 0
M  V30 23 C -1.583635 1.501374 3.398089 0
M  V30 24 C -1.844380 0.232330 2.925884 0
M  V30 25 H 1.212946 -3.314506 0.607832 0
M  V30 26 H 2.901626 -0.469374 2.135201 0
M  V30 27 H 3.115847 -1.934148 1.094423 0
M  V30 28 H 3.188189 1.671758 -1.509634 0
M  V30 29 H 2.981485 1.665582 -3.896119 0
M  V30 30 H 2.217568 -0.268514 -5.091904 0
M  V30 31 H 0.550872 -2.672555 -4.303820 0
M  V30 32 H 1.821632 -2.356593 -1.438913 0
M  V30 33 H -5.101713 0.062407 3.721979 0
M  V30 34 H -4.675440 2.380969 4.598068 0
M  V30 35 H -0.600426 1.995395 3.346786 0
M  V30 END ATOM
M  V30 BEGIN BOND
M  V30 1 2 1 2
M  V30 2 1 2 3
M  V30 3 1 3 4
M  V30 4 1 4 5
M  V30 5 1 5 6
M  V30 6 1 6 7
M  V30 7 2 7 8
M  V30 8 1 8 9
M  V30 9 2 9 10
M  V30 10 1 10 11
M  V30 11 1 11 12
M  V30 12 2 11 13
M  V30 13 2 4 14
M  V30 14 1 14 15
M  V30 15 2 15 16
M  V30 16 1 16 17
M  V30 17 1 17 18
M  V30 18 2 18 19
M  V30 19 1 19 20
M  V30 20 2 20 21
M  V30 21 1 21 22
M  V30 22 1 21 23
M  V30 23 2 23 24
M  V30 24 1 16 2
M  V30 25 1 24 18
M  V30 26 1 13 7
M  V30 27 1 24 15
M  V30 28 1 3 25
M  V30 29 1 5 26
M  V30 30 1 5 27
M  V30 31 1 8 28
M  V30 32 1 9 29
M  V30 33 1 10 30
M  V30 34 1 12 31
M  V30 35 1 13 32
M  V30 36 1 19 33
M  V30 37 1 20 34
M  V30 38 1 23 35
M  V30 END BOND
M  V30 END CTAB
M  END
>  <Dataset>  (546) 
ChEMBL_Kinases

>  <Ligand_Instance>  (546) 
nan

>  <PDB_ID>  (546) 
nan

>  <Standardized_SMILES>  (546) 
O=c1[nH]c(COc2cccc(O)c2)nc2c1sc1ccc(Cl)cc12

>  <Name>  (546) 
nan

>  <Pocket>  (546) 
nan

>  <ATP_Site>  (546) 
nan

>  <Peripheral>  (546) 
nan

>  <Num_H_Atoms_ProtBoundConf>  (546) 
nan

>  <Num_Resolved_Atoms>  (546) 
nan

>  <Num_Not_Resolved_Atoms>  (546) 
nan

$$$$
CHEMBL573705
     RDKit          3D

  0  0  0  0  0  0  0  0  0  0999 V3000
M  V30 BEGIN CTAB
M  V30 COUNTS 41 44 0 0 0
M  V30 BEGIN ATOM
M  V30 1 C 0.038976 -5.988192 1.819020 0
M  V30 2 N 0.883992 -4.881720 1.382728 0
M  V30 3 C 0.781957 -3.843083 2.378378 0
M  V30 4 C 0.503104 -4.415302 0.064896 0
M  V30 5 C 1.379022 -3.272722 -0.386062 0
M  V30 6 N 0.993885 -2.046558 -0.088441 0
M  V30 7 C 1.675820 -0.937528 -0.426783 0
M  V30 8 C 2.801833 -1.268646 -1.109811 0
M  V30 9 S 3.571272 0.351456 -1.470668 0
M  V30 10 C 2.291371 1.316709 -0.660537 0
M  V30 11 C 2.190966 2.679513 -0.523265 0
M  V30 12 C 1.110169 3.202610 0.143970 0
M  V30 13 C 0.214139 2.275463 0.619123 0
M  V30 14 C -0.958391 2.828465 1.340789 0
M  V30 15 C -1.579589 2.146821 2.369855 0
M  V30 16 C -2.665140 2.719188 2.997041 0
M  V30 17 C -3.132023 3.949996 2.612881 0
M  V30 18 C -2.537957 4.667860 1.584929 0
M  V30 19 F -2.997040 5.886402 1.201619 0
M  V30 20 C -1.458754 4.067797 0.982043 0
M  V30 21 C 0.298603 0.911568 0.491226 0
M  V30 22 C 1.377945 0.373259 -0.175985 0
M  V30 23 C 3.251827 -2.539130 -1.448236 0
M  V30 24 O 4.331715 -2.601000 -2.088577 0
M  V30 25 N 2.496187 -3.577173 -1.062354 0
M  V30 26 H 0.060493 -5.983327 2.927587 0
M  V30 27 H 0.458101 -6.965485 1.477545 0
M  V30 28 H -1.007331 -5.839468 1.517321 0
M  V30 29 H 0.858970 -4.325079 3.376512 0
M  V30 30 H 1.591477 -3.104306 2.290864 0
M  V30 31 H -0.231061 -3.357719 2.297271 0
M  V30 32 H -0.537822 -4.047346 0.105843 0
M  V30 33 H 0.552769 -5.219581 -0.683295 0
M  V30 34 H 2.983093 3.274302 -0.956470 0
M  V30 35 H 1.011163 4.268095 0.263729 0
M  V30 36 H -1.205234 1.176598 2.666522 0
M  V30 37 H -3.187611 2.228224 3.807730 0
M  V30 38 H -3.998467 4.388737 3.125632 0
M  V30 39 H -0.995184 4.626541 0.180437 0
M  V30 40 H -0.491265 0.308069 0.922298 0
M  V30 41 H 2.826853 -4.530359 -1.312221 0
M  V30 END ATOM
M  V30 BEGIN BOND
M  V30 1 1 1 2
M  V30 2 1 2 3
M  V30 3 1 2 4
M  V30 4 1 4 5
M  V30 5 2 5 6
M  V30 6 1 6 7
M  V30 7 2 7 8
M  V30 8 1 8 9
M  V30 9 1 9 10
M  V30 10 2 10 11
M  V30 11 1 11 12
M  V30 12 2 12 13
M  V30 13 1 13 14
M  V30 14 2 14 15
M  V30 15 1 15 16
M  V30 16 2 16 17
M  V30 17 1 17 18
M  V30 18 1 18 19
M  V30 19 2 18 20
M  V30 20 1 13 21
M  V30 21 2 21 22
M  V30 22 1 8 23
M  V30 23 2 23 24
M  V30 24 1 23 25
M  V30 25 1 25 5
M  V30 26 1 22 7
M  V30 27 1 22 10
M  V30 28 1 20 14
M  V30 29 1 1 26
M  V30 30 1 1 27
M  V30 31 1 1 28
M  V30 32 1 3 29
M  V30 33 1 3 30
M  V30 34 1 3 31
M  V30 35 1 4 32
M  V30 36 1 4 33
M  V30 37 1 11 34
M  V30 38 1 12 35
M  V30 39 1 15 36
M  V30 40 1 16 37
M  V30 41 1 17 38
M  V30 42 1 20 39
M  V30 43 1 21 40
M  V30 44 1 25 41
M  V30 END BOND
M  V30 END CTAB
M  END
>  <Dataset>  (547) 
ChEMBL_Kinases

>  <Ligand_Instance>  (547) 
nan

>  <PDB_ID>  (547) 
nan

>  <Standardized_SMILES>  (547) 
CN(C)Cc1nc2c(sc3ccc(-c4cccc(F)c4)cc32)c(=O)[nH]1

>  <Name>  (547) 
nan

>  <Pocket>  (547) 
nan

>  <ATP_Site>  (547) 
nan

>  <Peripheral>  (547) 
nan

>  <Num_H_Atoms_ProtBoundConf>  (547) 
nan

>  <Num_Resolved_Atoms>  (547) 
nan

>  <Num_Not_Resolved_Atoms>  (547) 
nan

$$$$
CHEMBL210246
     RDKit          3D

  0  0  0  0  0  0  0  0  0  0999 V3000
M  V30 BEGIN CTAB
M  V30 COUNTS 52 56 0 0 0
M  V30 BEGIN ATOM
M  V30 1 N -0.993901 -2.583339 4.548123 0
M  V30 2 C -0.278060 -3.592532 3.840446 0 CFG=2
M  V30 3 C 1.091175 -3.225322 3.365596 0
M  V30 4 O 1.236711 -2.194379 2.499716 0
M  V30 5 C 1.026714 -0.881747 2.438560 0
M  V30 6 C 0.557563 0.133214 3.238271 0
M  V30 7 N 0.473009 1.408126 2.839492 0
M  V30 8 C 0.844368 1.809507 1.609003 0
M  V30 9 C 1.331423 0.869137 0.724372 0
M  V30 10 C 1.708211 1.389421 -0.580181 0
M  V30 11 C 2.200398 2.668782 -0.702902 0
M  V30 12 C 2.574870 3.220130 -1.909519 0
M  V30 13 C 2.438695 2.420730 -3.049426 0
M  V30 14 C 2.810114 2.959326 -4.264609 0
M  V30 15 N 2.674648 2.175385 -5.364172 0
M  V30 16 C 2.198029 0.922368 -5.280177 0
M  V30 17 F 2.051534 0.115173 -6.362481 0
M  V30 18 C 1.819297 0.360843 -4.075102 0
M  V30 19 C 1.941493 1.131937 -2.915700 0
M  V30 20 C 1.567826 0.581104 -1.714151 0
M  V30 21 C 1.415218 -0.462432 1.152674 0
M  V30 22 C -1.114213 -4.196082 2.729519 0
M  V30 23 C -1.545100 -3.210816 1.713304 0
M  V30 24 C -0.872644 -3.087922 0.491035 0
M  V30 25 N -1.406874 -2.123625 -0.283341 0
M  V30 26 C -2.425522 -1.601768 0.403214 0
M  V30 27 C -3.353929 -0.602161 0.158566 0
M  V30 28 C -4.324592 -0.273000 1.078269 0
M  V30 29 C -4.383754 -0.951929 2.281742 0
M  V30 30 C -3.478067 -1.953295 2.564163 0
M  V30 31 C -2.524460 -2.248819 1.616047 0
M  V30 32 H -0.440277 -2.201896 5.360069 0
M  V30 33 H -1.812594 -3.068091 5.024235 0
M  V30 34 H -0.132064 -4.445262 4.572117 0
M  V30 35 H 1.785745 -3.066221 4.250598 0
M  V30 36 H 1.536376 -4.160892 2.892896 0
M  V30 37 H 0.282751 -0.226474 4.213691 0
M  V30 38 H 0.699374 2.869572 1.484674 0
M  V30 39 H 2.302957 3.289854 0.199782 0
M  V30 40 H 2.948007 4.218145 -1.927763 0
M  V30 41 H 3.195926 3.971378 -4.337095 0
M  V30 42 H 1.427535 -0.657945 -3.979135 0
M  V30 43 H 1.179892 -0.429410 -1.625977 0
M  V30 44 H 1.824347 -1.046832 0.308658 0
M  V30 45 H -2.053928 -4.614965 3.201064 0
M  V30 46 H -0.630738 -5.071422 2.256972 0
M  V30 47 H -0.008868 -3.680515 0.154092 0
M  V30 48 H -1.078469 -1.848609 -1.231837 0
M  V30 49 H -3.233811 -0.117785 -0.818013 0
M  V30 50 H -4.968294 0.524691 0.737292 0
M  V30 51 H -5.174383 -0.642675 2.962105 0
M  V30 52 H -3.545324 -2.467203 3.494909 0
M  V30 END ATOM
M  V30 BEGIN BOND
M  V30 1 1 1 2
M  V30 2 1 2 3
M  V30 3 1 3 4
M  V30 4 1 4 5
M  V30 5 2 5 6
M  V30 6 1 6 7
M  V30 7 2 7 8
M  V30 8 1 8 9
M  V30 9 1 9 10
M  V30 10 2 10 11
M  V30 11 1 11 12
M  V30 12 2 12 13
M  V30 13 1 13 14
M  V30 14 2 14 15
M  V30 15 1 15 16
M  V30 16 1 16 17
M  V30 17 2 16 18
M  V30 18 1 18 19
M  V30 19 2 19 20
M  V30 20 2 9 21
M  V30 21 1 2 22
M  V30 22 1 22 23
M  V30 23 2 23 24
M  V30 24 1 24 25
M  V30 25 1 25 26
M  V30 26 2 26 27
M  V30 27 1 27 28
M  V30 28 2 28 29
M  V30 29 1 29 30
M  V30 30 2 30 31
M  V30 31 1 21 5
M  V30 32 1 31 23
M  V30 33 1 20 10
M  V30 34 1 31 26
M  V30 35 1 19 13
M  V30 36 1 1 32
M  V30 37 1 1 33
M  V30 38 1 2 34 CFG=1
M  V30 39 1 3 35
M  V30 40 1 3 36
M  V30 41 1 6 37
M  V30 42 1 8 38
M  V30 43 1 11 39
M  V30 44 1 12 40
M  V30 45 1 14 41
M  V30 46 1 18 42
M  V30 47 1 20 43
M  V30 48 1 21 44
M  V30 49 1 22 45
M  V30 50 1 22 46
M  V30 51 1 24 47
M  V30 52 1 25 48
M  V30 53 1 27 49
M  V30 54 1 28 50
M  V30 55 1 29 51
M  V30 56 1 30 52
M  V30 END BOND
M  V30 END CTAB
M  END
>  <Dataset>  (548) 
ChEMBL_Kinases

>  <Ligand_Instance>  (548) 
nan

>  <PDB_ID>  (548) 
nan

>  <Standardized_SMILES>  (548) 
N[C@H](COc1cncc(-c2ccc3cnc(F)cc3c2)c1)Cc1c[nH]c2ccccc12

>  <Name>  (548) 
nan

>  <Pocket>  (548) 
nan

>  <ATP_Site>  (548) 
nan

>  <Peripheral>  (548) 
nan

>  <Num_H_Atoms_ProtBoundConf>  (548) 
nan

>  <Num_Resolved_Atoms>  (548) 
nan

>  <Num_Not_Resolved_Atoms>  (548) 
nan

$$$$
CHEMBL2070414
     RDKit          3D

  0  0  0  0  0  0  0  0  0  0999 V3000
M  V30 BEGIN CTAB
M  V30 COUNTS 76 80 0 0 0
M  V30 BEGIN ATOM
M  V30 1 C 3.442227 -6.309259 1.090998 0
M  V30 2 N 4.460258 -5.492850 0.534430 0
M  V30 3 C 5.646391 -6.183706 0.146657 0
M  V30 4 C 6.743989 -5.321532 -0.363972 0
M  V30 5 N 6.307689 -3.914441 -0.576126 0
M  V30 6 C 7.544413 -3.215674 -0.848185 0
M  V30 7 C 7.478129 -1.940326 -1.573910 0
M  V30 8 C 6.601411 -0.911424 -0.936864 0
M  V30 9 C 6.691897 0.374694 -1.796879 0
M  V30 10 O 5.903621 1.400473 -1.349910 0
M  V30 11 C 4.547219 1.518200 -1.233865 0
M  V30 12 C 4.249336 2.758713 -0.700266 0
M  V30 13 C 2.988729 3.246683 -0.436187 0
M  V30 14 C 1.909787 2.400038 -0.739303 0
M  V30 15 N 0.483304 2.573848 -0.575803 0
M  V30 16 C -0.061494 2.043832 0.618067 0
M  V30 17 O 0.451985 1.435775 1.594717 0
M  V30 18 C -1.497370 2.265374 0.695840 0
M  V30 19 C -2.541208 1.739978 1.276824 0
M  V30 20 C -3.958292 2.040260 1.294105 0
M  V30 21 C -4.680054 1.868778 2.464458 0
M  V30 22 C -6.030404 2.147859 2.457727 0
M  V30 23 C -6.700434 2.600218 1.309930 0
M  V30 24 O -8.046828 2.803438 1.581843 0
M  V30 25 C -8.912839 1.698636 1.421233 0
M  V30 26 C -8.412369 0.485818 0.988678 0
M  V30 27 C -9.318096 -0.546184 0.858262 0
M  V30 28 C -10.653419 -0.309963 1.162926 0
M  V30 29 C -11.655438 -1.364496 1.046759 0
M  V30 30 N -11.224973 -2.649697 0.639678 0
M  V30 31 O -12.880214 -1.322230 1.253384 0
M  V30 32 C -11.125332 0.913629 1.592263 0
M  V30 33 C -10.232929 1.968947 1.731735 0
M  V30 34 C -5.953759 2.762127 0.156436 0
M  V30 35 C -4.602161 2.482752 0.159099 0
M  V30 36 S -1.768152 3.681765 -0.413180 0
M  V30 37 C -0.382653 3.225955 -1.509317 0
M  V30 38 S 0.015343 3.381336 -3.080966 0
M  V30 39 C 2.167483 1.138994 -1.280174 0
M  V30 40 C 3.459316 0.729036 -1.513645 0
M  V30 41 C 5.956186 -3.562393 0.833180 0
M  V30 42 C 4.649747 -4.209193 1.112038 0
M  V30 43 H 3.028744 -5.929739 2.042601 0
M  V30 44 H 2.647498 -6.442904 0.314904 0
M  V30 45 H 3.769183 -7.357613 1.331496 0
M  V30 46 H 5.360979 -6.903835 -0.656250 0
M  V30 47 H 6.000412 -6.792128 1.002565 0
M  V30 48 H 7.136201 -5.651846 -1.344308 0
M  V30 49 H 7.591286 -5.262363 0.337555 0
M  V30 50 H 8.120975 -3.082337 0.113323 0
M  V30 51 H 8.219234 -3.918201 -1.451336 0
M  V30 52 H 8.532551 -1.525375 -1.651501 0
M  V30 53 H 7.206614 -2.101698 -2.650460 0
M  V30 54 H 6.878394 -0.585876 0.058565 0
M  V30 55 H 5.558318 -1.304455 -1.008680 0
M  V30 56 H 6.535438 0.023666 -2.830632 0
M  V30 57 H 7.764152 0.695467 -1.718967 0
M  V30 58 H 4.944809 3.562020 -0.398716 0
M  V30 59 H 2.614049 4.167738 -0.031740 0
M  V30 60 H -2.254144 0.867571 1.890818 0
M  V30 61 H -4.167752 1.516319 3.368634 0
M  V30 62 H -6.509079 1.979422 3.434761 0
M  V30 63 H -7.367297 0.325706 0.756428 0
M  V30 64 H -9.007011 -1.531002 0.522746 0
M  V30 65 H -11.787436 -3.485719 0.362913 0
M  V30 66 H -10.422206 -3.309389 0.437237 0
M  V30 67 H -12.194510 1.054530 1.823730 0
M  V30 68 H -10.578326 2.934263 2.066275 0
M  V30 69 H -6.563163 3.108304 -0.654695 0
M  V30 70 H -4.092233 2.635886 -0.787791 0
M  V30 71 H 1.440384 0.390618 -1.560670 0
M  V30 72 H 3.730277 -0.221161 -1.936440 0
M  V30 73 H 6.797553 -3.940995 1.458224 0
M  V30 74 H 5.834823 -2.485022 0.889894 0
M  V30 75 H 4.573275 -4.325499 2.225056 0
M  V30 76 H 3.830567 -3.517973 0.839195 0
M  V30 END ATOM
M  V30 BEGIN BOND
M  V30 1 1 1 2
M  V30 2 1 2 3
M  V30 3 1 3 4
M  V30 4 1 4 5
M  V30 5 1 5 6
M  V30 6 1 6 7
M  V30 7 1 7 8
M  V30 8 1 8 9
M  V30 9 1 9 10
M  V30 10 1 10 11
M  V30 11 2 11 12
M  V30 12 1 12 13
M  V30 13 2 13 14
M  V30 14 1 14 15
M  V30 15 1 15 16
M  V30 16 2 16 17
M  V30 17 1 16 18
M  V30 18 2 18 19
M  V30 19 1 19 20
M  V30 20 2 20 21
M  V30 21 1 21 22
M  V30 22 2 22 23
M  V30 23 1 23 24
M  V30 24 1 24 25
M  V30 25 2 25 26
M  V30 26 1 26 27
M  V30 27 2 27 28
M  V30 28 1 28 29
M  V30 29 1 29 30
M  V30 30 2 29 31
M  V30 31 1 28 32
M  V30 32 2 32 33
M  V30 33 1 23 34
M  V30 34 2 34 35
M  V30 35 1 18 36
M  V30 36 1 36 37
M  V30 37 2 37 38
M  V30 38 1 14 39
M  V30 39 2 39 40
M  V30 40 1 5 41
M  V30 41 1 41 42
M  V30 42 1 42 2
M  V30 43 1 40 11
M  V30 44 1 37 15
M  V30 45 1 35 20
M  V30 46 1 33 25
M  V30 47 1 1 43
M  V30 48 1 1 44
M  V30 49 1 1 45
M  V30 50 1 3 46
M  V30 51 1 3 47
M  V30 52 1 4 48
M  V30 53 1 4 49
M  V30 54 1 6 50
M  V30 55 1 6 51
M  V30 56 1 7 52
M  V30 57 1 7 53
M  V30 58 1 8 54
M  V30 59 1 8 55
M  V30 60 1 9 56
M  V30 61 1 9 57
M  V30 62 1 12 58
M  V30 63 1 13 59
M  V30 64 1 19 60
M  V30 65 1 21 61
M  V30 66 1 22 62
M  V30 67 1 26 63
M  V30 68 1 27 64
M  V30 69 1 30 65
M  V30 70 1 30 66
M  V30 71 1 32 67
M  V30 72 1 33 68
M  V30 73 1 34 69
M  V30 74 1 35 70
M  V30 75 1 39 71
M  V30 76 1 40 72
M  V30 77 1 41 73
M  V30 78 1 41 74
M  V30 79 1 42 75
M  V30 80 1 42 76
M  V30 END BOND
M  V30 END CTAB
M  END
>  <Dataset>  (549) 
ChEMBL_Kinases

>  <Ligand_Instance>  (549) 
nan

>  <PDB_ID>  (549) 
nan

>  <Standardized_SMILES>  (549) 
CN1CCN(CCCCOc2ccc(N3C(=O)/C(=C/c4ccc(Oc5ccc(C(N)=O)cc5)cc4)SC3=S)cc2)CC1

>  <Name>  (549) 
nan

>  <Pocket>  (549) 
nan

>  <ATP_Site>  (549) 
nan

>  <Peripheral>  (549) 
nan

>  <Num_H_Atoms_ProtBoundConf>  (549) 
nan

>  <Num_Resolved_Atoms>  (549) 
nan

>  <Num_Not_Resolved_Atoms>  (549) 
nan

$$$$
CHEMBL2087967
     RDKit          3D

  0  0  0  0  0  0  0  0  0  0999 V3000
M  V30 BEGIN CTAB
M  V30 COUNTS 47 51 0 0 0
M  V30 BEGIN ATOM
M  V30 1 C -0.264418 -4.781079 -1.655465 0
M  V30 2 C 0.534998 -3.814163 -0.826644 0
M  V30 3 C 1.667205 -4.150774 -0.112360 0
M  V30 4 C 2.341852 -3.198056 0.630270 0
M  V30 5 C 1.869145 -1.899532 0.649734 0
M  V30 6 C 0.724953 -1.578287 -0.078001 0
M  V30 7 C 0.133024 -0.217514 -0.116624 0
M  V30 8 N 0.953445 0.753881 -0.494722 0
M  V30 9 C 0.520261 1.938234 -0.551492 0
M  V30 10 N 1.167226 3.154147 -0.898172 0
M  V30 11 C 1.412657 4.224752 0.048180 0
M  V30 12 C 2.172118 3.658570 1.188603 0
M  V30 13 C 3.535696 3.566066 1.363585 0
M  V30 14 C 4.046439 3.002325 2.522309 0
M  V30 15 C 3.256185 2.517526 3.534090 0
M  V30 16 C 1.875731 2.593971 3.391621 0
M  V30 17 Cl 0.807401 1.991209 4.647998 0
M  V30 18 C 1.389435 3.157865 2.232443 0
M  V30 19 S -1.317526 1.793232 -0.012137 0
M  V30 20 C -1.225449 0.027373 0.229607 0
M  V30 21 C -2.136154 -0.939511 0.631841 0
M  V30 22 C -3.290576 -1.109607 -0.144251 0
M  V30 23 C -4.218016 -2.070224 0.227562 0
M  V30 24 C -3.963419 -2.827690 1.359135 0
M  V30 25 N -4.726417 -3.814389 1.899743 0
M  V30 26 C -4.085563 -4.270961 2.992957 0
M  V30 27 N -2.960236 -3.559293 3.090987 0
M  V30 28 N -2.855253 -2.676815 2.118015 0
M  V30 29 C -1.975783 -1.743572 1.738221 0
M  V30 30 N 0.102493 -2.540363 -0.785844 0
M  V30 31 H -1.328520 -4.662561 -1.289193 0
M  V30 32 H 0.033697 -5.822942 -1.424784 0
M  V30 33 H -0.231650 -4.491550 -2.705386 0
M  V30 34 H 2.005783 -5.182898 -0.159697 0
M  V30 35 H 3.215482 -3.449355 1.183772 0
M  V30 36 H 2.325319 -1.088764 1.198876 0
M  V30 37 H 1.430286 3.143993 -1.929450 0
M  V30 38 H 0.413904 4.594526 0.384056 0
M  V30 39 H 1.986330 5.025024 -0.466270 0
M  V30 40 H 4.115771 3.961171 0.545367 0
M  V30 41 H 5.115113 2.941971 2.635196 0
M  V30 42 H 3.639380 2.076910 4.437585 0
M  V30 43 H 0.302790 3.187699 2.177985 0
M  V30 44 H -3.491750 -0.517226 -1.032555 0
M  V30 45 H -5.121159 -2.212853 -0.372164 0
M  V30 46 H -4.241784 -5.025636 3.771281 0
M  V30 47 H -1.070358 -1.609100 2.345787 0
M  V30 END ATOM
M  V30 BEGIN BOND
M  V30 1 1 1 2
M  V30 2 2 2 3
M  V30 3 1 3 4
M  V30 4 2 4 5
M  V30 5 1 5 6
M  V30 6 1 6 7
M  V30 7 1 7 8
M  V30 8 2 8 9
M  V30 9 1 9 10
M  V30 10 1 10 11
M  V30 11 1 11 12
M  V30 12 2 12 13
M  V30 13 1 13 14
M  V30 14 2 14 15
M  V30 15 1 15 16
M  V30 16 1 16 17
M  V30 17 2 16 18
M  V30 18 1 9 19
M  V30 19 1 19 20
M  V30 20 1 20 21
M  V30 21 1 21 22
M  V30 22 2 22 23
M  V30 23 1 23 24
M  V30 24 2 24 25
M  V30 25 1 25 26
M  V30 26 2 26 27
M  V30 27 1 27 28
M  V30 28 1 28 29
M  V30 29 2 6 30
M  V30 30 1 30 2
M  V30 31 2 20 7
M  V30 32 2 29 21
M  V30 33 1 18 12
M  V30 34 1 28 24
M  V30 35 1 1 31
M  V30 36 1 1 32
M  V30 37 1 1 33
M  V30 38 1 3 34
M  V30 39 1 4 35
M  V30 40 1 5 36
M  V30 41 1 10 37
M  V30 42 1 11 38
M  V30 43 1 11 39
M  V30 44 1 13 40
M  V30 45 1 14 41
M  V30 46 1 15 42
M  V30 47 1 18 43
M  V30 48 1 22 44
M  V30 49 1 23 45
M  V30 50 1 26 46
M  V30 51 1 29 47
M  V30 END BOND
M  V30 END CTAB
M  END
>  <Dataset>  (550) 
ChEMBL_Kinases

>  <Ligand_Instance>  (550) 
nan

>  <PDB_ID>  (550) 
nan

>  <Standardized_SMILES>  (550) 
Cc1cccc(-c2nc(NCc3cccc(Cl)c3)sc2-c2ccc3ncnn3c2)n1

>  <Name>  (550) 
nan

>  <Pocket>  (550) 
nan

>  <ATP_Site>  (550) 
nan

>  <Peripheral>  (550) 
nan

>  <Num_H_Atoms_ProtBoundConf>  (550) 
nan

>  <Num_Resolved_Atoms>  (550) 
nan

>  <Num_Not_Resolved_Atoms>  (550) 
nan

$$$$
CHEMBL599162
     RDKit          3D

  0  0  0  0  0  0  0  0  0  0999 V3000
M  V30 BEGIN CTAB
M  V30 COUNTS 52 56 0 0 0
M  V30 BEGIN ATOM
M  V30 1 N 0.706003 -6.066809 1.082175 0
M  V30 2 C 1.144352 -4.689670 0.950190 0
M  V30 3 C 0.643012 -3.931262 2.143993 0
M  V30 4 C -0.584718 -3.160460 1.696210 0
M  V30 5 N -0.164746 -2.166574 0.763585 0
M  V30 6 C -0.226063 -0.762263 0.561402 0
M  V30 7 N 0.881514 -0.003643 0.540671 0
M  V30 8 C 0.930838 1.324920 0.362622 0
M  V30 9 C 2.260613 1.879245 0.350830 0
M  V30 10 C 3.335350 1.034630 0.151672 0
M  V30 11 C 4.641344 1.465864 0.142198 0
M  V30 12 N 4.909204 2.762241 0.333657 0
M  V30 13 C 3.915299 3.663410 0.538690 0
M  V30 14 N 3.954066 4.984101 0.768742 0
M  V30 15 C 2.686238 5.397438 0.927793 0
M  V30 16 C 1.880920 4.295173 0.787966 0
M  V30 17 C 2.638924 3.180158 0.538045 0
M  V30 18 C -0.311876 1.853980 0.195191 0
M  V30 19 N -1.461424 1.166584 0.203543 0
M  V30 20 C -1.449478 -0.165017 0.387733 0
M  V30 21 N -2.704368 -0.821860 0.389471 0
M  V30 22 C -3.502571 -1.596495 1.319528 0
M  V30 23 C -4.822018 -0.812952 1.265818 0
M  V30 24 C -5.004625 -0.696308 -0.230568 0
M  V30 25 C -3.600152 -0.854979 -0.748234 0
M  V30 26 C 0.579144 -2.658540 -0.409788 0
M  V30 27 C 0.584394 -4.158509 -0.349460 0
M  V30 28 H 1.482147 -6.732401 0.788458 0
M  V30 29 H 0.434067 -6.266473 2.085502 0
M  V30 30 H 2.256996 -4.708806 0.919945 0
M  V30 31 H 0.491168 -4.536840 3.039016 0
M  V30 32 H 1.416518 -3.144517 2.379750 0
M  V30 33 H -1.245447 -3.892726 1.185407 0
M  V30 34 H -1.167010 -2.778171 2.550822 0
M  V30 35 H 3.200956 -0.040276 -0.011870 0
M  V30 36 H 5.447087 0.772682 -0.017806 0
M  V30 37 H 4.861558 5.530925 0.803226 0
M  V30 38 H 2.424121 6.423526 1.126807 0
M  V30 39 H 0.826044 4.420715 0.898661 0
M  V30 40 H -0.363957 2.899371 0.015277 0
M  V30 41 H -3.146483 -1.455686 2.370725 0
M  V30 42 H -3.619240 -2.648305 1.048132 0
M  V30 43 H -4.614881 0.159406 1.728781 0
M  V30 44 H -5.640451 -1.381629 1.746304 0
M  V30 45 H -5.646054 -1.573343 -0.529618 0
M  V30 46 H -5.462754 0.265505 -0.537930 0
M  V30 47 H -3.408670 -0.023251 -1.456225 0
M  V30 48 H -3.525349 -1.844225 -1.246963 0
M  V30 49 H 1.599270 -2.288308 -0.466833 0
M  V30 50 H 0.052461 -2.391964 -1.361117 0
M  V30 51 H 1.260681 -4.506599 -1.157890 0
M  V30 52 H -0.407615 -4.617553 -0.580548 0
M  V30 END ATOM
M  V30 BEGIN BOND
M  V30 1 1 1 2
M  V30 2 1 2 3
M  V30 3 1 3 4
M  V30 4 1 4 5
M  V30 5 1 5 6
M  V30 6 2 6 7
M  V30 7 1 7 8
M  V30 8 1 8 9
M  V30 9 2 9 10
M  V30 10 1 10 11
M  V30 11 2 11 12
M  V30 12 1 12 13
M  V30 13 1 13 14
M  V30 14 1 14 15
M  V30 15 2 15 16
M  V30 16 1 16 17
M  V30 17 2 8 18
M  V30 18 1 18 19
M  V30 19 2 19 20
M  V30 20 1 20 21
M  V30 21 1 21 22
M  V30 22 1 22 23
M  V30 23 1 23 24
M  V30 24 1 24 25
M  V30 25 1 5 26
M  V30 26 1 26 27
M  V30 27 1 27 2
M  V30 28 1 20 6
M  V30 29 1 25 21
M  V30 30 1 17 9
M  V30 31 2 17 13
M  V30 32 1 1 28
M  V30 33 1 1 29
M  V30 34 1 2 30
M  V30 35 1 3 31
M  V30 36 1 3 32
M  V30 37 1 4 33
M  V30 38 1 4 34
M  V30 39 1 10 35
M  V30 40 1 11 36
M  V30 41 1 14 37
M  V30 42 1 15 38
M  V30 43 1 16 39
M  V30 44 1 18 40
M  V30 45 1 22 41
M  V30 46 1 22 42
M  V30 47 1 23 43
M  V30 48 1 23 44
M  V30 49 1 24 45
M  V30 50 1 24 46
M  V30 51 1 25 47
M  V30 52 1 25 48
M  V30 53 1 26 49
M  V30 54 1 26 50
M  V30 55 1 27 51
M  V30 56 1 27 52
M  V30 END BOND
M  V30 END CTAB
M  END
>  <Dataset>  (551) 
ChEMBL_Kinases

>  <Ligand_Instance>  (551) 
nan

>  <PDB_ID>  (551) 
nan

>  <Standardized_SMILES>  (551) 
NC1CCN(c2nc(-c3ccnc4[nH]ccc34)cnc2N2CCCC2)CC1

>  <Name>  (551) 
nan

>  <Pocket>  (551) 
nan

>  <ATP_Site>  (551) 
nan

>  <Peripheral>  (551) 
nan

>  <Num_H_Atoms_ProtBoundConf>  (551) 
nan

>  <Num_Resolved_Atoms>  (551) 
nan

>  <Num_Not_Resolved_Atoms>  (551) 
nan

$$$$
CHEMBL598963
     RDKit          3D

  0  0  0  0  0  0  0  0  0  0999 V3000
M  V30 BEGIN CTAB
M  V30 COUNTS 52 56 0 0 0
M  V30 BEGIN ATOM
M  V30 1 C 2.775465 -5.671700 1.793400 0
M  V30 2 C 2.745064 -4.337506 1.451812 0
M  V30 3 C 1.588193 -3.612360 1.271306 0
M  V30 4 C 1.542642 -2.201452 0.910136 0
M  V30 5 C 2.693120 -1.479820 0.720073 0
M  V30 6 N 2.666627 -0.167245 0.383991 0
M  V30 7 C 1.501875 0.495104 0.219628 0
M  V30 8 N 1.391832 1.869281 -0.131864 0
M  V30 9 C 0.755251 2.489600 -1.292318 0
M  V30 10 C 1.994406 3.150676 -1.897315 0
M  V30 11 C 2.701207 3.643062 -0.645844 0
M  V30 12 C 1.861518 3.107963 0.522318 0
M  V30 13 C 0.365078 -0.212347 0.405997 0
M  V30 14 N -0.960230 0.292970 0.282586 0
M  V30 15 C -1.522269 1.378138 1.063865 0
M  V30 16 C -2.219076 0.851026 2.274400 0
M  V30 17 C -3.296996 -0.102752 1.879392 0
M  V30 18 N -3.720582 0.140020 0.561753 0
M  V30 19 C -3.134132 -0.656264 -0.461049 0
M  V30 20 C -1.702331 -0.418781 -0.738619 0
M  V30 21 N 0.401589 -1.512783 0.738924 0
M  V30 22 C 0.421833 -4.323684 1.458761 0
M  V30 23 C -0.918201 -4.026382 1.388665 0
M  V30 24 C -1.712081 -5.119008 1.672105 0
M  V30 25 N -0.848297 -6.116271 1.923632 0
M  V30 26 C 0.417786 -5.676619 1.805306 0
M  V30 27 N 1.611269 -6.304753 1.960799 0
M  V30 28 H 3.722760 -6.183535 1.920219 0
M  V30 29 H 3.694072 -3.856101 1.324228 0
M  V30 30 H 3.684503 -1.896190 0.822219 0
M  V30 31 H 0.285398 1.767830 -1.957779 0
M  V30 32 H 0.067871 3.267180 -0.896955 0
M  V30 33 H 1.752576 3.948461 -2.610068 0
M  V30 34 H 2.561061 2.304171 -2.360560 0
M  V30 35 H 2.834910 4.729185 -0.617173 0
M  V30 36 H 3.681540 3.103920 -0.561475 0
M  V30 37 H 2.528116 2.882240 1.369581 0
M  V30 38 H 1.050072 3.810693 0.720582 0
M  V30 39 H -0.646649 1.979733 1.446708 0
M  V30 40 H -2.092646 2.092225 0.452724 0
M  V30 41 H -1.453742 0.423089 2.947702 0
M  V30 42 H -2.706812 1.737013 2.770700 0
M  V30 43 H -4.178003 0.004547 2.577413 0
M  V30 44 H -3.007422 -1.167248 1.965181 0
M  V30 45 H -4.694801 0.432800 0.401152 0
M  V30 46 H -3.756547 -0.524213 -1.383250 0
M  V30 47 H -3.318629 -1.734322 -0.174958 0
M  V30 48 H -1.609059 0.235945 -1.654928 0
M  V30 49 H -1.222406 -1.368488 -1.057749 0
M  V30 50 H -1.337286 -3.066397 1.144676 0
M  V30 51 H -2.777342 -5.180908 1.692771 0
M  V30 52 H -1.097753 -7.116285 2.180889 0
M  V30 END ATOM
M  V30 BEGIN BOND
M  V30 1 2 1 2
M  V30 2 1 2 3
M  V30 3 1 3 4
M  V30 4 2 4 5
M  V30 5 1 5 6
M  V30 6 2 6 7
M  V30 7 1 7 8
M  V30 8 1 8 9
M  V30 9 1 9 10
M  V30 10 1 10 11
M  V30 11 1 11 12
M  V30 12 1 7 13
M  V30 13 1 13 14
M  V30 14 1 14 15
M  V30 15 1 15 16
M  V30 16 1 16 17
M  V30 17 1 17 18
M  V30 18 1 18 19
M  V30 19 1 19 20
M  V30 20 2 13 21
M  V30 21 2 3 22
M  V30 22 1 22 23
M  V30 23 2 23 24
M  V30 24 1 24 25
M  V30 25 1 25 26
M  V30 26 2 26 27
M  V30 27 1 27 1
M  V30 28 1 21 4
M  V30 29 1 26 22
M  V30 30 1 12 8
M  V30 31 1 20 14
M  V30 32 1 1 28
M  V30 33 1 2 29
M  V30 34 1 5 30
M  V30 35 1 9 31
M  V30 36 1 9 32
M  V30 37 1 10 33
M  V30 38 1 10 34
M  V30 39 1 11 35
M  V30 40 1 11 36
M  V30 41 1 12 37
M  V30 42 1 12 38
M  V30 43 1 15 39
M  V30 44 1 15 40
M  V30 45 1 16 41
M  V30 46 1 16 42
M  V30 47 1 17 43
M  V30 48 1 17 44
M  V30 49 1 18 45
M  V30 50 1 19 46
M  V30 51 1 19 47
M  V30 52 1 20 48
M  V30 53 1 20 49
M  V30 54 1 23 50
M  V30 55 1 24 51
M  V30 56 1 25 52
M  V30 END BOND
M  V30 END CTAB
M  END
>  <Dataset>  (552) 
ChEMBL_Kinases

>  <Ligand_Instance>  (552) 
nan

>  <PDB_ID>  (552) 
nan

>  <Standardized_SMILES>  (552) 
c1cc(-c2cnc(N3CCCC3)c(N3CCCNCC3)n2)c2cc[nH]c2n1

>  <Name>  (552) 
nan

>  <Pocket>  (552) 
nan

>  <ATP_Site>  (552) 
nan

>  <Peripheral>  (552) 
nan

>  <Num_H_Atoms_ProtBoundConf>  (552) 
nan

>  <Num_Resolved_Atoms>  (552) 
nan

>  <Num_Not_Resolved_Atoms>  (552) 
nan

$$$$
CHEMBL2070416
     RDKit          3D

  0  0  0  0  0  0  0  0  0  0999 V3000
M  V30 BEGIN CTAB
M  V30 COUNTS 68 72 0 0 0
M  V30 BEGIN ATOM
M  V30 1 N 6.780712 -2.104168 5.107510 0
M  V30 2 C 7.449051 -0.918695 5.433394 0
M  V30 3 O 8.286204 -0.878047 6.375841 0
M  V30 4 C 7.242465 0.340177 4.731487 0
M  V30 5 C 7.909477 1.485225 5.067521 0
M  V30 6 C 7.711240 2.693419 4.402888 0
M  V30 7 C 6.807775 2.759284 3.359499 0
M  V30 8 O 6.484254 3.882863 2.586743 0
M  V30 9 C 5.498418 3.788999 1.596854 0
M  V30 10 C 5.825634 3.499281 0.291761 0
M  V30 11 C 4.845620 3.405097 -0.673321 0
M  V30 12 C 3.523080 3.600000 -0.343243 0
M  V30 13 C 2.373975 3.528851 -1.273511 0
M  V30 14 C 1.357182 2.831605 -0.860404 0
M  V30 15 S 1.199869 1.944468 0.715156 0
M  V30 16 C -0.157814 0.915746 0.093283 0
M  V30 17 S -0.079477 -0.279629 1.199253 0
M  V30 18 N -0.697375 1.581135 -1.070164 0
M  V30 19 C -1.921683 0.870228 -1.238221 0
M  V30 20 C -1.947325 -0.257329 -2.038334 0
M  V30 21 C -3.055599 -1.060870 -2.278799 0
M  V30 22 C -4.218247 -0.641239 -1.626250 0
M  V30 23 O -5.319436 -1.455418 -1.872706 0
M  V30 24 C -5.224843 -2.568039 -2.700579 0
M  V30 25 C -6.473305 -3.377756 -2.863070 0
M  V30 26 C -6.979354 -3.948768 -1.561339 0
M  V30 27 N -6.022841 -4.823538 -0.938929 0
M  V30 28 C -5.793838 -6.056432 -1.665464 0
M  V30 29 C -5.245512 -6.979276 -0.565029 0
M  V30 30 C -6.228233 -6.690450 0.547568 0
M  V30 31 C -6.481494 -5.212943 0.373342 0
M  V30 32 C -4.272767 0.469000 -0.815470 0
M  V30 33 C -3.130690 1.223663 -0.620885 0
M  V30 34 C 0.126841 2.589471 -1.549997 0
M  V30 35 O -0.359800 3.158654 -2.564066 0
M  V30 36 C 3.187105 3.894453 0.973080 0
M  V30 37 C 4.172480 3.989863 1.947139 0
M  V30 38 C 6.160851 1.573455 3.060780 0
M  V30 39 C 6.330181 0.348572 3.697690 0
M  V30 40 H 6.984954 -3.009412 4.596141 0
M  V30 41 H 5.890697 -2.601944 5.196177 0
M  V30 42 H 8.615591 1.443511 5.882483 0
M  V30 43 H 8.220338 3.616161 4.641071 0
M  V30 44 H 6.863623 3.352031 0.052268 0
M  V30 45 H 5.070160 3.180839 -1.702396 0
M  V30 46 H 2.307887 4.002644 -2.258982 0
M  V30 47 H -0.997799 -0.534243 -2.522973 0
M  V30 48 H -2.932874 -1.905573 -2.921149 0
M  V30 49 H -4.894839 -2.186427 -3.702774 0
M  V30 50 H -4.417374 -3.258653 -2.382284 0
M  V30 51 H -6.265838 -4.244268 -3.519464 0
M  V30 52 H -7.237505 -2.754735 -3.354984 0
M  V30 53 H -7.891033 -4.532942 -1.784157 0
M  V30 54 H -7.267436 -3.114422 -0.904949 0
M  V30 55 H -5.046699 -5.964682 -2.452583 0
M  V30 56 H -6.766821 -6.484353 -1.964224 0
M  V30 57 H -4.258348 -6.593364 -0.231137 0
M  V30 58 H -5.232481 -8.038094 -0.886524 0
M  V30 59 H -5.763645 -6.894721 1.545438 0
M  V30 60 H -7.143292 -7.314915 0.445465 0
M  V30 61 H -7.547380 -4.927502 0.481322 0
M  V30 62 H -5.837896 -4.693171 1.138139 0
M  V30 63 H -5.215728 0.725089 -0.347892 0
M  V30 64 H -3.138144 2.095660 0.006130 0
M  V30 65 H 2.210549 4.092962 1.413304 0
M  V30 66 H 3.997461 4.217123 2.993071 0
M  V30 67 H 5.436960 1.551479 2.248202 0
M  V30 68 H 5.776908 -0.525853 3.391020 0
M  V30 END ATOM
M  V30 BEGIN BOND
M  V30 1 1 1 2
M  V30 2 2 2 3
M  V30 3 1 2 4
M  V30 4 2 4 5
M  V30 5 1 5 6
M  V30 6 2 6 7
M  V30 7 1 7 8
M  V30 8 1 8 9
M  V30 9 2 9 10
M  V30 10 1 10 11
M  V30 11 2 11 12
M  V30 12 1 12 13
M  V30 13 2 13 14
M  V30 14 1 14 15
M  V30 15 1 15 16
M  V30 16 2 16 17
M  V30 17 1 16 18
M  V30 18 1 18 19
M  V30 19 2 19 20
M  V30 20 1 20 21
M  V30 21 2 21 22
M  V30 22 1 22 23
M  V30 23 1 23 24
M  V30 24 1 24 25
M  V30 25 1 25 26
M  V30 26 1 26 27
M  V30 27 1 27 28
M  V30 28 1 28 29
M  V30 29 1 29 30
M  V30 30 1 30 31
M  V30 31 1 22 32
M  V30 32 2 32 33
M  V30 33 1 18 34
M  V30 34 2 34 35
M  V30 35 1 12 36
M  V30 36 2 36 37
M  V30 37 1 7 38
M  V30 38 2 38 39
M  V30 39 1 39 4
M  V30 40 1 37 9
M  V30 41 1 34 14
M  V30 42 1 33 19
M  V30 43 1 31 27
M  V30 44 1 1 40
M  V30 45 1 1 41
M  V30 46 1 5 42
M  V30 47 1 6 43
M  V30 48 1 10 44
M  V30 49 1 11 45
M  V30 50 1 13 46
M  V30 51 1 20 47
M  V30 52 1 21 48
M  V30 53 1 24 49
M  V30 54 1 24 50
M  V30 55 1 25 51
M  V30 56 1 25 52
M  V30 57 1 26 53
M  V30 58 1 26 54
M  V30 59 1 28 55
M  V30 60 1 28 56
M  V30 61 1 29 57
M  V30 62 1 29 58
M  V30 63 1 30 59
M  V30 64 1 30 60
M  V30 65 1 31 61
M  V30 66 1 31 62
M  V30 67 1 32 63
M  V30 68 1 33 64
M  V30 69 1 36 65
M  V30 70 1 37 66
M  V30 71 1 38 67
M  V30 72 1 39 68
M  V30 END BOND
M  V30 END CTAB
M  END
>  <Dataset>  (553) 
ChEMBL_Kinases

>  <Ligand_Instance>  (553) 
nan

>  <PDB_ID>  (553) 
nan

>  <Standardized_SMILES>  (553) 
NC(=O)c1ccc(Oc2ccc(/C=C3\SC(=S)N(c4ccc(OCCCN5CCCC5)cc4)C3=O)cc2)cc1

>  <Name>  (553) 
nan

>  <Pocket>  (553) 
nan

>  <ATP_Site>  (553) 
nan

>  <Peripheral>  (553) 
nan

>  <Num_H_Atoms_ProtBoundConf>  (553) 
nan

>  <Num_Resolved_Atoms>  (553) 
nan

>  <Num_Not_Resolved_Atoms>  (553) 
nan

$$$$
CHEMBL573659
     RDKit          3D

  0  0  0  0  0  0  0  0  0  0999 V3000
M  V30 BEGIN CTAB
M  V30 COUNTS 38 41 0 0 0
M  V30 BEGIN ATOM
M  V30 1 O 2.353290 1.820745 3.784301 0
M  V30 2 C 1.633023 1.021038 3.134521 0
M  V30 3 N 2.005872 -0.189331 2.693173 0
M  V30 4 C 1.089847 -0.897448 2.014706 0
M  V30 5 C 1.464123 -2.266608 1.497865 0
M  V30 6 N 2.006113 -2.204500 0.205137 0
M  V30 7 C 2.416003 -3.374276 -0.448630 0
M  V30 8 C 1.462162 -3.574990 -1.633428 0
M  V30 9 C 1.009227 -2.228097 -2.141146 0
M  V30 10 C 2.037716 -1.139613 -1.909852 0
M  V30 11 C 2.247807 -0.964990 -0.401890 0
M  V30 12 N -0.150354 -0.487022 1.751658 0
M  V30 13 C -0.637621 0.706656 2.142617 0
M  V30 14 C 0.318757 1.393744 2.825968 0
M  V30 15 S -0.527257 2.995479 3.279372 0
M  V30 16 C -2.052943 2.540080 2.495993 0
M  V30 17 C -3.217761 3.262022 2.410027 0
M  V30 18 C -4.310344 2.740613 1.755525 0
M  V30 19 C -4.107928 1.485312 1.229505 0
M  V30 20 Cl -5.505759 0.797069 0.382014 0
M  V30 21 C -2.949147 0.757434 1.310393 0
M  V30 22 C -1.849908 1.310255 1.982402 0
M  V30 23 H 2.966325 -0.508135 2.896424 0
M  V30 24 H 0.559821 -2.927562 1.478743 0
M  V30 25 H 2.169698 -2.723775 2.198992 0
M  V30 26 H 3.432601 -3.295788 -0.869306 0
M  V30 27 H 2.315181 -4.231656 0.237887 0
M  V30 28 H 0.531780 -4.091221 -1.264221 0
M  V30 29 H 1.893332 -4.226255 -2.411956 0
M  V30 30 H 0.022008 -1.919061 -1.712534 0
M  V30 31 H 0.857123 -2.300991 -3.237859 0
M  V30 32 H 2.974916 -1.434491 -2.394719 0
M  V30 33 H 1.634294 -0.211196 -2.323515 0
M  V30 34 H 1.538857 -0.177480 -0.070574 0
M  V30 35 H 3.268025 -0.589496 -0.194921 0
M  V30 36 H -3.236897 4.239566 2.870972 0
M  V30 37 H -5.231103 3.295035 1.679783 0
M  V30 38 H -2.956163 -0.222199 0.838751 0
M  V30 END ATOM
M  V30 BEGIN BOND
M  V30 1 2 1 2
M  V30 2 1 2 3
M  V30 3 1 3 4
M  V30 4 1 4 5
M  V30 5 1 5 6
M  V30 6 1 6 7
M  V30 7 1 7 8
M  V30 8 1 8 9
M  V30 9 1 9 10
M  V30 10 1 10 11
M  V30 11 2 4 12
M  V30 12 1 12 13
M  V30 13 2 13 14
M  V30 14 1 14 15
M  V30 15 1 15 16
M  V30 16 2 16 17
M  V30 17 1 17 18
M  V30 18 2 18 19
M  V30 19 1 19 20
M  V30 20 1 19 21
M  V30 21 2 21 22
M  V30 22 1 14 2
M  V30 23 1 22 16
M  V30 24 1 11 6
M  V30 25 1 22 13
M  V30 26 1 3 23
M  V30 27 1 5 24
M  V30 28 1 5 25
M  V30 29 1 7 26
M  V30 30 1 7 27
M  V30 31 1 8 28
M  V30 32 1 8 29
M  V30 33 1 9 30
M  V30 34 1 9 31
M  V30 35 1 10 32
M  V30 36 1 10 33
M  V30 37 1 11 34
M  V30 38 1 11 35
M  V30 39 1 17 36
M  V30 40 1 18 37
M  V30 41 1 21 38
M  V30 END BOND
M  V30 END CTAB
M  END
>  <Dataset>  (554) 
ChEMBL_Kinases

>  <Ligand_Instance>  (554) 
nan

>  <PDB_ID>  (554) 
nan

>  <Standardized_SMILES>  (554) 
O=c1[nH]c(CN2CCCCC2)nc2c1sc1ccc(Cl)cc12

>  <Name>  (554) 
nan

>  <Pocket>  (554) 
nan

>  <ATP_Site>  (554) 
nan

>  <Peripheral>  (554) 
nan

>  <Num_H_Atoms_ProtBoundConf>  (554) 
nan

>  <Num_Resolved_Atoms>  (554) 
nan

>  <Num_Not_Resolved_Atoms>  (554) 
nan

$$$$
CHEMBL598336
     RDKit          3D

  0  0  0  0  0  0  0  0  0  0999 V3000
M  V30 BEGIN CTAB
M  V30 COUNTS 56 58 0 0 0
M  V30 BEGIN ATOM
M  V30 1 C 3.467657 -4.598058 6.993232 0
M  V30 2 O 2.650387 -4.640932 5.828311 0
M  V30 3 C 2.802095 -3.733644 4.789256 0
M  V30 4 C 3.727358 -2.710797 4.749322 0
M  V30 5 C 3.804433 -1.848241 3.659824 0
M  V30 6 C 2.953841 -1.990657 2.581726 0
M  V30 7 C 3.079998 -1.058449 1.465190 0
M  V30 8 O 3.953735 -0.172339 1.573309 0
M  V30 9 N 2.273075 -1.123286 0.303538 0
M  V30 10 C 2.341368 -0.235173 -0.840074 0
M  V30 11 C 1.679149 1.046039 -0.483844 0
M  V30 12 C 2.255926 2.155851 0.050382 0
M  V30 13 C 1.550994 3.303177 0.348961 0
M  V30 14 C 0.186889 3.385342 0.113867 0
M  V30 15 C -0.433244 2.278916 -0.427647 0
M  V30 16 C -1.858936 2.381951 -0.669937 0
M  V30 17 O -2.451929 3.454452 -0.391249 0
M  V30 18 N -2.675957 1.351277 -1.210841 0
M  V30 19 C -4.053052 1.790252 -1.321372 0
M  V30 20 C -4.959656 0.743868 -1.885946 0
M  V30 21 C -4.597323 0.293604 -3.232726 0
M  V30 22 C -5.057565 0.876211 -4.398146 0
M  V30 23 C -4.716038 0.448930 -5.670631 0
M  V30 24 N -3.877701 -0.607199 -5.772468 0
M  V30 25 C -3.389447 -1.225148 -4.673603 0
M  V30 26 C -3.743868 -0.781525 -3.412746 0
M  V30 27 C 0.300822 1.148051 -0.714085 0
M  V30 28 C 2.038732 -3.021664 2.648581 0
M  V30 29 C 1.939463 -3.891220 3.714506 0
M  V30 30 O 0.987194 -4.912118 3.711358 0
M  V30 31 C 0.133259 -5.029741 2.594056 0
M  V30 32 H 3.491618 -3.577682 7.429002 0
M  V30 33 H 3.147901 -5.368492 7.701136 0
M  V30 34 H 4.523240 -4.793623 6.640129 0
M  V30 35 H 4.395510 -2.605987 5.605722 0
M  V30 36 H 4.570054 -1.076466 3.731149 0
M  V30 37 H 1.550818 -1.884773 0.252849 0
M  V30 38 H 3.398049 -0.033888 -1.133692 0
M  V30 39 H 1.796557 -0.647660 -1.713332 0
M  V30 40 H 3.307063 2.119244 0.238242 0
M  V30 41 H 2.092521 4.134010 0.770789 0
M  V30 42 H -0.312227 4.295557 0.362328 0
M  V30 43 H -2.207836 0.451152 -1.449148 0
M  V30 44 H -4.441027 2.221088 -0.398412 0
M  V30 45 H -4.022055 2.650407 -2.053925 0
M  V30 46 H -4.979704 -0.107206 -1.184201 0
M  V30 47 H -5.979871 1.197939 -1.922749 0
M  V30 48 H -5.725190 1.717376 -4.294171 0
M  V30 49 H -5.058859 0.883216 -6.577620 0
M  V30 50 H -2.716226 -2.073438 -4.805280 0
M  V30 51 H -3.307038 -1.336045 -2.598167 0
M  V30 52 H -0.206156 0.290385 -1.138998 0
M  V30 53 H 1.358857 -3.158950 1.819860 0
M  V30 54 H 0.650097 -5.146944 1.636551 0
M  V30 55 H -0.501410 -4.104825 2.465620 0
M  V30 56 H -0.512842 -5.927986 2.719058 0
M  V30 END ATOM
M  V30 BEGIN BOND
M  V30 1 1 1 2
M  V30 2 1 2 3
M  V30 3 2 3 4
M  V30 4 1 4 5
M  V30 5 2 5 6
M  V30 6 1 6 7
M  V30 7 2 7 8
M  V30 8 1 7 9
M  V30 9 1 9 10
M  V30 10 1 10 11
M  V30 11 2 11 12
M  V30 12 1 12 13
M  V30 13 2 13 14
M  V30 14 1 14 15
M  V30 15 1 15 16
M  V30 16 2 16 17
M  V30 17 1 16 18
M  V30 18 1 18 19
M  V30 19 1 19 20
M  V30 20 1 20 21
M  V30 21 2 21 22
M  V30 22 1 22 23
M  V30 23 2 23 24
M  V30 24 1 24 25
M  V30 25 2 25 26
M  V30 26 2 15 27
M  V30 27 1 6 28
M  V30 28 2 28 29
M  V30 29 1 29 30
M  V30 30 1 30 31
M  V30 31 1 29 3
M  V30 32 1 27 11
M  V30 33 1 26 21
M  V30 34 1 1 32
M  V30 35 1 1 33
M  V30 36 1 1 34
M  V30 37 1 4 35
M  V30 38 1 5 36
M  V30 39 1 9 37
M  V30 40 1 10 38
M  V30 41 1 10 39
M  V30 42 1 12 40
M  V30 43 1 13 41
M  V30 44 1 14 42
M  V30 45 1 18 43
M  V30 46 1 19 44
M  V30 47 1 19 45
M  V30 48 1 20 46
M  V30 49 1 20 47
M  V30 50 1 22 48
M  V30 51 1 23 49
M  V30 52 1 25 50
M  V30 53 1 26 51
M  V30 54 1 27 52
M  V30 55 1 28 53
M  V30 56 1 31 54
M  V30 57 1 31 55
M  V30 58 1 31 56
M  V30 END BOND
M  V30 END CTAB
M  END
>  <Dataset>  (555) 
ChEMBL_Kinases

>  <Ligand_Instance>  (555) 
nan

>  <PDB_ID>  (555) 
nan

>  <Standardized_SMILES>  (555) 
COc1ccc(C(=O)NCc2cccc(C(=O)NCCc3ccncc3)c2)cc1OC

>  <Name>  (555) 
nan

>  <Pocket>  (555) 
nan

>  <ATP_Site>  (555) 
nan

>  <Peripheral>  (555) 
nan

>  <Num_H_Atoms_ProtBoundConf>  (555) 
nan

>  <Num_Resolved_Atoms>  (555) 
nan

>  <Num_Not_Resolved_Atoms>  (555) 
nan

$$$$
CHEMBL573697
     RDKit          3D

  0  0  0  0  0  0  0  0  0  0999 V3000
M  V30 BEGIN CTAB
M  V30 COUNTS 37 40 0 0 0
M  V30 BEGIN ATOM
M  V30 1 O -2.975968 -1.865574 3.575454 0
M  V30 2 C -1.874812 -1.792392 2.973499 0
M  V30 3 N -0.754093 -1.206225 3.428547 0
M  V30 4 C 0.341070 -1.233886 2.620263 0
M  V30 5 C 1.491912 -0.553810 3.283312 0
M  V30 6 N 1.429692 0.837315 2.975040 0
M  V30 7 C 1.633148 1.553389 1.778233 0
M  V30 8 C 2.000706 1.024480 0.569897 0
M  V30 9 C 2.187794 1.722831 -0.602981 0
M  V30 10 O 2.559824 1.113971 -1.785578 0
M  V30 11 C 1.986820 3.083150 -0.557764 0
M  V30 12 C 1.615954 3.680600 0.626609 0
M  V30 13 O 1.414312 5.053092 0.668482 0
M  V30 14 C 1.450699 2.919446 1.744782 0
M  V30 15 N 0.341065 -1.800449 1.437958 0
M  V30 16 C -0.698171 -2.417280 0.863135 0
M  V30 17 C -1.815996 -2.374749 1.718039 0
M  V30 18 S -3.093573 -3.254797 0.758836 0
M  V30 19 C -2.063770 -3.583561 -0.632501 0
M  V30 20 C -2.382049 -4.240697 -1.784434 0
M  V30 21 C -1.441890 -4.408393 -2.778506 0
M  V30 22 C -0.217513 -3.858359 -2.470961 0
M  V30 23 Cl 1.033809 -4.043764 -3.715234 0
M  V30 24 C 0.115523 -3.195280 -1.316747 0
M  V30 25 C -0.847536 -3.044095 -0.341401 0
M  V30 26 H -0.851206 -0.784168 4.375794 0
M  V30 27 H 2.427072 -0.982320 2.838315 0
M  V30 28 H 1.541046 -0.753516 4.351340 0
M  V30 29 H 1.182288 1.415109 3.815414 0
M  V30 30 H 2.180532 -0.029703 0.482385 0
M  V30 31 H 1.829131 0.845802 -2.442453 0
M  V30 32 H 2.118832 3.680195 -1.445258 0
M  V30 33 H 0.463380 5.442220 0.607195 0
M  V30 34 H 1.153727 3.455673 2.660007 0
M  V30 35 H -3.382338 -4.627112 -1.904449 0
M  V30 36 H -1.642356 -4.919040 -3.705768 0
M  V30 37 H 1.140583 -2.814529 -1.225529 0
M  V30 END ATOM
M  V30 BEGIN BOND
M  V30 1 2 1 2
M  V30 2 1 2 3
M  V30 3 1 3 4
M  V30 4 1 4 5
M  V30 5 1 5 6
M  V30 6 1 6 7
M  V30 7 2 7 8
M  V30 8 1 8 9
M  V30 9 1 9 10
M  V30 10 2 9 11
M  V30 11 1 11 12
M  V30 12 1 12 13
M  V30 13 2 12 14
M  V30 14 2 4 15
M  V30 15 1 15 16
M  V30 16 2 16 17
M  V30 17 1 17 18
M  V30 18 1 18 19
M  V30 19 2 19 20
M  V30 20 1 20 21
M  V30 21 2 21 22
M  V30 22 1 22 23
M  V30 23 1 22 24
M  V30 24 2 24 25
M  V30 25 1 17 2
M  V30 26 1 25 19
M  V30 27 1 14 7
M  V30 28 1 25 16
M  V30 29 1 3 26
M  V30 30 1 5 27
M  V30 31 1 5 28
M  V30 32 1 6 29
M  V30 33 1 8 30
M  V30 34 1 10 31
M  V30 35 1 11 32
M  V30 36 1 13 33
M  V30 37 1 14 34
M  V30 38 1 20 35
M  V30 39 1 21 36
M  V30 40 1 24 37
M  V30 END BOND
M  V30 END CTAB
M  END
>  <Dataset>  (556) 
ChEMBL_Kinases

>  <Ligand_Instance>  (556) 
nan

>  <PDB_ID>  (556) 
nan

>  <Standardized_SMILES>  (556) 
O=c1[nH]c(CNc2cc(O)cc(O)c2)nc2c1sc1ccc(Cl)cc12

>  <Name>  (556) 
nan

>  <Pocket>  (556) 
nan

>  <ATP_Site>  (556) 
nan

>  <Peripheral>  (556) 
nan

>  <Num_H_Atoms_ProtBoundConf>  (556) 
nan

>  <Num_Resolved_Atoms>  (556) 
nan

>  <Num_Not_Resolved_Atoms>  (556) 
nan

$$$$
CHEMBL1230065
     RDKit          3D

  0  0  0  0  0  0  0  0  0  0999 V3000
M  V30 BEGIN CTAB
M  V30 COUNTS 56 59 0 0 0
M  V30 BEGIN ATOM
M  V30 1 C 3.476657 -1.032052 5.615845 0
M  V30 2 C 4.933752 -0.787019 5.357847 0
M  V30 3 C 5.373699 -1.261604 3.972833 0
M  V30 4 N 4.640005 -0.588473 2.917778 0
M  V30 5 C 4.818166 -0.802493 1.515653 0
M  V30 6 O 5.692871 -1.655159 1.165439 0
M  V30 7 C 3.954528 0.004593 0.635806 0
M  V30 8 C 4.216819 0.873797 -0.390886 0
M  V30 9 N 3.051146 1.353378 -0.855297 0
M  V30 10 N 2.762494 2.207649 -1.817618 0
M  V30 11 C 1.490131 2.543412 -2.104971 0
M  V30 12 N 0.448834 2.007540 -1.405552 0
M  V30 13 C 0.679008 1.132982 -0.412516 0
M  V30 14 N -0.414209 0.596349 0.308520 0
M  V30 15 C -1.615214 -0.035914 -0.001478 0
M  V30 16 C -2.075353 -0.328750 -1.258804 0
M  V30 17 C -3.275626 -0.950643 -1.504660 0
M  V30 18 C -3.764649 -1.258435 -2.839236 0
M  V30 19 O -3.077142 -0.909353 -3.809184 0
M  V30 20 N -4.970626 -1.926229 -3.057690 0
M  V30 21 C -5.589553 -2.296179 -4.303863 0
M  V30 22 C -7.078970 -2.571135 -4.334134 0
M  V30 23 C -6.087799 -3.748351 -4.310906 0
M  V30 24 C -4.021723 -1.275735 -0.381413 0
M  V30 25 C -3.612845 -1.007456 0.912244 0
M  V30 26 C -2.400864 -0.382816 1.100375 0
M  V30 27 C -1.950528 -0.087714 2.489477 0
M  V30 28 C 2.028192 0.837882 -0.179067 0
M  V30 29 C 2.581568 -0.024907 0.775031 0
M  V30 30 C 1.783841 -0.833841 1.746674 0
M  V30 31 H 3.086313 -1.948078 5.131477 0
M  V30 32 H 3.309359 -1.109788 6.716739 0
M  V30 33 H 2.908979 -0.127397 5.279364 0
M  V30 34 H 5.183296 0.275869 5.499682 0
M  V30 35 H 5.489231 -1.365914 6.141272 0
M  V30 36 H 5.161663 -2.365952 3.973130 0
M  V30 37 H 6.467334 -1.095625 3.895308 0
M  V30 38 H 3.917646 0.115568 3.245536 0
M  V30 39 H 5.220193 1.074486 -0.701555 0
M  V30 40 H 1.401473 3.251881 -2.912597 0
M  V30 41 H -0.125857 0.796248 1.286996 0
M  V30 42 H -1.452082 -0.054308 -2.100232 0
M  V30 43 H -5.537545 -2.210478 -2.231447 0
M  V30 44 H -5.168322 -1.966605 -5.279174 0
M  V30 45 H -7.671456 -2.439850 -5.242163 0
M  V30 46 H -7.628892 -2.372625 -3.369050 0
M  V30 47 H -6.059972 -4.324840 -5.244160 0
M  V30 48 H -6.077923 -4.316247 -3.366917 0
M  V30 49 H -4.984150 -1.762441 -0.405873 0
M  V30 50 H -4.197863 -1.266043 1.799937 0
M  V30 51 H -1.661733 0.964501 2.639546 0
M  V30 52 H -2.771407 -0.281323 3.207151 0
M  V30 53 H -1.087904 -0.756792 2.699736 0
M  V30 54 H 2.463647 -1.671089 2.071854 0
M  V30 55 H 0.948252 -1.339166 1.195044 0
M  V30 56 H 1.494615 -0.303182 2.646993 0
M  V30 END ATOM
M  V30 BEGIN BOND
M  V30 1 1 1 2
M  V30 2 1 2 3
M  V30 3 1 3 4
M  V30 4 1 4 5
M  V30 5 2 5 6
M  V30 6 1 5 7
M  V30 7 2 7 8
M  V30 8 1 8 9
M  V30 9 1 9 10
M  V30 10 2 10 11
M  V30 11 1 11 12
M  V30 12 2 12 13
M  V30 13 1 13 14
M  V30 14 1 14 15
M  V30 15 2 15 16
M  V30 16 1 16 17
M  V30 17 1 17 18
M  V30 18 2 18 19
M  V30 19 1 18 20
M  V30 20 1 20 21
M  V30 21 1 21 22
M  V30 22 1 22 23
M  V30 23 2 17 24
M  V30 24 1 24 25
M  V30 25 2 25 26
M  V30 26 1 26 27
M  V30 27 1 13 28
M  V30 28 2 28 29
M  V30 29 1 29 30
M  V30 30 1 29 7
M  V30 31 1 28 9
M  V30 32 1 26 15
M  V30 33 1 23 21
M  V30 34 1 1 31
M  V30 35 1 1 32
M  V30 36 1 1 33
M  V30 37 1 2 34
M  V30 38 1 2 35
M  V30 39 1 3 36
M  V30 40 1 3 37
M  V30 41 1 4 38
M  V30 42 1 8 39
M  V30 43 1 11 40
M  V30 44 1 14 41
M  V30 45 1 16 42
M  V30 46 1 20 43
M  V30 47 1 21 44
M  V30 48 1 22 45
M  V30 49 1 22 46
M  V30 50 1 23 47
M  V30 51 1 23 48
M  V30 52 1 24 49
M  V30 53 1 25 50
M  V30 54 1 27 51
M  V30 55 1 27 52
M  V30 56 1 27 53
M  V30 57 1 30 54
M  V30 58 1 30 55
M  V30 59 1 30 56
M  V30 END BOND
M  V30 END CTAB
M  END
>  <Dataset>  (557) 
ChEMBL_Kinases

>  <Ligand_Instance>  (557) 
nan

>  <PDB_ID>  (557) 
nan

>  <Standardized_SMILES>  (557) 
CCCNC(=O)c1cn2ncnc(Nc3cc(C(=O)NC4CC4)ccc3C)c2c1C

>  <Name>  (557) 
BMS-582949

>  <Pocket>  (557) 
nan

>  <ATP_Site>  (557) 
nan

>  <Peripheral>  (557) 
nan

>  <Num_H_Atoms_ProtBoundConf>  (557) 
nan

>  <Num_Resolved_Atoms>  (557) 
nan

>  <Num_Not_Resolved_Atoms>  (557) 
nan

$$$$
CHEMBL212646
     RDKit          3D

  0  0  0  0  0  0  0  0  0  0999 V3000
M  V30 BEGIN CTAB
M  V30 COUNTS 46 50 0 0 0
M  V30 BEGIN ATOM
M  V30 1 C 1.666695 -1.912898 -1.934900 0
M  V30 2 C 2.908548 -2.199882 -1.147211 0
M  V30 3 C 2.685209 -2.279506 0.332076 0
M  V30 4 N 2.163734 -1.073040 0.886777 0
M  V30 5 C 2.853605 -0.003859 1.382165 0
M  V30 6 C 4.233072 0.117428 1.441469 0
M  V30 7 C 4.815877 1.250812 1.966239 0
M  V30 8 C 3.961061 2.236516 2.419382 0
M  V30 9 O 4.566396 3.375342 2.946723 0
M  V30 10 C 2.598958 2.063164 2.336078 0
M  V30 11 C 1.981840 0.965662 1.827792 0
M  V30 12 C 0.746333 0.493026 1.606600 0
M  V30 13 C -0.458704 1.027755 1.851038 0
M  V30 14 C -1.610526 0.348126 1.534910 0
M  V30 15 C -1.520072 -0.913942 0.952399 0
M  V30 16 C -2.705321 -1.686169 0.593478 0
M  V30 17 C -3.403381 -2.601037 1.381912 0
M  V30 18 C -4.507396 -3.221486 0.832740 0
M  V30 19 C -4.960332 -2.995060 -0.437845 0
M  V30 20 C -4.269196 -2.093952 -1.208273 0
M  V30 21 C -3.167800 -1.453426 -0.707241 0
M  V30 22 Cl -2.382543 -0.329704 -1.799682 0
M  V30 23 C -0.281981 -1.466347 0.699851 0
M  V30 24 C 0.848764 -0.752201 1.031833 0
M  V30 25 C -2.828446 1.060678 1.861413 0
M  V30 26 O -4.013869 0.696187 1.690717 0
M  V30 27 N -2.352120 2.292188 2.430965 0
M  V30 28 C -0.935145 2.262129 2.419971 0
M  V30 29 O -0.373049 3.264388 2.883852 0
M  V30 30 H 0.895445 -2.699560 -1.845091 0
M  V30 31 H 1.280114 -0.901108 -1.674862 0
M  V30 32 H 1.954351 -1.870531 -3.008422 0
M  V30 33 H 3.350219 -3.128311 -1.531332 0
M  V30 34 H 3.634429 -1.382054 -1.372414 0
M  V30 35 H 2.036797 -3.171149 0.541870 0
M  V30 36 H 3.665169 -2.553274 0.798151 0
M  V30 37 H 4.887460 -0.654526 1.086561 0
M  V30 38 H 5.878023 1.329742 2.005227 0
M  V30 39 H 4.746422 4.119960 2.255978 0
M  V30 40 H 2.055978 2.889245 2.716250 0
M  V30 41 H -2.995780 -2.728094 2.358623 0
M  V30 42 H -5.002279 -3.917536 1.494846 0
M  V30 43 H -5.834838 -3.511409 -0.818783 0
M  V30 44 H -4.640673 -1.925324 -2.213253 0
M  V30 45 H -0.228083 -2.428542 0.256021 0
M  V30 46 H -3.054670 3.015106 2.763302 0
M  V30 END ATOM
M  V30 BEGIN BOND
M  V30 1 1 1 2
M  V30 2 1 2 3
M  V30 3 1 3 4
M  V30 4 1 4 5
M  V30 5 2 5 6
M  V30 6 1 6 7
M  V30 7 2 7 8
M  V30 8 1 8 9
M  V30 9 1 8 10
M  V30 10 2 10 11
M  V30 11 1 11 12
M  V30 12 2 12 13
M  V30 13 1 13 14
M  V30 14 2 14 15
M  V30 15 1 15 16
M  V30 16 2 16 17
M  V30 17 1 17 18
M  V30 18 2 18 19
M  V30 19 1 19 20
M  V30 20 2 20 21
M  V30 21 1 21 22
M  V30 22 1 15 23
M  V30 23 2 23 24
M  V30 24 1 14 25
M  V30 25 2 25 26
M  V30 26 1 25 27
M  V30 27 1 27 28
M  V30 28 2 28 29
M  V30 29 1 24 4
M  V30 30 1 11 5
M  V30 31 1 24 12
M  V30 32 1 28 13
M  V30 33 1 21 16
M  V30 34 1 1 30
M  V30 35 1 1 31
M  V30 36 1 1 32
M  V30 37 1 2 33
M  V30 38 1 2 34
M  V30 39 1 3 35
M  V30 40 1 3 36
M  V30 41 1 6 37
M  V30 42 1 7 38
M  V30 43 1 9 39
M  V30 44 1 10 40
M  V30 45 1 17 41
M  V30 46 1 18 42
M  V30 47 1 19 43
M  V30 48 1 20 44
M  V30 49 1 23 45
M  V30 50 1 27 46
M  V30 END BOND
M  V30 END CTAB
M  END
>  <Dataset>  (558) 
ChEMBL_Kinases

>  <Ligand_Instance>  (558) 
nan

>  <PDB_ID>  (558) 
nan

>  <Standardized_SMILES>  (558) 
CCCn1c2ccc(O)cc2c2c3c(c(-c4ccccc4Cl)cc21)C(=O)NC3=O

>  <Name>  (558) 
nan

>  <Pocket>  (558) 
nan

>  <ATP_Site>  (558) 
nan

>  <Peripheral>  (558) 
nan

>  <Num_H_Atoms_ProtBoundConf>  (558) 
nan

>  <Num_Resolved_Atoms>  (558) 
nan

>  <Num_Not_Resolved_Atoms>  (558) 
nan

$$$$
CHEMBL4642166
     RDKit          3D

  0  0  0  0  0  0  0  0  0  0999 V3000
M  V30 BEGIN CTAB
M  V30 COUNTS 49 52 0 0 0
M  V30 BEGIN ATOM
M  V30 1 N 1.387499 -5.809598 4.216336 0
M  V30 2 C 0.653663 -4.848049 3.456461 0
M  V30 3 C -0.655295 -4.544499 3.784488 0
M  V30 4 C -1.364618 -3.611189 3.044965 0
M  V30 5 C -0.742266 -2.983643 1.968106 0
M  V30 6 C -1.377915 -1.988224 1.114032 0
M  V30 7 C -0.680616 -0.968498 0.511607 0
M  V30 8 C -1.305828 -0.042918 -0.291578 0
M  V30 9 N -0.567933 1.008167 -0.898434 0
M  V30 10 C 0.839391 1.171274 -0.674944 0 CFG=1
M  V30 11 C 1.495283 2.245109 -1.507996 0
M  V30 12 C 2.979349 1.949577 -1.445268 0
M  V30 13 C 3.678307 2.507862 -0.263844 0
M  V30 14 C 3.445561 1.866719 1.045047 0
M  V30 15 N 2.367136 0.926952 1.126140 0
M  V30 16 C 1.124603 1.587745 0.776454 0
M  V30 17 C -2.662411 -0.198004 -0.455232 0
M  V30 18 C -3.383897 0.662831 -1.231071 0
M  V30 19 C -4.740804 0.546119 -1.422775 0
M  V30 20 N -5.418396 -0.466352 -0.821705 0
M  V30 21 C -4.742618 -1.339605 -0.046136 0
M  V30 22 C -3.380020 -1.213977 0.140195 0
M  V30 23 C -2.745233 -2.136687 0.943575 0
M  V30 24 C 0.567700 -3.311208 1.668242 0
M  V30 25 C 1.304010 -4.238594 2.386468 0
M  V30 26 H 0.934734 -6.543936 4.787723 0
M  V30 27 H 0.931382 -6.556522 4.797553 0
M  V30 28 H -1.127160 -5.048724 4.634976 0
M  V30 29 H -2.372300 -3.342438 3.256117 0
M  V30 30 H 0.367956 -0.980865 0.726151 0
M  V30 31 H -0.945964 1.726978 -1.530261 0
M  V30 32 H 1.338037 0.209256 -0.884070 0
M  V30 33 H 1.123869 2.152453 -2.547880 0
M  V30 34 H 1.317681 3.260388 -1.125049 0
M  V30 35 H 3.412827 2.445502 -2.345761 0
M  V30 36 H 3.192573 0.876404 -1.576680 0
M  V30 37 H 4.779382 2.477067 -0.514828 0
M  V30 38 H 3.454270 3.605299 -0.172891 0
M  V30 39 H 3.290275 2.629493 1.863150 0
M  V30 40 H 4.369474 1.326031 1.378684 0
M  V30 41 H 2.277769 0.623127 2.117435 0
M  V30 42 H 0.257622 1.288247 1.367511 0
M  V30 43 H 1.287285 2.707188 0.816216 0
M  V30 44 H -2.913241 1.485890 -1.735811 0
M  V30 45 H -5.328636 1.208561 -2.026406 0
M  V30 46 H -5.276238 -2.146481 0.434157 0
M  V30 47 H -3.300152 -2.918777 1.401700 0
M  V30 48 H 1.123559 -2.869464 0.847692 0
M  V30 49 H 2.323248 -4.493436 2.153036 0
M  V30 END ATOM
M  V30 BEGIN BOND
M  V30 1 1 1 2
M  V30 2 2 2 3
M  V30 3 1 3 4
M  V30 4 2 4 5
M  V30 5 1 5 6
M  V30 6 2 6 7
M  V30 7 1 7 8
M  V30 8 1 8 9
M  V30 9 1 9 10
M  V30 10 1 10 11
M  V30 11 1 11 12
M  V30 12 1 12 13
M  V30 13 1 13 14
M  V30 14 1 14 15
M  V30 15 1 15 16
M  V30 16 2 8 17
M  V30 17 1 17 18
M  V30 18 2 18 19
M  V30 19 1 19 20
M  V30 20 2 20 21
M  V30 21 1 21 22
M  V30 22 2 22 23
M  V30 23 1 5 24
M  V30 24 2 24 25
M  V30 25 1 25 2
M  V30 26 1 23 6
M  V30 27 1 16 10
M  V30 28 1 22 17
M  V30 29 1 1 26
M  V30 30 1 1 27
M  V30 31 1 3 28
M  V30 32 1 4 29
M  V30 33 1 7 30
M  V30 34 1 9 31
M  V30 35 1 10 32 CFG=3
M  V30 36 1 11 33
M  V30 37 1 11 34
M  V30 38 1 12 35
M  V30 39 1 12 36
M  V30 40 1 13 37
M  V30 41 1 13 38
M  V30 42 1 14 39
M  V30 43 1 14 40
M  V30 44 1 15 41
M  V30 45 1 16 42
M  V30 46 1 16 43
M  V30 47 1 18 44
M  V30 48 1 19 45
M  V30 49 1 21 46
M  V30 50 1 23 47
M  V30 51 1 24 48
M  V30 52 1 25 49
M  V30 END BOND
M  V30 END CTAB
M  END
>  <Dataset>  (559) 
ChEMBL_Kinases

>  <Ligand_Instance>  (559) 
nan

>  <PDB_ID>  (559) 
nan

>  <Standardized_SMILES>  (559) 
Nc1ccc(-c2cc(N[C@H]3CCCCNC3)c3ccncc3c2)cc1

>  <Name>  (559) 
nan

>  <Pocket>  (559) 
nan

>  <ATP_Site>  (559) 
nan

>  <Peripheral>  (559) 
nan

>  <Num_H_Atoms_ProtBoundConf>  (559) 
nan

>  <Num_Resolved_Atoms>  (559) 
nan

>  <Num_Not_Resolved_Atoms>  (559) 
nan

$$$$
CHEMBL4638815
     RDKit          3D

  0  0  0  0  0  0  0  0  0  0999 V3000
M  V30 BEGIN CTAB
M  V30 COUNTS 44 48 0 0 0
M  V30 BEGIN ATOM
M  V30 1 C 3.239547 -4.901639 1.872944 0
M  V30 2 O 4.433587 -4.148834 1.838065 0
M  V30 3 C 4.636580 -3.082039 0.979030 0
M  V30 4 C 5.848649 -2.411528 1.028741 0
M  V30 5 C 6.043772 -1.352700 0.172659 0
M  V30 6 C 5.027097 -0.988632 -0.710940 0
M  V30 7 C 3.805435 -1.667411 -0.758341 0
M  V30 8 C 2.858621 -1.129739 -1.763023 0
M  V30 9 N 2.000686 -0.075118 -1.234782 0
M  V30 10 C 2.508242 1.160236 -1.359092 0
M  V30 11 N 1.734674 2.150014 -0.875716 0
M  V30 12 C 0.525590 1.834479 -0.310770 0
M  V30 13 S -0.828888 2.862793 0.463516 0
M  V30 14 C -1.878855 1.512898 0.844024 0
M  V30 15 C -3.157751 1.891944 1.514566 0
M  V30 16 C -3.432834 3.216711 1.786242 0
M  V30 17 C -4.607915 3.622244 2.408210 0
M  V30 18 N -5.502221 2.688712 2.754224 0
M  V30 19 C -5.295702 1.385840 2.518655 0
M  V30 20 N -6.071697 0.325402 2.793204 0
M  V30 21 C -5.404419 -0.754371 2.352915 0
M  V30 22 C -4.225040 -0.323910 1.814538 0
M  V30 23 C -4.120183 1.024994 1.901052 0
M  V30 24 C -1.226195 0.463949 0.414297 0
M  V30 25 C -0.015106 0.569530 -0.173128 0
M  V30 26 C 0.823949 -0.403134 -0.687116 0
M  V30 27 O 0.531590 -1.649419 -0.670341 0
M  V30 28 C 3.631378 -2.725180 0.108210 0
M  V30 29 H 3.130897 -5.340319 2.905294 0
M  V30 30 H 2.337274 -4.269748 1.735304 0
M  V30 31 H 3.256913 -5.780006 1.192152 0
M  V30 32 H 6.624644 -2.720223 1.731171 0
M  V30 33 H 6.982570 -0.816672 0.195987 0
M  V30 34 H 5.261207 -0.152599 -1.343371 0
M  V30 35 H 2.186102 -1.995706 -2.027689 0
M  V30 36 H 3.360419 -0.761559 -2.653560 0
M  V30 37 H 3.423592 1.514019 -1.775033 0
M  V30 38 H -2.793313 4.051729 1.555973 0
M  V30 39 H -4.834992 4.653661 2.626102 0
M  V30 40 H -7.003482 0.378376 3.258861 0
M  V30 41 H -5.828177 -1.738829 2.461282 0
M  V30 42 H -3.583685 -1.083736 1.419848 0
M  V30 43 H -1.688296 -0.499248 0.544002 0
M  V30 44 H 2.683620 -3.206050 0.029423 0
M  V30 END ATOM
M  V30 BEGIN BOND
M  V30 1 1 1 2
M  V30 2 1 2 3
M  V30 3 2 3 4
M  V30 4 1 4 5
M  V30 5 2 5 6
M  V30 6 1 6 7
M  V30 7 1 7 8
M  V30 8 1 8 9
M  V30 9 1 9 10
M  V30 10 2 10 11
M  V30 11 1 11 12
M  V30 12 1 12 13
M  V30 13 1 13 14
M  V30 14 1 14 15
M  V30 15 2 15 16
M  V30 16 1 16 17
M  V30 17 2 17 18
M  V30 18 1 18 19
M  V30 19 1 19 20
M  V30 20 1 20 21
M  V30 21 2 21 22
M  V30 22 1 22 23
M  V30 23 2 14 24
M  V30 24 1 24 25
M  V30 25 1 25 26
M  V30 26 2 26 27
M  V30 27 2 7 28
M  V30 28 1 28 3
M  V30 29 1 26 9
M  V30 30 2 25 12
M  V30 31 1 23 15
M  V30 32 2 23 19
M  V30 33 1 1 29
M  V30 34 1 1 30
M  V30 35 1 1 31
M  V30 36 1 4 32
M  V30 37 1 5 33
M  V30 38 1 6 34
M  V30 39 1 8 35
M  V30 40 1 8 36
M  V30 41 1 10 37
M  V30 42 1 16 38
M  V30 43 1 17 39
M  V30 44 1 20 40
M  V30 45 1 21 41
M  V30 46 1 22 42
M  V30 47 1 24 43
M  V30 48 1 28 44
M  V30 END BOND
M  V30 END CTAB
M  END
>  <Dataset>  (560) 
ChEMBL_Kinases

>  <Ligand_Instance>  (560) 
nan

>  <PDB_ID>  (560) 
nan

>  <Standardized_SMILES>  (560) 
COc1cccc(Cn2cnc3sc(-c4ccnc5[nH]ccc45)cc3c2=O)c1

>  <Name>  (560) 
nan

>  <Pocket>  (560) 
nan

>  <ATP_Site>  (560) 
nan

>  <Peripheral>  (560) 
nan

>  <Num_H_Atoms_ProtBoundConf>  (560) 
nan

>  <Num_Resolved_Atoms>  (560) 
nan

>  <Num_Not_Resolved_Atoms>  (560) 
nan

$$$$
CHEMBL4642165
     RDKit          3D

  0  0  0  0  0  0  0  0  0  0999 V3000
M  V30 BEGIN CTAB
M  V30 COUNTS 57 60 0 0 0
M  V30 BEGIN ATOM
M  V30 1 C -0.200455 -5.480994 2.857265 0
M  V30 2 O 0.606259 -5.918122 1.799139 0
M  V30 3 C 1.387266 -5.101807 0.989496 0
M  V30 4 C 1.446995 -3.721464 1.146103 0
M  V30 5 C 2.235219 -2.959966 0.323733 0
M  V30 6 C 2.380072 -1.502443 0.395660 0
M  V30 7 C 3.648356 -0.964615 0.427462 0
M  V30 8 N 3.983770 0.330962 0.511038 0
M  V30 9 C 2.981055 1.262790 0.575366 0
M  V30 10 C 1.674775 0.796694 0.548588 0
M  V30 11 C 0.472728 1.627610 0.589150 0
M  V30 12 C -0.440422 1.418695 -0.427457 0
M  V30 13 C -1.614990 2.150925 -0.437118 0
M  V30 14 C -1.811396 3.057723 0.579791 0
M  V30 15 N -3.014907 3.817654 0.567756 0
M  V30 16 C -3.640706 4.528709 1.662706 0
M  V30 17 C -4.854799 3.739727 2.080748 0
M  V30 18 N -5.193860 2.809824 1.025615 0
M  V30 19 C -5.246976 3.491808 -0.260169 0
M  V30 20 C -3.870666 4.046142 -0.613752 0
M  V30 21 C -0.918928 3.287503 1.605349 0
M  V30 22 C 0.277335 2.550029 1.624364 0
M  V30 23 C 1.356506 -0.548028 0.460744 0
M  V30 24 Cl -0.272705 -1.213164 0.422231 0
M  V30 25 C 2.986676 -3.528664 -0.676498 0
M  V30 26 C 2.887274 -4.894182 -0.783006 0
M  V30 27 O 3.626268 -5.556979 -1.785203 0
M  V30 28 C 4.458910 -4.839918 -2.667974 0
M  V30 29 C 2.115616 -5.777896 0.001184 0
M  V30 30 O 2.126006 -7.130118 -0.230936 0
M  V30 31 C 1.301906 -7.843871 -1.104692 0
M  V30 32 H -0.096773 -6.234350 3.691244 0
M  V30 33 H 0.268809 -4.553976 3.262352 0
M  V30 34 H -1.248725 -5.268315 2.595668 0
M  V30 35 H 0.879921 -3.217973 1.908253 0
M  V30 36 H 4.524023 -1.615129 0.385538 0
M  V30 37 H 3.000240 2.340766 0.647983 0
M  V30 38 H -0.272647 0.701684 -1.234183 0
M  V30 39 H -2.303163 1.968473 -1.232304 0
M  V30 40 H -3.931671 5.566655 1.387069 0
M  V30 41 H -2.951547 4.607274 2.559894 0
M  V30 42 H -5.711026 4.398143 2.349551 0
M  V30 43 H -4.589800 3.083625 2.959465 0
M  V30 44 H -6.152007 2.437217 1.218741 0
M  V30 45 H -5.526838 2.747573 -1.025188 0
M  V30 46 H -6.004658 4.283137 -0.204495 0
M  V30 47 H -4.004369 5.131922 -0.812381 0
M  V30 48 H -3.520744 3.545057 -1.507366 0
M  V30 49 H -1.030053 3.985790 2.414965 0
M  V30 50 H 1.020576 2.681500 2.401670 0
M  V30 51 H 3.624718 -3.045169 -1.361245 0
M  V30 52 H 3.892537 -3.994351 -3.133333 0
M  V30 53 H 4.811670 -5.455198 -3.503017 0
M  V30 54 H 5.314447 -4.339719 -2.152347 0
M  V30 55 H 0.341007 -8.129421 -0.634120 0
M  V30 56 H 1.090068 -7.268556 -2.053397 0
M  V30 57 H 1.765842 -8.804973 -1.444608 0
M  V30 END ATOM
M  V30 BEGIN BOND
M  V30 1 1 1 2
M  V30 2 1 2 3
M  V30 3 2 3 4
M  V30 4 1 4 5
M  V30 5 1 5 6
M  V30 6 2 6 7
M  V30 7 1 7 8
M  V30 8 2 8 9
M  V30 9 1 9 10
M  V30 10 1 10 11
M  V30 11 2 11 12
M  V30 12 1 12 13
M  V30 13 2 13 14
M  V30 14 1 14 15
M  V30 15 1 15 16
M  V30 16 1 16 17
M  V30 17 1 17 18
M  V30 18 1 18 19
M  V30 19 1 19 20
M  V30 20 1 14 21
M  V30 21 2 21 22
M  V30 22 2 10 23
M  V30 23 1 23 24
M  V30 24 2 5 25
M  V30 25 1 25 26
M  V30 26 1 26 27
M  V30 27 1 27 28
M  V30 28 2 26 29
M  V30 29 1 29 30
M  V30 30 1 30 31
M  V30 31 1 29 3
M  V30 32 1 23 6
M  V30 33 1 22 11
M  V30 34 1 20 15
M  V30 35 1 1 32
M  V30 36 1 1 33
M  V30 37 1 1 34
M  V30 38 1 4 35
M  V30 39 1 7 36
M  V30 40 1 9 37
M  V30 41 1 12 38
M  V30 42 1 13 39
M  V30 43 1 16 40
M  V30 44 1 16 41
M  V30 45 1 17 42
M  V30 46 1 17 43
M  V30 47 1 18 44
M  V30 48 1 19 45
M  V30 49 1 19 46
M  V30 50 1 20 47
M  V30 51 1 20 48
M  V30 52 1 21 49
M  V30 53 1 22 50
M  V30 54 1 25 51
M  V30 55 1 28 52
M  V30 56 1 28 53
M  V30 57 1 28 54
M  V30 58 1 31 55
M  V30 59 1 31 56
M  V30 60 1 31 57
M  V30 END BOND
M  V30 END CTAB
M  END
>  <Dataset>  (561) 
ChEMBL_Kinases

>  <Ligand_Instance>  (561) 
nan

>  <PDB_ID>  (561) 
nan

>  <Standardized_SMILES>  (561) 
COc1cc(-c2cncc(-c3ccc(N4CCNCC4)cc3)c2Cl)cc(OC)c1OC

>  <Name>  (561) 
nan

>  <Pocket>  (561) 
nan

>  <ATP_Site>  (561) 
nan

>  <Peripheral>  (561) 
nan

>  <Num_H_Atoms_ProtBoundConf>  (561) 
nan

>  <Num_Resolved_Atoms>  (561) 
nan

>  <Num_Not_Resolved_Atoms>  (561) 
nan

$$$$
CHEMBL595583
     RDKit          3D

  0  0  0  0  0  0  0  0  0  0999 V3000
M  V30 BEGIN CTAB
M  V30 COUNTS 58 59 0 0 0
M  V30 BEGIN ATOM
M  V30 1 C 1.787365 -1.108168 6.558730 0
M  V30 2 C 1.480237 -1.431029 5.127256 0
M  V30 3 C 2.777166 -1.474112 4.318668 0
M  V30 4 C 2.434007 -1.809337 2.870260 0
M  V30 5 C 3.690531 -1.864081 2.054250 0
M  V30 6 C 3.464784 -2.200704 0.614138 0
M  V30 7 C 2.571454 -1.152060 -0.015295 0
M  V30 8 C 3.164546 0.234083 0.036186 0
M  V30 9 C 2.210235 1.216829 -0.597193 0
M  V30 10 C 1.878808 0.945011 -2.027637 0
M  V30 11 C 0.928718 1.988250 -2.545460 0
M  V30 12 C -0.381328 2.078061 -1.854283 0
M  V30 13 C -1.228377 0.882754 -1.891357 0
M  V30 14 C -1.299231 -0.172816 -1.007532 0
M  V30 15 C -2.171203 -1.221551 -1.202116 0
M  V30 16 C -3.028960 -1.324659 -2.253578 0
M  V30 17 S -4.149760 -2.608601 -2.521402 0
M  V30 18 O -3.648595 -3.827789 -1.760391 0
M  V30 19 O -4.250834 -3.027593 -3.944338 0
M  V30 20 N -5.718365 -2.280535 -1.947676 0
M  V30 21 C -6.175486 -2.017003 -0.625305 0
M  V30 22 N -7.237825 -1.748179 0.054754 0
M  V30 23 N -7.154696 -1.579186 1.318349 0
M  V30 24 C -6.239637 -1.628166 1.997961 0
M  V30 25 S -4.864033 -2.030037 0.749959 0
M  V30 26 C -2.975211 -0.269649 -3.161096 0
M  V30 27 C -2.109091 0.782466 -2.977982 0
M  V30 28 H 2.855876 -1.193765 6.744886 0
M  V30 29 H 1.419815 -0.067241 6.775987 0
M  V30 30 H 1.285621 -1.810697 7.267854 0
M  V30 31 H 0.752203 -0.749936 4.654305 0
M  V30 32 H 1.026047 -2.455448 5.054070 0
M  V30 33 H 3.442921 -2.276666 4.683323 0
M  V30 34 H 3.291572 -0.514208 4.358448 0
M  V30 35 H 1.785196 -0.987407 2.456477 0
M  V30 36 H 1.834172 -2.734251 2.814377 0
M  V30 37 H 4.349865 -2.635982 2.558724 0
M  V30 38 H 4.214283 -0.894331 2.134948 0
M  V30 39 H 3.009637 -3.184117 0.458057 0
M  V30 40 H 4.435137 -2.151542 0.074334 0
M  V30 41 H 2.425682 -1.430103 -1.088286 0
M  V30 42 H 1.578761 -1.225549 0.470252 0
M  V30 43 H 3.322723 0.583159 1.076052 0
M  V30 44 H 4.136022 0.190087 -0.499223 0
M  V30 45 H 1.294657 1.223285 0.035160 0
M  V30 46 H 2.681405 2.243846 -0.553831 0
M  V30 47 H 2.837121 1.106485 -2.601136 0
M  V30 48 H 1.575425 -0.075574 -2.269687 0
M  V30 49 H 0.838996 1.917370 -3.648132 0
M  V30 50 H 1.456021 2.973699 -2.383289 0
M  V30 51 H -0.241992 2.458199 -0.796213 0
M  V30 52 H -0.932809 2.936259 -2.338722 0
M  V30 53 H -0.632600 -0.118203 -0.162574 0
M  V30 54 H -2.153824 -2.004362 -0.465632 0
M  V30 55 H -6.575485 -2.234194 -2.554384 0
M  V30 56 H -5.552069 -1.578742 3.050866 0
M  V30 57 H -3.635549 -0.272803 -4.041932 0
M  V30 58 H -2.135439 1.572680 -3.745683 0
M  V30 END ATOM
M  V30 BEGIN BOND
M  V30 1 1 1 2
M  V30 2 1 2 3
M  V30 3 1 3 4
M  V30 4 1 4 5
M  V30 5 1 5 6
M  V30 6 1 6 7
M  V30 7 1 7 8
M  V30 8 1 8 9
M  V30 9 1 9 10
M  V30 10 1 10 11
M  V30 11 1 11 12
M  V30 12 1 12 13
M  V30 13 2 13 14
M  V30 14 1 14 15
M  V30 15 2 15 16
M  V30 16 1 16 17
M  V30 17 2 17 18
M  V30 18 2 17 19
M  V30 19 1 17 20
M  V30 20 1 20 21
M  V30 21 2 21 22
M  V30 22 1 22 23
M  V30 23 2 23 24
M  V30 24 1 24 25
M  V30 25 1 16 26
M  V30 26 2 26 27
M  V30 27 1 27 13
M  V30 28 1 25 21
M  V30 29 1 1 28
M  V30 30 1 1 29
M  V30 31 1 1 30
M  V30 32 1 2 31
M  V30 33 1 2 32
M  V30 34 1 3 33
M  V30 35 1 3 34
M  V30 36 1 4 35
M  V30 37 1 4 36
M  V30 38 1 5 37
M  V30 39 1 5 38
M  V30 40 1 6 39
M  V30 41 1 6 40
M  V30 42 1 7 41
M  V30 43 1 7 42
M  V30 44 1 8 43
M  V30 45 1 8 44
M  V30 46 1 9 45
M  V30 47 1 9 46
M  V30 48 1 10 47
M  V30 49 1 10 48
M  V30 50 1 11 49
M  V30 51 1 11 50
M  V30 52 1 12 51
M  V30 53 1 12 52
M  V30 54 1 14 53
M  V30 55 1 15 54
M  V30 56 1 20 55
M  V30 57 1 24 56
M  V30 58 1 26 57
M  V30 59 1 27 58
M  V30 END BOND
M  V30 END CTAB
M  END
>  <Dataset>  (562) 
ChEMBL_Kinases

>  <Ligand_Instance>  (562) 
nan

>  <PDB_ID>  (562) 
nan

>  <Standardized_SMILES>  (562) 
CCCCCCCCCCCCc1ccc(S(=O)(=O)Nc2nncs2)cc1

>  <Name>  (562) 
nan

>  <Pocket>  (562) 
nan

>  <ATP_Site>  (562) 
nan

>  <Peripheral>  (562) 
nan

>  <Num_H_Atoms_ProtBoundConf>  (562) 
nan

>  <Num_Resolved_Atoms>  (562) 
nan

>  <Num_Not_Resolved_Atoms>  (562) 
nan

$$$$
CHEMBL4641760
     RDKit          3D

  0  0  0  0  0  0  0  0  0  0999 V3000
M  V30 BEGIN CTAB
M  V30 COUNTS 47 51 0 0 0
M  V30 BEGIN ATOM
M  V30 1 C 0.622427 -6.464638 2.584341 0
M  V30 2 O 1.854656 -6.085094 3.146290 0
M  V30 3 C 2.733596 -5.166007 2.575773 0
M  V30 4 C 3.914934 -4.875663 3.225533 0
M  V30 5 C 4.775496 -3.964386 2.650427 0
M  V30 6 C 4.419100 -3.382633 1.451335 0
M  V30 7 C 3.225200 -3.666123 0.779504 0
M  V30 8 C 2.992375 -2.943464 -0.514967 0
M  V30 9 N 2.292546 -1.695556 -0.312901 0
M  V30 10 C 2.863445 -0.493530 -0.081856 0
M  V30 11 N 2.142431 0.630554 0.098969 0
M  V30 12 C 0.797124 0.643565 0.063564 0
M  V30 13 C 0.068651 1.799917 0.251166 0
M  V30 14 C -1.309454 1.739411 0.202987 0
M  V30 15 C -2.197591 2.883571 0.386294 0
M  V30 16 C -1.699819 3.836770 1.250776 0
M  V30 17 C -2.464626 4.965720 1.499214 0
M  V30 18 C -3.704822 5.121295 0.883831 0
M  V30 19 N -4.673814 6.074212 0.909192 0
M  V30 20 N -5.665075 5.709603 0.120268 0
M  V30 21 C -5.420636 4.522928 -0.461659 0
M  V30 22 C -4.166075 4.126794 0.015125 0
M  V30 23 C -3.412305 2.979785 -0.250885 0
M  V30 24 C -1.981037 0.539466 -0.030416 0
M  V30 25 C -1.217496 -0.596566 -0.213541 0
M  V30 26 C 0.166642 -0.562064 -0.169948 0
M  V30 27 C 0.926857 -1.699026 -0.352110 0
M  V30 28 O 0.261376 -2.749621 -0.559041 0
M  V30 29 C 2.379704 -4.578117 1.369615 0
M  V30 30 H -0.038150 -6.843239 3.419580 0
M  V30 31 H 0.146827 -5.521666 2.203491 0
M  V30 32 H 0.694907 -7.210821 1.780640 0
M  V30 33 H 4.188842 -5.338414 4.171742 0
M  V30 34 H 5.719099 -3.707638 3.132913 0
M  V30 35 H 5.139355 -2.664598 1.036795 0
M  V30 36 H 2.366099 -3.574627 -1.200205 0
M  V30 37 H 3.943150 -2.752578 -1.026766 0
M  V30 38 H 3.951378 -0.489688 -0.050882 0
M  V30 39 H 0.534947 2.738278 0.431454 0
M  V30 40 H -0.749527 3.776023 1.756997 0
M  V30 41 H -2.160872 5.770487 2.162618 0
M  V30 42 H -4.552975 6.927123 1.497061 0
M  V30 43 H -6.051427 3.973322 -1.156519 0
M  V30 44 H -3.753889 2.203942 -0.918702 0
M  V30 45 H -3.055054 0.458737 -0.074105 0
M  V30 46 H -1.720923 -1.556066 -0.398893 0
M  V30 47 H 1.464493 -4.783948 0.837498 0
M  V30 END ATOM
M  V30 BEGIN BOND
M  V30 1 1 1 2
M  V30 2 1 2 3
M  V30 3 2 3 4
M  V30 4 1 4 5
M  V30 5 2 5 6
M  V30 6 1 6 7
M  V30 7 1 7 8
M  V30 8 1 8 9
M  V30 9 1 9 10
M  V30 10 2 10 11
M  V30 11 1 11 12
M  V30 12 2 12 13
M  V30 13 1 13 14
M  V30 14 1 14 15
M  V30 15 2 15 16
M  V30 16 1 16 17
M  V30 17 2 17 18
M  V30 18 1 18 19
M  V30 19 1 19 20
M  V30 20 2 20 21
M  V30 21 1 21 22
M  V30 22 2 22 23
M  V30 23 2 14 24
M  V30 24 1 24 25
M  V30 25 2 25 26
M  V30 26 1 26 27
M  V30 27 2 27 28
M  V30 28 2 7 29
M  V30 29 1 29 3
M  V30 30 1 27 9
M  V30 31 1 26 12
M  V30 32 1 23 15
M  V30 33 1 22 18
M  V30 34 1 1 30
M  V30 35 1 1 31
M  V30 36 1 1 32
M  V30 37 1 4 33
M  V30 38 1 5 34
M  V30 39 1 6 35
M  V30 40 1 8 36
M  V30 41 1 8 37
M  V30 42 1 10 38
M  V30 43 1 13 39
M  V30 44 1 16 40
M  V30 45 1 17 41
M  V30 46 1 19 42
M  V30 47 1 21 43
M  V30 48 1 23 44
M  V30 49 1 24 45
M  V30 50 1 25 46
M  V30 51 1 29 47
M  V30 END BOND
M  V30 END CTAB
M  END
>  <Dataset>  (563) 
ChEMBL_Kinases

>  <Ligand_Instance>  (563) 
nan

>  <PDB_ID>  (563) 
nan

>  <Standardized_SMILES>  (563) 
COc1cccc(Cn2cnc3cc(-c4ccc5[nH]ncc5c4)ccc3c2=O)c1

>  <Name>  (563) 
nan

>  <Pocket>  (563) 
nan

>  <ATP_Site>  (563) 
nan

>  <Peripheral>  (563) 
nan

>  <Num_H_Atoms_ProtBoundConf>  (563) 
nan

>  <Num_Resolved_Atoms>  (563) 
nan

>  <Num_Not_Resolved_Atoms>  (563) 
nan

$$$$
CHEMBL595730
     RDKit          3D

  0  0  0  0  0  0  0  0  0  0999 V3000
M  V30 BEGIN CTAB
M  V30 COUNTS 15 16 0 0 0
M  V30 BEGIN ATOM
M  V30 1 I -1.567586 -2.928015 1.852414 0
M  V30 2 C -0.126809 -1.463192 1.443874 0
M  V30 3 C 1.180221 -1.776401 1.173551 0
M  V30 4 I 1.783437 -3.790787 1.163000 0
M  V30 5 C 2.110423 -0.809472 0.908493 0
M  V30 6 I 4.107548 -1.351589 0.499329 0
M  V30 7 C 1.763116 0.520097 0.904201 0
M  V30 8 N 2.447484 1.645169 0.683928 0
M  V30 9 C 1.560367 2.622745 0.820680 0
M  V30 10 N 0.326953 2.165030 1.121784 0
M  V30 11 C 0.428350 0.831687 1.180764 0
M  V30 12 C -0.507618 -0.156929 1.448423 0
M  V30 13 I -2.472408 0.424411 1.848038 0
M  V30 14 H 3.466976 1.689863 0.455425 0
M  V30 15 H 1.790307 3.676222 0.705416 0
M  V30 END ATOM
M  V30 BEGIN BOND
M  V30 1 1 1 2
M  V30 2 2 2 3
M  V30 3 1 3 4
M  V30 4 1 3 5
M  V30 5 1 5 6
M  V30 6 2 5 7
M  V30 7 1 7 8
M  V30 8 1 8 9
M  V30 9 2 9 10
M  V30 10 1 10 11
M  V30 11 2 11 12
M  V30 12 1 12 13
M  V30 13 1 12 2
M  V30 14 1 11 7
M  V30 15 1 8 14
M  V30 16 1 9 15
M  V30 END BOND
M  V30 END CTAB
M  END
>  <Dataset>  (564) 
ChEMBL_Kinases

>  <Ligand_Instance>  (564) 
nan

>  <PDB_ID>  (564) 
nan

>  <Standardized_SMILES>  (564) 
Ic1c(I)c(I)c2[nH]cnc2c1I

>  <Name>  (564) 
nan

>  <Pocket>  (564) 
nan

>  <ATP_Site>  (564) 
nan

>  <Peripheral>  (564) 
nan

>  <Num_H_Atoms_ProtBoundConf>  (564) 
nan

>  <Num_Resolved_Atoms>  (564) 
nan

>  <Num_Not_Resolved_Atoms>  (564) 
nan

$$$$
CHEMBL212659
     RDKit          3D

  0  0  0  0  0  0  0  0  0  0999 V3000
M  V30 BEGIN CTAB
M  V30 COUNTS 40 44 0 0 0
M  V30 BEGIN ATOM
M  V30 1 O 2.405700 2.417858 1.374508 0
M  V30 2 C 1.958480 1.350240 1.836896 0
M  V30 3 N 2.118671 0.800216 3.160682 0
M  V30 4 C 1.431313 -0.436203 3.225285 0
M  V30 5 O 1.491109 -1.014773 4.315631 0
M  V30 6 C 0.812555 -0.723502 1.964499 0
M  V30 7 C 1.137802 0.343062 1.164799 0
M  V30 8 C 0.693412 0.396628 -0.155840 0
M  V30 9 C 1.011954 1.501978 -1.036083 0
M  V30 10 C 2.186683 1.379138 -1.786912 0
M  V30 11 C 2.573104 2.393067 -2.660397 0
M  V30 12 C 1.813597 3.551237 -2.815965 0
M  V30 13 C 0.663404 3.636318 -2.059906 0
M  V30 14 C 0.256770 2.646890 -1.186808 0
M  V30 15 C -0.983241 2.765492 -0.387773 0
M  V30 16 F -1.883153 1.760902 -0.650000 0
M  V30 17 F -0.697415 2.903135 0.957039 0
M  V30 18 F -1.643685 3.949869 -0.738040 0
M  V30 19 C -0.076814 -0.639735 -0.641118 0
M  V30 20 C -0.391751 -1.701956 0.180284 0
M  V30 21 N -1.111923 -2.814922 -0.043549 0
M  V30 22 C -1.107345 -3.534240 1.118140 0
M  V30 23 C -1.726319 -4.751754 1.342531 0
M  V30 24 C -1.636770 -5.367183 2.574394 0
M  V30 25 C -0.905710 -4.725660 3.581515 0
M  V30 26 O -0.808451 -5.335224 4.825436 0
M  V30 27 C -0.320422 -3.518627 3.280248 0
M  V30 28 C -0.380527 -2.873674 2.083055 0
M  V30 29 C 0.056206 -1.734989 1.478054 0
M  V30 30 H 2.688672 1.351786 3.863854 0
M  V30 31 H 2.867528 0.515390 -1.751121 0
M  V30 32 H 3.471140 2.355514 -3.267861 0
M  V30 33 H 2.090431 4.351519 -3.485640 0
M  V30 34 H -0.011468 4.505142 -2.102899 0
M  V30 35 H -0.421471 -0.596105 -1.668673 0
M  V30 36 H -1.575351 -3.052164 -0.952611 0
M  V30 37 H -2.287660 -5.236377 0.556482 0
M  V30 38 H -2.135306 -6.316292 2.704748 0
M  V30 39 H -1.634558 -5.252948 5.415214 0
M  V30 40 H 0.214290 -3.097499 4.093729 0
M  V30 END ATOM
M  V30 BEGIN BOND
M  V30 1 2 1 2
M  V30 2 1 2 3
M  V30 3 1 3 4
M  V30 4 2 4 5
M  V30 5 1 4 6
M  V30 6 2 6 7
M  V30 7 1 7 8
M  V30 8 1 8 9
M  V30 9 2 9 10
M  V30 10 1 10 11
M  V30 11 2 11 12
M  V30 12 1 12 13
M  V30 13 2 13 14
M  V30 14 1 14 15
M  V30 15 1 15 16
M  V30 16 1 15 17
M  V30 17 1 15 18
M  V30 18 2 8 19
M  V30 19 1 19 20
M  V30 20 1 20 21
M  V30 21 1 21 22
M  V30 22 2 22 23
M  V30 23 1 23 24
M  V30 24 2 24 25
M  V30 25 1 25 26
M  V30 26 1 25 27
M  V30 27 2 27 28
M  V30 28 1 28 29
M  V30 29 1 7 2
M  V30 30 1 14 9
M  V30 31 2 29 20
M  V30 32 1 29 6
M  V30 33 1 28 22
M  V30 34 1 3 30
M  V30 35 1 10 31
M  V30 36 1 11 32
M  V30 37 1 12 33
M  V30 38 1 13 34
M  V30 39 1 19 35
M  V30 40 1 21 36
M  V30 41 1 23 37
M  V30 42 1 24 38
M  V30 43 1 26 39
M  V30 44 1 27 40
M  V30 END BOND
M  V30 END CTAB
M  END
>  <Dataset>  (565) 
ChEMBL_Kinases

>  <Ligand_Instance>  (565) 
nan

>  <PDB_ID>  (565) 
nan

>  <Standardized_SMILES>  (565) 
O=C1NC(=O)c2c1c(-c1ccccc1C(F)(F)F)cc1[nH]c3ccc(O)cc3c21

>  <Name>  (565) 
nan

>  <Pocket>  (565) 
nan

>  <ATP_Site>  (565) 
nan

>  <Peripheral>  (565) 
nan

>  <Num_H_Atoms_ProtBoundConf>  (565) 
nan

>  <Num_Resolved_Atoms>  (565) 
nan

>  <Num_Not_Resolved_Atoms>  (565) 
nan

$$$$
CHEMBL81277
     RDKit          3D

  0  0  0  0  0  0  0  0  0  0999 V3000
M  V30 BEGIN CTAB
M  V30 COUNTS 51 53 0 0 0
M  V30 BEGIN ATOM
M  V30 1 C 1.551664 0.705364 7.073045 0
M  V30 2 C 2.276479 0.145138 5.903827 0
M  V30 3 O 1.616877 -0.648176 5.161777 0
M  V30 4 N 3.626353 0.386297 5.506535 0
M  V30 5 C 3.861702 -0.384368 4.310565 0
M  V30 6 C 4.332690 -1.675263 4.381294 0
M  V30 7 C 4.524626 -2.325642 3.178036 0
M  V30 8 C 4.249502 -1.686893 1.996621 0
M  V30 9 C 3.769987 -0.373143 1.920979 0
M  V30 10 C 3.550417 0.105432 0.533415 0
M  V30 11 C 2.208229 -0.245841 0.006275 0
M  V30 12 C 0.996453 0.341109 0.280342 0
M  V30 13 C 0.999461 1.477052 1.196922 0
M  V30 14 C -0.117340 -0.186706 -0.339771 0
M  V30 15 C -1.334794 0.400579 -0.063957 0
M  V30 16 C -2.483126 -0.095585 -0.663226 0
M  V30 17 Cl -4.033107 0.676895 -0.292397 0
M  V30 18 C -2.502787 -1.142115 -1.522762 0
M  V30 19 O -3.686348 -1.592471 -2.090769 0
M  V30 20 C -4.203994 -1.133532 -3.280858 0
M  V30 21 O -3.830427 -0.267678 -4.140793 0
M  V30 22 N -5.433004 -1.682119 -3.754200 0
M  V30 23 C -6.023294 -1.232381 -5.005570 0
M  V30 24 C -6.195076 -2.715868 -3.051168 0
M  V30 25 C -1.284773 -1.729015 -1.797833 0
M  V30 26 C -0.125782 -1.253830 -1.213836 0
M  V30 27 O 1.056367 -1.810791 -1.469243 0
M  V30 28 C 2.151820 -1.324997 -0.886126 0
M  V30 29 O 3.148615 -1.995070 -1.265586 0
M  V30 30 C 3.584919 0.258739 3.123680 0
M  V30 31 H 1.966615 1.635769 7.460640 0
M  V30 32 H 0.509366 0.937852 6.720628 0
M  V30 33 H 1.424770 -0.063461 7.873831 0
M  V30 34 H 4.140084 1.050807 6.149490 0
M  V30 35 H 4.530512 -2.124789 5.335582 0
M  V30 36 H 4.894428 -3.337563 3.248307 0
M  V30 37 H 4.443651 -2.306796 1.133204 0
M  V30 38 H 3.736182 1.199877 0.552604 0
M  V30 39 H 4.358510 -0.304735 -0.137747 0
M  V30 40 H 1.985872 2.024696 1.140578 0
M  V30 41 H 0.281253 2.248597 0.783788 0
M  V30 42 H 0.686763 1.262153 2.217605 0
M  V30 43 H -1.447312 1.238941 0.605476 0
M  V30 44 H -5.154563 -0.906943 -5.648841 0
M  V30 45 H -6.595116 -0.312037 -4.773311 0
M  V30 46 H -6.613262 -2.026595 -5.499079 0
M  V30 47 H -5.811205 -2.912196 -2.032340 0
M  V30 48 H -7.287110 -2.467960 -3.058118 0
M  V30 49 H -6.054692 -3.648752 -3.635197 0
M  V30 50 H -1.218050 -2.576012 -2.479615 0
M  V30 51 H 3.218696 1.267320 3.031957 0
M  V30 END ATOM
M  V30 BEGIN BOND
M  V30 1 1 1 2
M  V30 2 2 2 3
M  V30 3 1 2 4
M  V30 4 1 4 5
M  V30 5 2 5 6
M  V30 6 1 6 7
M  V30 7 2 7 8
M  V30 8 1 8 9
M  V30 9 1 9 10
M  V30 10 1 10 11
M  V30 11 2 11 12
M  V30 12 1 12 13
M  V30 13 1 12 14
M  V30 14 2 14 15
M  V30 15 1 15 16
M  V30 16 1 16 17
M  V30 17 2 16 18
M  V30 18 1 18 19
M  V30 19 1 19 20
M  V30 20 2 20 21
M  V30 21 1 20 22
M  V30 22 1 22 23
M  V30 23 1 22 24
M  V30 24 1 18 25
M  V30 25 2 25 26
M  V30 26 1 26 27
M  V30 27 1 27 28
M  V30 28 2 28 29
M  V30 29 2 9 30
M  V30 30 1 30 5
M  V30 31 1 28 11
M  V30 32 1 26 14
M  V30 33 1 1 31
M  V30 34 1 1 32
M  V30 35 1 1 33
M  V30 36 1 4 34
M  V30 37 1 6 35
M  V30 38 1 7 36
M  V30 39 1 8 37
M  V30 40 1 10 38
M  V30 41 1 10 39
M  V30 42 1 13 40
M  V30 43 1 13 41
M  V30 44 1 13 42
M  V30 45 1 15 43
M  V30 46 1 23 44
M  V30 47 1 23 45
M  V30 48 1 23 46
M  V30 49 1 24 47
M  V30 50 1 24 48
M  V30 51 1 24 49
M  V30 52 1 25 50
M  V30 53 1 30 51
M  V30 END BOND
M  V30 END CTAB
M  END
>  <Dataset>  (566) 
ChEMBL_Kinases

>  <Ligand_Instance>  (566) 
nan

>  <PDB_ID>  (566) 
nan

>  <Standardized_SMILES>  (566) 
CC(=O)Nc1cccc(Cc2c(C)c3cc(Cl)c(OC(=O)N(C)C)cc3oc2=O)c1

>  <Name>  (566) 
nan

>  <Pocket>  (566) 
nan

>  <ATP_Site>  (566) 
nan

>  <Peripheral>  (566) 
nan

>  <Num_H_Atoms_ProtBoundConf>  (566) 
nan

>  <Num_Resolved_Atoms>  (566) 
nan

>  <Num_Not_Resolved_Atoms>  (566) 
nan

$$$$
CHEMBL4635777
     RDKit          3D

  0  0  0  0  0  0  0  0  0  0999 V3000
M  V30 BEGIN CTAB
M  V30 COUNTS 31 33 0 0 0
M  V30 BEGIN ATOM
M  V30 1 C -0.166558 -2.149570 4.475216 0
M  V30 2 N -0.021130 -2.440816 3.075036 0
M  V30 3 C 0.913998 -3.156522 2.238273 0
M  V30 4 O 1.863004 -3.664903 2.910906 0
M  V30 5 C 0.609206 -3.168535 0.791716 0
M  V30 6 C 0.519000 -4.315047 0.040465 0
M  V30 7 C 0.219988 -4.114550 -1.286411 0
M  V30 8 C 0.014918 -2.889195 -1.881410 0
M  V30 9 C 0.117779 -1.763081 -1.078790 0
M  V30 10 N -0.020421 -0.431461 -1.344544 0
M  V30 11 C 0.187141 0.246011 -0.198682 0
M  V30 12 C 0.157874 1.706153 0.039464 0
M  V30 13 C 0.383929 2.265010 1.297314 0
M  V30 14 C 0.329054 3.646962 1.327433 0
M  V30 15 N 0.086250 4.465346 0.293735 0
M  V30 16 C -0.136607 3.939809 -0.938050 0
M  V30 17 C -0.093184 2.557270 -1.028304 0
M  V30 18 N 0.451009 -0.641708 0.774619 0
M  V30 19 C 0.415429 -1.904773 0.260244 0
M  V30 20 H -0.129855 -1.037363 4.623857 0
M  V30 21 H -1.172142 -2.526259 4.823177 0
M  V30 22 H 0.642086 -2.593657 5.093995 0
M  V30 23 H -0.837059 -1.985834 2.602983 0
M  V30 24 H 0.679200 -5.256367 0.501710 0
M  V30 25 H 0.131376 -4.968231 -1.945640 0
M  V30 26 H -0.219130 -2.775755 -2.931158 0
M  V30 27 H -0.245110 -0.002485 -2.267427 0
M  V30 28 H 0.573836 1.638295 2.127312 0
M  V30 29 H 0.509903 4.063164 2.331366 0
M  V30 30 H -0.332266 4.572254 -1.776507 0
M  V30 31 H -0.276881 2.161529 -2.036435 0
M  V30 END ATOM
M  V30 BEGIN BOND
M  V30 1 1 1 2
M  V30 2 1 2 3
M  V30 3 2 3 4
M  V30 4 1 3 5
M  V30 5 2 5 6
M  V30 6 1 6 7
M  V30 7 2 7 8
M  V30 8 1 8 9
M  V30 9 1 9 10
M  V30 10 1 10 11
M  V30 11 1 11 12
M  V30 12 2 12 13
M  V30 13 1 13 14
M  V30 14 2 14 15
M  V30 15 1 15 16
M  V30 16 2 16 17
M  V30 17 2 11 18
M  V30 18 1 18 19
M  V30 19 1 19 5
M  V30 20 2 19 9
M  V30 21 1 17 12
M  V30 22 1 1 20
M  V30 23 1 1 21
M  V30 24 1 1 22
M  V30 25 1 2 23
M  V30 26 1 6 24
M  V30 27 1 7 25
M  V30 28 1 8 26
M  V30 29 1 10 27
M  V30 30 1 13 28
M  V30 31 1 14 29
M  V30 32 1 16 30
M  V30 33 1 17 31
M  V30 END BOND
M  V30 END CTAB
M  END
>  <Dataset>  (567) 
ChEMBL_Kinases

>  <Ligand_Instance>  (567) 
nan

>  <PDB_ID>  (567) 
nan

>  <Standardized_SMILES>  (567) 
CNC(=O)c1cccc2[nH]c(-c3ccncc3)nc12

>  <Name>  (567) 
nan

>  <Pocket>  (567) 
nan

>  <ATP_Site>  (567) 
nan

>  <Peripheral>  (567) 
nan

>  <Num_H_Atoms_ProtBoundConf>  (567) 
nan

>  <Num_Resolved_Atoms>  (567) 
nan

>  <Num_Not_Resolved_Atoms>  (567) 
nan

$$$$
CHEMBL212797
     RDKit          3D

  0  0  0  0  0  0  0  0  0  0999 V3000
M  V30 BEGIN CTAB
M  V30 COUNTS 39 43 0 0 0
M  V30 BEGIN ATOM
M  V30 1 N 1.131275 -5.088005 3.940471 0
M  V30 2 C 0.379505 -3.884768 4.016166 0
M  V30 3 C -0.355718 -3.586075 5.136795 0
M  V30 4 C -1.078257 -2.414887 5.192565 0
M  V30 5 C -1.078104 -1.531063 4.139335 0
M  V30 6 C -0.359864 -1.776600 2.988327 0
M  V30 7 C -0.251121 -0.977331 1.781494 0
M  V30 8 C 1.081870 -0.744007 1.422734 0
M  V30 9 C 1.384093 0.015190 0.312580 0
M  V30 10 N 2.569722 0.383163 -0.239694 0
M  V30 11 C 2.266139 1.126615 -1.318198 0
M  V30 12 C 3.176875 1.711164 -2.181898 0
M  V30 13 C 2.741618 2.454317 -3.257947 0
M  V30 14 C 1.361836 2.597131 -3.446820 0
M  V30 15 O 0.914097 3.343896 -4.527942 0
M  V30 16 C 0.526062 1.983917 -2.542420 0
M  V30 17 C 0.903713 1.240666 -1.465467 0
M  V30 18 C 0.353771 0.538115 -0.434784 0
M  V30 19 C -0.934338 0.324112 -0.105688 0
M  V30 20 C -1.243665 -0.423381 0.987356 0
M  V30 21 C -2.675672 -0.568965 1.206122 0
M  V30 22 O -3.296423 -1.186471 2.108048 0
M  V30 23 N -3.251043 0.181280 0.114852 0
M  V30 24 C -2.196216 0.708710 -0.659910 0
M  V30 25 O -2.544249 1.381542 -1.639352 0
M  V30 26 C 0.351830 -2.981066 2.994596 0
M  V30 27 H 1.295512 -5.748527 3.153122 0
M  V30 28 H 1.639206 -5.426980 4.808109 0
M  V30 29 H -0.395388 -4.239660 5.995065 0
M  V30 30 H -1.671890 -2.147033 6.065625 0
M  V30 31 H -1.621777 -0.597428 4.142293 0
M  V30 32 H 1.939691 -1.129928 1.972676 0
M  V30 33 H 3.518917 0.123255 0.125691 0
M  V30 34 H 4.243118 1.613624 -2.054609 0
M  V30 35 H 3.432161 2.920323 -3.946019 0
M  V30 36 H 0.183202 4.045062 -4.430579 0
M  V30 37 H -0.501063 2.141916 -2.757813 0
M  V30 38 H -4.308527 0.240415 0.034093 0
M  V30 39 H 0.956064 -3.263039 2.117139 0
M  V30 END ATOM
M  V30 BEGIN BOND
M  V30 1 1 1 2
M  V30 2 2 2 3
M  V30 3 1 3 4
M  V30 4 2 4 5
M  V30 5 1 5 6
M  V30 6 1 6 7
M  V30 7 2 7 8
M  V30 8 1 8 9
M  V30 9 1 9 10
M  V30 10 1 10 11
M  V30 11 2 11 12
M  V30 12 1 12 13
M  V30 13 2 13 14
M  V30 14 1 14 15
M  V30 15 1 14 16
M  V30 16 2 16 17
M  V30 17 1 17 18
M  V30 18 1 18 19
M  V30 19 2 19 20
M  V30 20 1 20 21
M  V30 21 2 21 22
M  V30 22 1 21 23
M  V30 23 1 23 24
M  V30 24 2 24 25
M  V30 25 2 6 26
M  V30 26 1 26 2
M  V30 27 1 20 7
M  V30 28 2 18 9
M  V30 29 1 24 19
M  V30 30 1 17 11
M  V30 31 1 1 27
M  V30 32 1 1 28
M  V30 33 1 3 29
M  V30 34 1 4 30
M  V30 35 1 5 31
M  V30 36 1 8 32
M  V30 37 1 10 33
M  V30 38 1 12 34
M  V30 39 1 13 35
M  V30 40 1 15 36
M  V30 41 1 16 37
M  V30 42 1 23 38
M  V30 43 1 26 39
M  V30 END BOND
M  V30 END CTAB
M  END
>  <Dataset>  (568) 
ChEMBL_Kinases

>  <Ligand_Instance>  (568) 
nan

>  <PDB_ID>  (568) 
nan

>  <Standardized_SMILES>  (568) 
Nc1cccc(-c2cc3[nH]c4ccc(O)cc4c3c3c2C(=O)NC3=O)c1

>  <Name>  (568) 
nan

>  <Pocket>  (568) 
nan

>  <ATP_Site>  (568) 
nan

>  <Peripheral>  (568) 
nan

>  <Num_H_Atoms_ProtBoundConf>  (568) 
nan

>  <Num_Resolved_Atoms>  (568) 
nan

>  <Num_Not_Resolved_Atoms>  (568) 
nan

$$$$
CHEMBL589578
     RDKit          3D

  0  0  0  0  0  0  0  0  0  0999 V3000
M  V30 BEGIN CTAB
M  V30 COUNTS 44 46 0 0 0
M  V30 BEGIN ATOM
M  V30 1 C 1.404976 -3.295905 3.467470 0
M  V30 2 N 0.864633 -2.082589 2.886395 0
M  V30 3 C 1.407963 -1.589382 1.673502 0
M  V30 4 N 2.377671 -2.316996 1.096170 0
M  V30 5 C 2.932901 -1.967942 -0.072242 0
M  V30 6 C 2.454659 -0.818072 -0.653500 0
M  V30 7 C 2.974169 -0.332857 -1.921813 0
M  V30 8 C 2.443107 0.840437 -2.453958 0
M  V30 9 C 2.862166 1.399224 -3.659900 0
M  V30 10 N 3.830982 0.787164 -4.362876 0
M  V30 11 C 4.358332 -0.347060 -3.868252 0
M  V30 12 C 3.957578 -0.930348 -2.661416 0
M  V30 13 N 1.488058 -0.106943 -0.061161 0
M  V30 14 C 0.916808 -0.435453 1.109698 0
M  V30 15 N -0.051102 0.437662 1.654555 0
M  V30 16 C -0.754804 1.140901 0.558584 0
M  V30 17 C -1.639627 0.076351 -0.060285 0
M  V30 18 C -2.381310 -0.556853 1.125595 0
M  V30 19 N -2.647809 0.414221 2.145595 0
M  V30 20 C -4.009062 0.209611 2.654407 0
M  V30 21 C -1.788541 0.328458 3.302642 0
M  V30 22 C -0.381503 0.730580 3.021305 0
M  V30 23 H 2.262712 -3.684419 2.867075 0
M  V30 24 H 1.709778 -3.123504 4.516526 0
M  V30 25 H 0.579514 -4.054193 3.489269 0
M  V30 26 H 0.112770 -1.813954 3.544769 0
M  V30 27 H 3.707648 -2.564464 -0.516540 0
M  V30 28 H 1.651234 1.402066 -1.946563 0
M  V30 29 H 2.418052 2.312974 -4.031060 0
M  V30 30 H 5.143844 -0.890193 -4.386883 0
M  V30 31 H 4.385912 -1.828262 -2.284931 0
M  V30 32 H -1.405462 1.939223 0.899207 0
M  V30 33 H -0.013838 1.560765 -0.131445 0
M  V30 34 H -2.349020 0.486846 -0.809058 0
M  V30 35 H -0.972848 -0.705801 -0.476068 0
M  V30 36 H -3.371151 -0.867912 0.687054 0
M  V30 37 H -1.889429 -1.478701 1.462144 0
M  V30 38 H -4.780103 0.466573 1.913466 0
M  V30 39 H -4.074453 -0.883737 2.888030 0
M  V30 40 H -4.146348 0.720203 3.628446 0
M  V30 41 H -1.943516 -0.643007 3.764656 0
M  V30 42 H -2.218279 1.075385 4.033836 0
M  V30 43 H -0.369973 1.877346 3.070272 0
M  V30 44 H 0.340600 0.441735 3.774870 0
M  V30 END ATOM
M  V30 BEGIN BOND
M  V30 1 1 1 2
M  V30 2 1 2 3
M  V30 3 2 3 4
M  V30 4 1 4 5
M  V30 5 2 5 6
M  V30 6 1 6 7
M  V30 7 2 7 8
M  V30 8 1 8 9
M  V30 9 2 9 10
M  V30 10 1 10 11
M  V30 11 2 11 12
M  V30 12 1 6 13
M  V30 13 2 13 14
M  V30 14 1 14 15
M  V30 15 1 15 16
M  V30 16 1 16 17
M  V30 17 1 17 18
M  V30 18 1 18 19
M  V30 19 1 19 20
M  V30 20 1 19 21
M  V30 21 1 21 22
M  V30 22 1 14 3
M  V30 23 1 22 15
M  V30 24 1 12 7
M  V30 25 1 1 23
M  V30 26 1 1 24
M  V30 27 1 1 25
M  V30 28 1 2 26
M  V30 29 1 5 27
M  V30 30 1 8 28
M  V30 31 1 9 29
M  V30 32 1 11 30
M  V30 33 1 12 31
M  V30 34 1 16 32
M  V30 35 1 16 33
M  V30 36 1 17 34
M  V30 37 1 17 35
M  V30 38 1 18 36
M  V30 39 1 18 37
M  V30 40 1 20 38
M  V30 41 1 20 39
M  V30 42 1 20 40
M  V30 43 1 21 41
M  V30 44 1 21 42
M  V30 45 1 22 43
M  V30 46 1 22 44
M  V30 END BOND
M  V30 END CTAB
M  END
>  <Dataset>  (569) 
ChEMBL_Kinases

>  <Ligand_Instance>  (569) 
nan

>  <PDB_ID>  (569) 
nan

>  <Standardized_SMILES>  (569) 
CNc1ncc(-c2ccncc2)nc1N1CCCN(C)CC1

>  <Name>  (569) 
nan

>  <Pocket>  (569) 
nan

>  <ATP_Site>  (569) 
nan

>  <Peripheral>  (569) 
nan

>  <Num_H_Atoms_ProtBoundConf>  (569) 
nan

>  <Num_Resolved_Atoms>  (569) 
nan

>  <Num_Not_Resolved_Atoms>  (569) 
nan

$$$$
CHEMBL4642061
     RDKit          3D

  0  0  0  0  0  0  0  0  0  0999 V3000
M  V30 BEGIN CTAB
M  V30 COUNTS 51 54 0 0 0
M  V30 BEGIN ATOM
M  V30 1 C 2.363063 -7.919400 1.834110 0
M  V30 2 C 2.015361 -6.560543 1.351284 0
M  V30 3 O 0.831741 -6.303364 1.761976 0
M  V30 4 N 2.751345 -5.599409 0.568735 0
M  V30 5 C 1.910986 -4.460036 0.410468 0
M  V30 6 C 1.912400 -3.407090 1.304053 0
M  V30 7 C 1.063315 -2.342960 1.070359 0
M  V30 8 C 0.254315 -2.388494 -0.049484 0
M  V30 9 C -0.648157 -1.264615 -0.303523 0
M  V30 10 C -0.331105 0.027626 0.060576 0
M  V30 11 C -1.211274 1.052638 -0.198359 0
M  V30 12 N -0.869915 2.378683 0.190002 0
M  V30 13 C 0.388257 2.640240 0.880628 0
M  V30 14 C 0.648334 4.102761 1.124293 0
M  V30 15 C 1.787309 4.189810 2.120641 0
M  V30 16 C 1.319822 3.680583 3.482560 0
M  V30 17 N 0.096889 2.927862 3.287437 0
M  V30 18 C 0.348853 1.949377 2.247766 0
M  V30 19 C -2.397808 0.753005 -0.821843 0
M  V30 20 C -3.318428 1.717445 -1.110156 0
M  V30 21 C -4.514629 1.433335 -1.735573 0
M  V30 22 N -4.817340 0.182767 -2.086160 0
M  V30 23 C -3.952874 -0.820426 -1.831354 0
M  V30 24 C -2.760493 -0.520761 -1.205233 0
M  V30 25 C -1.862342 -1.555605 -0.938966 0
M  V30 26 C 0.254535 -3.442908 -0.942084 0
M  V30 27 C 1.107379 -4.517754 -0.712444 0
M  V30 28 H 3.391334 -8.217139 1.548458 0
M  V30 29 H 1.629401 -8.628068 1.382995 0
M  V30 30 H 2.250004 -8.008599 2.934174 0
M  V30 31 H 3.682129 -6.013407 0.345322 0
M  V30 32 H 2.594275 -3.497729 2.138506 0
M  V30 33 H 1.078947 -1.528201 1.781350 0
M  V30 34 H 0.620856 0.123435 0.531308 0
M  V30 35 H -1.431371 3.239196 0.038268 0
M  V30 36 H 1.192840 2.201274 0.271520 0
M  V30 37 H 1.083399 4.502245 0.163603 0
M  V30 38 H -0.218051 4.695497 1.407608 0
M  V30 39 H 2.582611 3.486365 1.800346 0
M  V30 40 H 2.223241 5.203470 2.178274 0
M  V30 41 H 2.054418 3.024388 3.964221 0
M  V30 42 H 1.121968 4.538201 4.178800 0
M  V30 43 H -0.706668 3.512794 2.978256 0
M  V30 44 H -0.501705 1.234864 2.301703 0
M  V30 45 H 1.280289 1.385979 2.450231 0
M  V30 46 H -3.145367 2.749598 -0.857929 0
M  V30 47 H -5.273557 2.150910 -1.985669 0
M  V30 48 H -4.225134 -1.836132 -2.128736 0
M  V30 49 H -2.127601 -2.574741 -1.233627 0
M  V30 50 H -0.384542 -3.462633 -1.813064 0
M  V30 51 H 1.106449 -5.341039 -1.410966 0
M  V30 END ATOM
M  V30 BEGIN BOND
M  V30 1 1 1 2
M  V30 2 2 2 3
M  V30 3 1 2 4
M  V30 4 1 4 5
M  V30 5 2 5 6
M  V30 6 1 6 7
M  V30 7 2 7 8
M  V30 8 1 8 9
M  V30 9 2 9 10
M  V30 10 1 10 11
M  V30 11 1 11 12
M  V30 12 1 12 13
M  V30 13 1 13 14
M  V30 14 1 14 15
M  V30 15 1 15 16
M  V30 16 1 16 17
M  V30 17 1 17 18
M  V30 18 2 11 19
M  V30 19 1 19 20
M  V30 20 2 20 21
M  V30 21 1 21 22
M  V30 22 2 22 23
M  V30 23 1 23 24
M  V30 24 2 24 25
M  V30 25 1 8 26
M  V30 26 2 26 27
M  V30 27 1 27 5
M  V30 28 1 25 9
M  V30 29 1 18 13
M  V30 30 1 24 19
M  V30 31 1 1 28
M  V30 32 1 1 29
M  V30 33 1 1 30
M  V30 34 1 4 31
M  V30 35 1 6 32
M  V30 36 1 7 33
M  V30 37 1 10 34
M  V30 38 1 12 35
M  V30 39 1 13 36
M  V30 40 1 14 37
M  V30 41 1 14 38
M  V30 42 1 15 39
M  V30 43 1 15 40
M  V30 44 1 16 41
M  V30 45 1 16 42
M  V30 46 1 17 43
M  V30 47 1 18 44
M  V30 48 1 18 45
M  V30 49 1 20 46
M  V30 50 1 21 47
M  V30 51 1 23 48
M  V30 52 1 25 49
M  V30 53 1 26 50
M  V30 54 1 27 51
M  V30 END BOND
M  V30 END CTAB
M  END
>  <Dataset>  (570) 
ChEMBL_Kinases

>  <Ligand_Instance>  (570) 
nan

>  <PDB_ID>  (570) 
nan

>  <Standardized_SMILES>  (570) 
CC(=O)Nc1ccc(-c2cc(NC3CCCNC3)c3ccncc3c2)cc1

>  <Name>  (570) 
nan

>  <Pocket>  (570) 
nan

>  <ATP_Site>  (570) 
nan

>  <Peripheral>  (570) 
nan

>  <Num_H_Atoms_ProtBoundConf>  (570) 
nan

>  <Num_Resolved_Atoms>  (570) 
nan

>  <Num_Not_Resolved_Atoms>  (570) 
nan

$$$$
CHEMBL574168
     RDKit          3D

  0  0  0  0  0  0  0  0  0  0999 V3000
M  V30 BEGIN CTAB
M  V30 COUNTS 33 35 0 0 0
M  V30 BEGIN ATOM
M  V30 1 C -2.799597 -3.283398 4.814779 0
M  V30 2 C -1.923723 -3.340653 3.981910 0
M  V30 3 C -0.864731 -3.415596 2.983121 0
M  V30 4 C -0.042251 -4.504873 3.081371 0
M  V30 5 C 0.955850 -4.572626 2.137610 0
M  V30 6 C 1.057204 -3.553024 1.171722 0
M  V30 7 S 2.207300 -3.361019 -0.144651 0
M  V30 8 C 1.549494 -1.870174 -0.748456 0
M  V30 9 C 1.955501 -1.072217 -1.832135 0
M  V30 10 O 2.946892 -1.443627 -2.511748 0
M  V30 11 N 1.287872 0.051389 -2.114905 0
M  V30 12 C 0.259544 0.302239 -1.296039 0
M  V30 13 C -0.518569 1.563322 -1.584610 0
M  V30 14 N 0.106533 2.604858 -0.830444 0
M  V30 15 C 0.082436 2.320718 0.594197 0
M  V30 16 C -0.517469 3.891992 -0.995293 0
M  V30 17 N -0.125251 -0.458691 -0.265017 0
M  V30 18 C 0.530641 -1.622078 0.063244 0
M  V30 19 C 0.275367 -2.494575 1.058830 0
M  V30 20 C -0.744153 -2.435199 2.031180 0
M  V30 21 H -3.560188 -3.226149 5.551935 0
M  V30 22 H -0.067680 -5.313420 3.792211 0
M  V30 23 H 1.664375 -5.383905 2.114530 0
M  V30 24 H 1.593768 0.635310 -2.916723 0
M  V30 25 H -1.542180 1.411497 -1.206199 0
M  V30 26 H -0.475383 1.802050 -2.656312 0
M  V30 27 H 0.970621 1.695370 0.840625 0
M  V30 28 H -0.841668 1.788163 0.886857 0
M  V30 29 H 0.116559 3.248439 1.213900 0
M  V30 30 H -0.413695 4.335436 -1.997199 0
M  V30 31 H -1.600573 3.789176 -0.691232 0
M  V30 32 H -0.091022 4.556064 -0.186971 0
M  V30 33 H -1.490844 -1.626872 2.095021 0
M  V30 END ATOM
M  V30 BEGIN BOND
M  V30 1 3 1 2
M  V30 2 1 2 3
M  V30 3 2 3 4
M  V30 4 1 4 5
M  V30 5 2 5 6
M  V30 6 1 6 7
M  V30 7 1 7 8
M  V30 8 1 8 9
M  V30 9 2 9 10
M  V30 10 1 9 11
M  V30 11 1 11 12
M  V30 12 1 12 13
M  V30 13 1 13 14
M  V30 14 1 14 15
M  V30 15 1 14 16
M  V30 16 2 12 17
M  V30 17 1 17 18
M  V30 18 1 18 19
M  V30 19 2 19 20
M  V30 20 1 20 3
M  V30 21 1 19 6
M  V30 22 2 18 8
M  V30 23 1 1 21
M  V30 24 1 4 22
M  V30 25 1 5 23
M  V30 26 1 11 24
M  V30 27 1 13 25
M  V30 28 1 13 26
M  V30 29 1 15 27
M  V30 30 1 15 28
M  V30 31 1 15 29
M  V30 32 1 16 30
M  V30 33 1 16 31
M  V30 34 1 16 32
M  V30 35 1 20 33
M  V30 END BOND
M  V30 END CTAB
M  END
>  <Dataset>  (571) 
ChEMBL_Kinases

>  <Ligand_Instance>  (571) 
nan

>  <PDB_ID>  (571) 
nan

>  <Standardized_SMILES>  (571) 
C#Cc1ccc2sc3c(=O)[nH]c(CN(C)C)nc3c2c1

>  <Name>  (571) 
nan

>  <Pocket>  (571) 
nan

>  <ATP_Site>  (571) 
nan

>  <Peripheral>  (571) 
nan

>  <Num_H_Atoms_ProtBoundConf>  (571) 
nan

>  <Num_Resolved_Atoms>  (571) 
nan

>  <Num_Not_Resolved_Atoms>  (571) 
nan

$$$$
CHEMBL4641918
     RDKit          3D

  0  0  0  0  0  0  0  0  0  0999 V3000
M  V30 BEGIN CTAB
M  V30 COUNTS 44 47 0 0 0
M  V30 BEGIN ATOM
M  V30 1 C -3.136097 -4.721919 1.792391 0
M  V30 2 C -1.858857 -5.230730 1.882995 0
M  V30 3 C -0.771487 -4.446537 1.555072 0
M  V30 4 C -0.893359 -3.133131 1.125527 0
M  V30 5 C 0.308007 -2.371773 0.798085 0
M  V30 6 C 0.404879 -1.006768 0.968265 0
M  V30 7 C 1.523215 -0.258626 0.668963 0
M  V30 8 N 1.578774 1.131919 0.851815 0
M  V30 9 C 0.411285 1.833640 1.354228 0
M  V30 10 C -0.768966 1.801903 0.465161 0
M  V30 11 C -1.125994 3.091259 -0.202757 0
M  V30 12 C -0.608951 4.326144 0.448378 0
M  V30 13 N 0.743391 4.221175 0.874422 0
M  V30 14 C 0.831610 3.164592 1.853883 0
M  V30 15 C 2.557678 -1.023539 0.172764 0
M  V30 16 C 3.746232 -0.420540 -0.174237 0
M  V30 17 C 4.830465 -1.107673 -0.677225 0
M  V30 18 N 4.716607 -2.439970 -0.836037 0
M  V30 19 C 3.591567 -3.108335 -0.522262 0
M  V30 20 C 2.526266 -2.388462 -0.021355 0
M  V30 21 C 1.376710 -3.078477 0.297959 0
M  V30 22 C -2.179904 -2.637932 1.040004 0
M  V30 23 C -3.268651 -3.420638 1.367537 0
M  V30 24 H -4.043228 -5.262855 2.028150 0
M  V30 25 H -1.736705 -6.237237 2.210559 0
M  V30 26 H 0.203338 -4.927269 1.654804 0
M  V30 27 H -0.486788 -0.571642 1.367670 0
M  V30 28 H 2.410449 1.697473 0.646990 0
M  V30 29 H 0.133441 1.238527 2.279226 0
M  V30 30 H -0.595356 1.066345 -0.355654 0
M  V30 31 H -1.684315 1.449273 0.984973 0
M  V30 32 H -0.771432 3.128830 -1.265787 0
M  V30 33 H -2.227629 3.224621 -0.290094 0
M  V30 34 H -1.238322 4.632588 1.308315 0
M  V30 35 H -0.669343 5.175572 -0.284563 0
M  V30 36 H 1.446165 4.156715 0.126633 0
M  V30 37 H 1.888636 3.173298 2.200077 0
M  V30 38 H 0.232282 3.506246 2.734751 0
M  V30 39 H 3.904259 0.638339 -0.073261 0
M  V30 40 H 5.769795 -0.644602 -0.953337 0
M  V30 41 H 3.524071 -4.172527 -0.657733 0
M  V30 42 H 1.343110 -4.140681 0.150320 0
M  V30 43 H -2.283375 -1.605485 0.702836 0
M  V30 44 H -4.255587 -2.971930 1.279138 0
M  V30 END ATOM
M  V30 BEGIN BOND
M  V30 1 2 1 2
M  V30 2 1 2 3
M  V30 3 2 3 4
M  V30 4 1 4 5
M  V30 5 2 5 6
M  V30 6 1 6 7
M  V30 7 1 7 8
M  V30 8 1 8 9
M  V30 9 1 9 10
M  V30 10 1 10 11
M  V30 11 1 11 12
M  V30 12 1 12 13
M  V30 13 1 13 14
M  V30 14 2 7 15
M  V30 15 1 15 16
M  V30 16 2 16 17
M  V30 17 1 17 18
M  V30 18 2 18 19
M  V30 19 1 19 20
M  V30 20 2 20 21
M  V30 21 1 4 22
M  V30 22 2 22 23
M  V30 23 1 23 1
M  V30 24 1 21 5
M  V30 25 1 14 9
M  V30 26 1 20 15
M  V30 27 1 1 24
M  V30 28 1 2 25
M  V30 29 1 3 26
M  V30 30 1 6 27
M  V30 31 1 8 28
M  V30 32 1 9 29
M  V30 33 1 10 30
M  V30 34 1 10 31
M  V30 35 1 11 32
M  V30 36 1 11 33
M  V30 37 1 12 34
M  V30 38 1 12 35
M  V30 39 1 13 36
M  V30 40 1 14 37
M  V30 41 1 14 38
M  V30 42 1 16 39
M  V30 43 1 17 40
M  V30 44 1 19 41
M  V30 45 1 21 42
M  V30 46 1 22 43
M  V30 47 1 23 44
M  V30 END BOND
M  V30 END CTAB
M  END
>  <Dataset>  (572) 
ChEMBL_Kinases

>  <Ligand_Instance>  (572) 
nan

>  <PDB_ID>  (572) 
nan

>  <Standardized_SMILES>  (572) 
c1ccc(-c2cc(NC3CCCNC3)c3ccncc3c2)cc1

>  <Name>  (572) 
nan

>  <Pocket>  (572) 
nan

>  <ATP_Site>  (572) 
nan

>  <Peripheral>  (572) 
nan

>  <Num_H_Atoms_ProtBoundConf>  (572) 
nan

>  <Num_Resolved_Atoms>  (572) 
nan

>  <Num_Not_Resolved_Atoms>  (572) 
nan

$$$$
CHEMBL4638636
     RDKit          3D

  0  0  0  0  0  0  0  0  0  0999 V3000
M  V30 BEGIN CTAB
M  V30 COUNTS 44 48 0 0 0
M  V30 BEGIN ATOM
M  V30 1 C 2.610705 -5.810892 5.675864 0
M  V30 2 O 1.936422 -5.675139 4.453477 0
M  V30 3 C 2.266512 -4.800786 3.459045 0
M  V30 4 C 3.315188 -3.906083 3.487923 0
M  V30 5 C 3.598895 -3.045185 2.448024 0
M  V30 6 C 2.817409 -3.038646 1.286636 0
M  V30 7 C 3.210727 -2.081880 0.244313 0
M  V30 8 N 2.581821 -0.774815 0.374524 0
M  V30 9 C 3.274481 0.090246 1.128964 0
M  V30 10 N 2.722662 1.307871 1.273658 0
M  V30 11 C 1.515716 1.564473 0.648933 0
M  V30 12 S 0.404590 3.066232 0.568835 0
M  V30 13 C -0.812267 2.331983 -0.449371 0
M  V30 14 C -1.961289 3.231888 -0.787506 0
M  V30 15 C -1.995231 4.522736 -0.301940 0
M  V30 16 C -3.041966 5.392742 -0.590360 0
M  V30 17 N -4.038460 4.961411 -1.358669 0
M  V30 18 C -4.073688 3.721970 -1.865689 0
M  V30 19 N -4.980872 3.117295 -2.648283 0
M  V30 20 C -4.529831 1.881634 -2.861440 0
M  V30 21 C -3.340080 1.729883 -2.205450 0
M  V30 22 C -3.019645 2.895038 -1.555982 0
M  V30 23 C -0.377648 1.120752 -0.662035 0
M  V30 24 C 0.787483 0.673926 -0.136867 0
M  V30 25 C 1.414362 -0.553605 -0.240361 0
M  V30 26 O 0.923380 -1.523050 -0.914640 0
M  V30 27 C 1.772256 -3.935647 1.266787 0
M  V30 28 C 1.501858 -4.786827 2.309844 0
M  V30 29 H 3.326466 -6.681386 5.651268 0
M  V30 30 H 1.903829 -6.032943 6.510270 0
M  V30 31 H 3.188951 -4.922685 5.970610 0
M  V30 32 H 3.939463 -3.889962 4.379592 0
M  V30 33 H 4.452992 -2.360761 2.546505 0
M  V30 34 H 4.303293 -1.983024 0.241720 0
M  V30 35 H 2.914068 -2.528081 -0.750929 0
M  V30 36 H 4.195406 0.006066 1.649309 0
M  V30 37 H -1.249331 4.980419 0.326015 0
M  V30 38 H -3.082618 6.404967 -0.218031 0
M  V30 39 H -5.850294 3.581861 -2.989000 0
M  V30 40 H -5.100211 1.200126 -3.471615 0
M  V30 41 H -2.866555 0.790390 -2.289023 0
M  V30 42 H -0.976936 0.470619 -1.276287 0
M  V30 43 H 1.177210 -3.930290 0.380767 0
M  V30 44 H 0.638662 -5.453661 2.168185 0
M  V30 END ATOM
M  V30 BEGIN BOND
M  V30 1 1 1 2
M  V30 2 1 2 3
M  V30 3 2 3 4
M  V30 4 1 4 5
M  V30 5 2 5 6
M  V30 6 1 6 7
M  V30 7 1 7 8
M  V30 8 1 8 9
M  V30 9 2 9 10
M  V30 10 1 10 11
M  V30 11 1 11 12
M  V30 12 1 12 13
M  V30 13 1 13 14
M  V30 14 2 14 15
M  V30 15 1 15 16
M  V30 16 2 16 17
M  V30 17 1 17 18
M  V30 18 1 18 19
M  V30 19 1 19 20
M  V30 20 2 20 21
M  V30 21 1 21 22
M  V30 22 2 13 23
M  V30 23 1 23 24
M  V30 24 1 24 25
M  V30 25 2 25 26
M  V30 26 1 6 27
M  V30 27 2 27 28
M  V30 28 1 28 3
M  V30 29 1 25 8
M  V30 30 2 24 11
M  V30 31 1 22 14
M  V30 32 2 22 18
M  V30 33 1 1 29
M  V30 34 1 1 30
M  V30 35 1 1 31
M  V30 36 1 4 32
M  V30 37 1 5 33
M  V30 38 1 7 34
M  V30 39 1 7 35
M  V30 40 1 9 36
M  V30 41 1 15 37
M  V30 42 1 16 38
M  V30 43 1 19 39
M  V30 44 1 20 40
M  V30 45 1 21 41
M  V30 46 1 23 42
M  V30 47 1 27 43
M  V30 48 1 28 44
M  V30 END BOND
M  V30 END CTAB
M  END
>  <Dataset>  (573) 
ChEMBL_Kinases

>  <Ligand_Instance>  (573) 
nan

>  <PDB_ID>  (573) 
nan

>  <Standardized_SMILES>  (573) 
COc1ccc(Cn2cnc3sc(-c4ccnc5[nH]ccc45)cc3c2=O)cc1

>  <Name>  (573) 
nan

>  <Pocket>  (573) 
nan

>  <ATP_Site>  (573) 
nan

>  <Peripheral>  (573) 
nan

>  <Num_H_Atoms_ProtBoundConf>  (573) 
nan

>  <Num_Resolved_Atoms>  (573) 
nan

>  <Num_Not_Resolved_Atoms>  (573) 
nan

$$$$
CHEMBL210056
     RDKit          3D

  0  0  0  0  0  0  0  0  0  0999 V3000
M  V30 BEGIN CTAB
M  V30 COUNTS 27 30 0 0 0
M  V30 BEGIN ATOM
M  V30 1 O 4.167138 -3.627180 1.300169 0
M  V30 2 C 3.177608 -2.884081 1.528026 0
M  V30 3 N 2.565500 -2.552338 2.792480 0
M  V30 4 C 1.478808 -1.679011 2.539829 0
M  V30 5 O 0.857147 -1.310058 3.542714 0
M  V30 6 C 1.359035 -1.425650 1.132214 0
M  V30 7 C 2.371718 -2.146293 0.549108 0
M  V30 8 C 2.525850 -2.109682 -0.824638 0
M  V30 9 I 4.064242 -3.197482 -1.770956 0
M  V30 10 C 1.680285 -1.361949 -1.620288 0
M  V30 11 C 0.669900 -0.646401 -1.008109 0
M  V30 12 N -0.277083 0.149760 -1.536932 0
M  V30 13 C -1.013063 0.601293 -0.479032 0
M  V30 14 C -2.100867 1.454434 -0.547166 0
M  V30 15 C -2.775759 1.846747 0.613765 0
M  V30 16 C -2.309767 1.345702 1.833809 0
M  V30 17 O -2.966880 1.723968 2.996764 0
M  V30 18 C -1.222862 0.503147 1.815122 0
M  V30 19 C -0.537784 0.096576 0.709851 0
M  V30 20 C 0.521116 -0.686541 0.360133 0
M  V30 21 H 2.974799 -2.969024 3.658283 0
M  V30 22 H 1.799625 -1.331892 -2.698934 0
M  V30 23 H -0.393228 0.355411 -2.550422 0
M  V30 24 H -2.457197 1.838668 -1.489773 0
M  V30 25 H -3.612710 2.509122 0.508840 0
M  V30 26 H -3.763890 1.187991 3.343550 0
M  V30 27 H -0.936022 0.170399 2.779825 0
M  V30 END ATOM
M  V30 BEGIN BOND
M  V30 1 2 1 2
M  V30 2 1 2 3
M  V30 3 1 3 4
M  V30 4 2 4 5
M  V30 5 1 4 6
M  V30 6 2 6 7
M  V30 7 1 7 8
M  V30 8 1 8 9
M  V30 9 2 8 10
M  V30 10 1 10 11
M  V30 11 1 11 12
M  V30 12 1 12 13
M  V30 13 2 13 14
M  V30 14 1 14 15
M  V30 15 2 15 16
M  V30 16 1 16 17
M  V30 17 1 16 18
M  V30 18 2 18 19
M  V30 19 1 19 20
M  V30 20 1 7 2
M  V30 21 2 20 11
M  V30 22 1 20 6
M  V30 23 1 19 13
M  V30 24 1 3 21
M  V30 25 1 10 22
M  V30 26 1 12 23
M  V30 27 1 14 24
M  V30 28 1 15 25
M  V30 29 1 17 26
M  V30 30 1 18 27
M  V30 END BOND
M  V30 END CTAB
M  END
>  <Dataset>  (574) 
ChEMBL_Kinases

>  <Ligand_Instance>  (574) 
nan

>  <PDB_ID>  (574) 
nan

>  <Standardized_SMILES>  (574) 
O=C1NC(=O)c2c1c(I)cc1[nH]c3ccc(O)cc3c21

>  <Name>  (574) 
nan

>  <Pocket>  (574) 
nan

>  <ATP_Site>  (574) 
nan

>  <Peripheral>  (574) 
nan

>  <Num_H_Atoms_ProtBoundConf>  (574) 
nan

>  <Num_Resolved_Atoms>  (574) 
nan

>  <Num_Not_Resolved_Atoms>  (574) 
nan

$$$$
CHEMBL212660
     RDKit          3D

  0  0  0  0  0  0  0  0  0  0999 V3000
M  V30 BEGIN CTAB
M  V30 COUNTS 38 42 0 0 0
M  V30 BEGIN ATOM
M  V30 1 O 3.973411 -0.283381 0.921611 0
M  V30 2 C 2.943766 -0.902150 1.314201 0
M  V30 3 N 2.928371 -2.030860 2.215302 0
M  V30 4 C 1.574895 -2.413076 2.384795 0
M  V30 5 O 1.377533 -3.377010 3.135759 0
M  V30 6 C 0.717761 -1.565199 1.620534 0
M  V30 7 C 1.559879 -0.678448 0.996635 0
M  V30 8 C 1.061062 0.298170 0.159305 0
M  V30 9 C 1.764650 1.341372 -0.574561 0
M  V30 10 C 1.480623 1.453202 -1.941478 0
M  V30 11 C 2.029709 2.378058 -2.804821 0
M  V30 12 C 2.935299 3.260525 -2.253507 0
M  V30 13 O 3.534871 4.225110 -3.058079 0
M  V30 14 C 3.255509 3.200103 -0.913163 0
M  V30 15 C 2.677306 2.255364 -0.092601 0
M  V30 16 C -0.322406 0.374202 -0.048813 0
M  V30 17 C -1.164241 -0.520096 0.580830 0
M  V30 18 N -2.522738 -0.660817 0.549946 0
M  V30 19 C -2.786172 -1.703111 1.360203 0
M  V30 20 C -4.049740 -2.205955 1.630728 0
M  V30 21 C -4.210135 -3.282089 2.479274 0
M  V30 22 C -3.063105 -3.844694 3.053360 0
M  V30 23 O -3.220775 -4.927296 3.907409 0
M  V30 24 C -1.845632 -3.288911 2.735367 0
M  V30 25 C -1.637447 -2.230008 1.905719 0
M  V30 26 C -0.619305 -1.476330 1.407543 0
M  V30 27 H 3.828119 -2.406465 2.606202 0
M  V30 28 H 0.759125 0.753006 -2.389592 0
M  V30 29 H 1.744446 2.382835 -3.847247 0
M  V30 30 H 3.918899 5.089910 -2.664025 0
M  V30 31 H 3.970395 3.897047 -0.478862 0
M  V30 32 H 2.901198 2.194490 0.944913 0
M  V30 33 H -0.822088 1.112200 -0.695328 0
M  V30 34 H -3.192528 -0.065818 0.000438 0
M  V30 35 H -4.950541 -1.792605 1.202789 0
M  V30 36 H -5.199817 -3.665875 2.683060 0
M  V30 37 H -2.819532 -4.941711 4.835961 0
M  V30 38 H -1.035907 -3.774824 3.212370 0
M  V30 END ATOM
M  V30 BEGIN BOND
M  V30 1 2 1 2
M  V30 2 1 2 3
M  V30 3 1 3 4
M  V30 4 2 4 5
M  V30 5 1 4 6
M  V30 6 2 6 7
M  V30 7 1 7 8
M  V30 8 1 8 9
M  V30 9 2 9 10
M  V30 10 1 10 11
M  V30 11 2 11 12
M  V30 12 1 12 13
M  V30 13 1 12 14
M  V30 14 2 14 15
M  V30 15 2 8 16
M  V30 16 1 16 17
M  V30 17 1 17 18
M  V30 18 1 18 19
M  V30 19 2 19 20
M  V30 20 1 20 21
M  V30 21 2 21 22
M  V30 22 1 22 23
M  V30 23 1 22 24
M  V30 24 2 24 25
M  V30 25 1 25 26
M  V30 26 1 7 2
M  V30 27 1 15 9
M  V30 28 2 26 17
M  V30 29 1 26 6
M  V30 30 1 25 19
M  V30 31 1 3 27
M  V30 32 1 10 28
M  V30 33 1 11 29
M  V30 34 1 13 30
M  V30 35 1 14 31
M  V30 36 1 15 32
M  V30 37 1 16 33
M  V30 38 1 18 34
M  V30 39 1 20 35
M  V30 40 1 21 36
M  V30 41 1 23 37
M  V30 42 1 24 38
M  V30 END BOND
M  V30 END CTAB
M  END
>  <Dataset>  (575) 
ChEMBL_Kinases

>  <Ligand_Instance>  (575) 
nan

>  <PDB_ID>  (575) 
nan

>  <Standardized_SMILES>  (575) 
O=C1NC(=O)c2c1c(-c1ccc(O)cc1)cc1[nH]c3ccc(O)cc3c21

>  <Name>  (575) 
nan

>  <Pocket>  (575) 
nan

>  <ATP_Site>  (575) 
nan

>  <Peripheral>  (575) 
nan

>  <Num_H_Atoms_ProtBoundConf>  (575) 
nan

>  <Num_Resolved_Atoms>  (575) 
nan

>  <Num_Not_Resolved_Atoms>  (575) 
nan

$$$$
CHEMBL4635411
     RDKit          3D

  0  0  0  0  0  0  0  0  0  0999 V3000
M  V30 BEGIN CTAB
M  V30 COUNTS 43 45 0 0 0
M  V30 BEGIN ATOM
M  V30 1 C 0.901274 -4.606015 0.107392 0
M  V30 2 C 1.452978 -3.683234 -0.929350 0
M  V30 3 O 1.525369 -2.331039 -0.450516 0
M  V30 4 C 2.022189 -1.315360 -1.292435 0
M  V30 5 O 2.341776 -1.808217 -2.406583 0
M  V30 6 C 2.112898 0.074054 -0.844949 0
M  V30 7 C 2.634217 0.898856 -1.849582 0
M  V30 8 N 2.807515 2.233560 -1.654022 0
M  V30 9 C 2.463132 2.768403 -0.450825 0
M  V30 10 C 2.612685 4.118771 -0.178031 0
M  V30 11 C 2.247048 4.623805 1.073068 0
M  V30 12 Cl 2.461749 6.354665 1.359465 0
M  V30 13 C 1.727701 3.786305 2.066919 0
M  V30 14 C 1.575042 2.434613 1.801899 0
M  V30 15 Cl 0.936335 1.413374 3.043355 0
M  V30 16 C 1.947867 1.978033 0.554838 0
M  V30 17 C 1.762482 0.621416 0.380398 0
M  V30 18 N 1.256669 -0.342209 1.270476 0
M  V30 19 C -0.157450 -0.627663 1.213733 0
M  V30 20 C -0.906848 0.072122 0.283976 0
M  V30 21 C -2.263990 -0.251674 0.281976 0
M  V30 22 C -2.848702 -1.181984 1.116979 0
M  V30 23 C -2.022588 -1.830070 2.011560 0
M  V30 24 S -2.648924 -3.032580 3.123756 0
M  V30 25 N -3.142471 -2.277700 4.602120 0
M  V30 26 O -3.758273 -3.810694 2.512698 0
M  V30 27 O -1.559645 -4.007834 3.507919 0
M  V30 28 C -0.663251 -1.580112 2.092184 0
M  V30 29 H 0.690488 -4.128881 1.075833 0
M  V30 30 H 1.608119 -5.469995 0.216709 0
M  V30 31 H -0.069674 -5.071138 -0.226031 0
M  V30 32 H 2.473282 -3.963266 -1.266248 0
M  V30 33 H 0.800251 -3.731712 -1.825544 0
M  V30 34 H 2.939299 0.579049 -2.838030 0
M  V30 35 H 3.009606 4.780542 -0.926508 0
M  V30 36 H 1.471437 4.263652 3.006073 0
M  V30 37 H 1.875759 -0.837277 1.950693 0
M  V30 38 H -0.485717 0.793713 -0.371840 0
M  V30 39 H -2.913544 0.271989 -0.436115 0
M  V30 40 H -3.904841 -1.394143 1.073275 0
M  V30 41 H -2.393066 -2.311288 5.330587 0
M  V30 42 H -3.959807 -2.791176 5.004578 0
M  V30 43 H 0.016591 -2.061045 2.772941 0
M  V30 END ATOM
M  V30 BEGIN BOND
M  V30 1 1 1 2
M  V30 2 1 2 3
M  V30 3 1 3 4
M  V30 4 2 4 5
M  V30 5 1 4 6
M  V30 6 2 6 7
M  V30 7 1 7 8
M  V30 8 2 8 9
M  V30 9 1 9 10
M  V30 10 2 10 11
M  V30 11 1 11 12
M  V30 12 1 11 13
M  V30 13 2 13 14
M  V30 14 1 14 15
M  V30 15 1 14 16
M  V30 16 2 16 17
M  V30 17 1 17 18
M  V30 18 1 18 19
M  V30 19 2 19 20
M  V30 20 1 20 21
M  V30 21 2 21 22
M  V30 22 1 22 23
M  V30 23 1 23 24
M  V30 24 1 24 25
M  V30 25 2 24 26
M  V30 26 2 24 27
M  V30 27 2 23 28
M  V30 28 1 17 6
M  V30 29 1 28 19
M  V30 30 1 16 9
M  V30 31 1 1 29
M  V30 32 1 1 30
M  V30 33 1 1 31
M  V30 34 1 2 32
M  V30 35 1 2 33
M  V30 36 1 7 34
M  V30 37 1 10 35
M  V30 38 1 13 36
M  V30 39 1 18 37
M  V30 40 1 20 38
M  V30 41 1 21 39
M  V30 42 1 22 40
M  V30 43 1 25 41
M  V30 44 1 25 42
M  V30 45 1 28 43
M  V30 END BOND
M  V30 END CTAB
M  END
>  <Dataset>  (576) 
ChEMBL_Kinases

>  <Ligand_Instance>  (576) 
nan

>  <PDB_ID>  (576) 
nan

>  <Standardized_SMILES>  (576) 
CCOC(=O)c1cnc2cc(Cl)cc(Cl)c2c1Nc1cccc(S(N)(=O)=O)c1

>  <Name>  (576) 
nan

>  <Pocket>  (576) 
nan

>  <ATP_Site>  (576) 
nan

>  <Peripheral>  (576) 
nan

>  <Num_H_Atoms_ProtBoundConf>  (576) 
nan

>  <Num_Resolved_Atoms>  (576) 
nan

>  <Num_Not_Resolved_Atoms>  (576) 
nan

$$$$
CHEMBL1091928
     RDKit          3D

  0  0  0  0  0  0  0  0  0  0999 V3000
M  V30 BEGIN CTAB
M  V30 COUNTS 49 53 0 0 0
M  V30 BEGIN ATOM
M  V30 1 C -1.121887 -3.656116 -1.144385 0
M  V30 2 N -1.269186 -2.353223 -0.523511 0
M  V30 3 C -0.203949 -1.508722 -0.392943 0
M  V30 4 O 0.935123 -1.853619 -0.814951 0
M  V30 5 C -0.317434 -0.264656 0.193526 0
M  V30 6 C 0.753030 0.677727 0.366955 0
M  V30 7 C 1.595015 0.750551 1.483600 0
M  V30 8 C 2.582565 1.714055 1.505698 0
M  V30 9 C 3.441598 1.759127 2.687851 0
M  V30 10 O 3.223934 0.920807 3.600729 0
M  V30 11 N 4.495972 2.671406 2.882340 0
M  V30 12 C 5.330590 2.699106 4.054496 0
M  V30 13 C 5.551037 4.133825 4.624809 0
M  V30 14 C 6.663340 3.324553 4.055330 0
M  V30 15 C 2.745882 2.593128 0.453959 0
M  V30 16 C 1.923044 2.538104 -0.660970 0
M  V30 17 C 0.931646 1.573257 -0.686688 0
M  V30 18 Cl -0.086461 1.543059 -2.121763 0
M  V30 19 C -1.543563 0.146016 0.665531 0
M  V30 20 C -2.645426 -0.678378 0.552595 0
M  V30 21 C -3.982953 -0.633058 0.886274 0
M  V30 22 N -4.538345 -1.791185 0.495151 0
M  V30 23 N -3.611523 -2.567025 -0.071099 0
M  V30 24 C -4.040987 -3.839270 -0.543059 0
M  V30 25 C -3.813445 -5.062177 0.069801 0
M  V30 26 F -3.123423 -5.038563 1.214486 0
M  V30 27 C -4.283576 -6.231388 -0.489439 0
M  V30 28 C -4.993224 -6.196771 -1.677823 0
M  V30 29 C -5.250494 -5.012883 -2.332719 0
M  V30 30 C -4.757932 -3.868002 -1.731475 0
M  V30 31 F -5.015507 -2.700192 -2.383798 0
M  V30 32 C -2.442548 -1.900906 -0.045119 0
M  V30 33 H -0.132709 -3.652299 -1.668725 0
M  V30 34 H -1.863891 -3.885173 -1.908961 0
M  V30 35 H -1.014254 -4.428587 -0.356518 0
M  V30 36 H 1.397447 0.027716 2.256467 0
M  V30 37 H 4.691500 3.374456 2.135639 0
M  V30 38 H 5.104102 1.950552 4.822833 0
M  V30 39 H 5.139612 4.977316 4.035787 0
M  V30 40 H 5.410671 4.273362 5.705262 0
M  V30 41 H 7.081963 3.737668 3.094715 0
M  V30 42 H 7.424246 3.000844 4.766389 0
M  V30 43 H 3.516014 3.346139 0.468801 0
M  V30 44 H 2.055491 3.226710 -1.478269 0
M  V30 45 H -1.703557 1.104883 1.134543 0
M  V30 46 H -4.418467 0.229476 1.376460 0
M  V30 47 H -4.080500 -7.168314 0.027964 0
M  V30 48 H -5.345434 -7.145155 -2.082934 0
M  V30 49 H -5.800247 -4.965632 -3.257241 0
M  V30 END ATOM
M  V30 BEGIN BOND
M  V30 1 1 1 2
M  V30 2 1 2 3
M  V30 3 2 3 4
M  V30 4 1 3 5
M  V30 5 1 5 6
M  V30 6 2 6 7
M  V30 7 1 7 8
M  V30 8 1 8 9
M  V30 9 2 9 10
M  V30 10 1 9 11
M  V30 11 1 11 12
M  V30 12 1 12 13
M  V30 13 1 13 14
M  V30 14 2 8 15
M  V30 15 1 15 16
M  V30 16 2 16 17
M  V30 17 1 17 18
M  V30 18 2 5 19
M  V30 19 1 19 20
M  V30 20 1 20 21
M  V30 21 2 21 22
M  V30 22 1 22 23
M  V30 23 1 23 24
M  V30 24 2 24 25
M  V30 25 1 25 26
M  V30 26 1 25 27
M  V30 27 2 27 28
M  V30 28 1 28 29
M  V30 29 2 29 30
M  V30 30 1 30 31
M  V30 31 1 23 32
M  V30 32 1 32 2
M  V30 33 1 17 6
M  V30 34 2 32 20
M  V30 35 1 14 12
M  V30 36 1 30 24
M  V30 37 1 1 33
M  V30 38 1 1 34
M  V30 39 1 1 35
M  V30 40 1 7 36
M  V30 41 1 11 37
M  V30 42 1 12 38
M  V30 43 1 13 39
M  V30 44 1 13 40
M  V30 45 1 14 41
M  V30 46 1 14 42
M  V30 47 1 15 43
M  V30 48 1 16 44
M  V30 49 1 19 45
M  V30 50 1 21 46
M  V30 51 1 27 47
M  V30 52 1 28 48
M  V30 53 1 29 49
M  V30 END BOND
M  V30 END CTAB
M  END
>  <Dataset>  (577) 
ChEMBL_Kinases

>  <Ligand_Instance>  (577) 
nan

>  <PDB_ID>  (577) 
nan

>  <Standardized_SMILES>  (577) 
Cn1c(=O)c(-c2cc(C(=O)NC3CC3)ccc2Cl)cc2cnn(-c3c(F)cccc3F)c21

>  <Name>  (577) 
nan

>  <Pocket>  (577) 
nan

>  <ATP_Site>  (577) 
nan

>  <Peripheral>  (577) 
nan

>  <Num_H_Atoms_ProtBoundConf>  (577) 
nan

>  <Num_Resolved_Atoms>  (577) 
nan

>  <Num_Not_Resolved_Atoms>  (577) 
nan

$$$$
CHEMBL2087965
     RDKit          3D

  0  0  0  0  0  0  0  0  0  0999 V3000
M  V30 BEGIN CTAB
M  V30 COUNTS 47 51 0 0 0
M  V30 BEGIN ATOM
M  V30 1 C -0.559619 -1.236432 4.867817 0
M  V30 2 C 0.355029 -1.475478 3.720943 0
M  V30 3 C 1.528345 -2.189441 3.880385 0
M  V30 4 C 2.410089 -2.438499 2.848132 0
M  V30 5 C 2.036410 -1.916354 1.616062 0
M  V30 6 C 0.863726 -1.194910 1.425015 0
M  V30 7 C 0.595759 -0.704442 0.076023 0
M  V30 8 N 1.356189 0.139608 -0.594870 0
M  V30 9 C 1.249983 0.581465 -1.628818 0
M  V30 10 N 2.125778 1.528116 -2.353995 0
M  V30 11 C 1.680528 2.888106 -2.021923 0
M  V30 12 C 1.790999 3.109635 -0.543722 0
M  V30 13 C 2.937442 3.612801 0.047060 0
M  V30 14 C 3.036581 3.814816 1.410004 0
M  V30 15 C 1.982887 3.517034 2.229566 0
M  V30 16 C 0.824376 3.008976 1.635107 0
M  V30 17 C 0.707007 2.800149 0.272744 0
M  V30 18 S -0.363705 -0.196690 -2.246073 0
M  V30 19 C -0.548896 -1.134028 -0.608388 0
M  V30 20 C -1.636230 -2.033579 -0.265948 0
M  V30 21 C -2.556933 -1.849304 0.744702 0
M  V30 22 C -3.564547 -2.750809 1.013783 0
M  V30 23 C -3.648773 -3.882769 0.234457 0
M  V30 24 N -4.519573 -4.881246 0.300727 0
M  V30 25 C -4.192071 -5.746146 -0.665208 0
M  V30 26 N -3.117840 -5.241227 -1.298457 0
M  V30 27 N -2.759555 -4.073117 -0.751186 0
M  V30 28 C -1.761575 -3.193238 -1.027489 0
M  V30 29 N 0.077751 -1.011736 2.500665 0
M  V30 30 H 0.002884 -0.953493 5.768885 0
M  V30 31 H -1.180906 -0.342052 4.592824 0
M  V30 32 H -1.242573 -2.095852 5.041668 0
M  V30 33 H 1.793483 -2.586265 4.860306 0
M  V30 34 H 3.332492 -2.996240 2.958850 0
M  V30 35 H 2.700570 -2.084342 0.761682 0
M  V30 36 H 2.919011 1.287532 -2.989073 0
M  V30 37 H 0.656563 3.052363 -2.399659 0
M  V30 38 H 2.366090 3.561351 -2.565860 0
M  V30 39 H 3.794377 3.860887 -0.570826 0
M  V30 40 H 3.932749 4.208004 1.874238 0
M  V30 41 H 1.949995 3.636865 3.319894 0
M  V30 42 H -0.018779 2.767329 2.263837 0
M  V30 43 H -0.229038 2.400992 -0.113924 0
M  V30 44 H -2.460098 -0.948205 1.335158 0
M  V30 45 H -4.243689 -2.507575 1.840637 0
M  V30 46 H -4.730347 -6.660698 -0.849944 0
M  V30 47 H -1.082258 -3.396133 -1.824214 0
M  V30 END ATOM
M  V30 BEGIN BOND
M  V30 1 1 1 2
M  V30 2 2 2 3
M  V30 3 1 3 4
M  V30 4 2 4 5
M  V30 5 1 5 6
M  V30 6 1 6 7
M  V30 7 1 7 8
M  V30 8 2 8 9
M  V30 9 1 9 10
M  V30 10 1 10 11
M  V30 11 1 11 12
M  V30 12 2 12 13
M  V30 13 1 13 14
M  V30 14 2 14 15
M  V30 15 1 15 16
M  V30 16 2 16 17
M  V30 17 1 9 18
M  V30 18 1 18 19
M  V30 19 1 19 20
M  V30 20 1 20 21
M  V30 21 2 21 22
M  V30 22 1 22 23
M  V30 23 2 23 24
M  V30 24 1 24 25
M  V30 25 2 25 26
M  V30 26 1 26 27
M  V30 27 1 27 28
M  V30 28 2 6 29
M  V30 29 1 29 2
M  V30 30 2 19 7
M  V30 31 2 28 20
M  V30 32 1 17 12
M  V30 33 1 27 23
M  V30 34 1 1 30
M  V30 35 1 1 31
M  V30 36 1 1 32
M  V30 37 1 3 33
M  V30 38 1 4 34
M  V30 39 1 5 35
M  V30 40 1 10 36
M  V30 41 1 11 37
M  V30 42 1 11 38
M  V30 43 1 13 39
M  V30 44 1 14 40
M  V30 45 1 15 41
M  V30 46 1 16 42
M  V30 47 1 17 43
M  V30 48 1 21 44
M  V30 49 1 22 45
M  V30 50 1 25 46
M  V30 51 1 28 47
M  V30 END BOND
M  V30 END CTAB
M  END
>  <Dataset>  (578) 
ChEMBL_Kinases

>  <Ligand_Instance>  (578) 
nan

>  <PDB_ID>  (578) 
nan

>  <Standardized_SMILES>  (578) 
Cc1cccc(-c2nc(NCc3ccccc3)sc2-c2ccc3ncnn3c2)n1

>  <Name>  (578) 
nan

>  <Pocket>  (578) 
nan

>  <ATP_Site>  (578) 
nan

>  <Peripheral>  (578) 
nan

>  <Num_H_Atoms_ProtBoundConf>  (578) 
nan

>  <Num_Resolved_Atoms>  (578) 
nan

>  <Num_Not_Resolved_Atoms>  (578) 
nan

$$$$
CHEMBL212495
     RDKit          3D

  0  0  0  0  0  0  0  0  0  0999 V3000
M  V30 BEGIN CTAB
M  V30 COUNTS 37 41 0 0 0
M  V30 BEGIN ATOM
M  V30 1 O 3.650770 0.795456 1.856454 0
M  V30 2 C 2.820892 -0.153515 1.870552 0
M  V30 3 N 2.952642 -1.387992 2.603657 0
M  V30 4 C 1.804101 -2.167030 2.337754 0
M  V30 5 O 1.750182 -3.271444 2.891953 0
M  V30 6 C 0.921383 -1.466762 1.444010 0
M  V30 7 C 1.553203 -0.275772 1.186159 0
M  V30 8 C 0.981443 0.657398 0.346603 0
M  V30 9 C 1.467500 1.977047 -0.036763 0
M  V30 10 C 1.503658 2.257915 -1.409440 0
M  V30 11 C 1.919737 3.449852 -1.964542 0
M  V30 12 C 2.328063 4.429100 -1.086274 0
M  V30 13 C 2.311775 4.204048 0.272791 0
M  V30 14 Cl 2.829371 5.442092 1.410707 0
M  V30 15 C 1.892369 3.011311 0.771484 0
M  V30 16 C -0.256825 0.376406 -0.244777 0
M  V30 17 C -0.884529 -0.823431 0.019916 0
M  V30 18 N -2.070124 -1.345898 -0.410719 0
M  V30 19 C -2.172054 -2.554101 0.173391 0
M  V30 20 C -3.226449 -3.438299 0.014551 0
M  V30 21 C -3.223843 -4.654475 0.665641 0
M  V30 22 C -2.131726 -4.965022 1.485149 0
M  V30 23 O -2.136649 -6.181384 2.131839 0
M  V30 24 C -1.126376 -4.032588 1.588868 0
M  V30 25 C -1.081397 -2.821656 0.969033 0
M  V30 26 C -0.280346 -1.726363 0.863608 0
M  V30 27 H 3.798721 -1.558304 3.194505 0
M  V30 28 H 1.183096 1.491422 -2.116028 0
M  V30 29 H 1.915743 3.582629 -3.036649 0
M  V30 30 H 2.661473 5.373245 -1.452736 0
M  V30 31 H 1.862775 2.818246 1.818189 0
M  V30 32 H -0.790810 1.037735 -0.917550 0
M  V30 33 H -2.747446 -0.872658 -1.068802 0
M  V30 34 H -4.080010 -3.223094 -0.611251 0
M  V30 35 H -4.054085 -5.333945 0.531612 0
M  V30 36 H -1.908853 -6.259965 3.122294 0
M  V30 37 H -0.339726 -4.346628 2.227784 0
M  V30 END ATOM
M  V30 BEGIN BOND
M  V30 1 2 1 2
M  V30 2 1 2 3
M  V30 3 1 3 4
M  V30 4 2 4 5
M  V30 5 1 4 6
M  V30 6 2 6 7
M  V30 7 1 7 8
M  V30 8 1 8 9
M  V30 9 2 9 10
M  V30 10 1 10 11
M  V30 11 2 11 12
M  V30 12 1 12 13
M  V30 13 1 13 14
M  V30 14 2 13 15
M  V30 15 2 8 16
M  V30 16 1 16 17
M  V30 17 1 17 18
M  V30 18 1 18 19
M  V30 19 2 19 20
M  V30 20 1 20 21
M  V30 21 2 21 22
M  V30 22 1 22 23
M  V30 23 1 22 24
M  V30 24 2 24 25
M  V30 25 1 25 26
M  V30 26 1 7 2
M  V30 27 1 15 9
M  V30 28 2 26 17
M  V30 29 1 26 6
M  V30 30 1 25 19
M  V30 31 1 3 27
M  V30 32 1 10 28
M  V30 33 1 11 29
M  V30 34 1 12 30
M  V30 35 1 15 31
M  V30 36 1 16 32
M  V30 37 1 18 33
M  V30 38 1 20 34
M  V30 39 1 21 35
M  V30 40 1 23 36
M  V30 41 1 24 37
M  V30 END BOND
M  V30 END CTAB
M  END
>  <Dataset>  (579) 
ChEMBL_Kinases

>  <Ligand_Instance>  (579) 
nan

>  <PDB_ID>  (579) 
nan

>  <Standardized_SMILES>  (579) 
O=C1NC(=O)c2c1c(-c1cccc(Cl)c1)cc1[nH]c3ccc(O)cc3c21

>  <Name>  (579) 
nan

>  <Pocket>  (579) 
nan

>  <ATP_Site>  (579) 
nan

>  <Peripheral>  (579) 
nan

>  <Num_H_Atoms_ProtBoundConf>  (579) 
nan

>  <Num_Resolved_Atoms>  (579) 
nan

>  <Num_Not_Resolved_Atoms>  (579) 
nan

$$$$
CHEMBL4638492
     RDKit          3D

  0  0  0  0  0  0  0  0  0  0999 V3000
M  V30 BEGIN CTAB
M  V30 COUNTS 53 57 0 0 0
M  V30 BEGIN ATOM
M  V30 1 C 4.332907 -3.454741 4.723086 0
M  V30 2 C 3.032404 -3.004270 4.136082 0
M  V30 3 C 1.855257 -3.473612 4.634329 0
M  V30 4 C 0.646511 -3.055857 4.089570 0
M  V30 5 C 0.687416 -2.160629 3.040312 0
M  V30 6 C 1.903892 -1.685392 2.536938 0
M  V30 7 C 1.797355 -0.751011 1.435178 0
M  V30 8 N 2.118488 0.540061 1.180213 0
M  V30 9 N 1.767319 0.860770 -0.048821 0
M  V30 10 C 1.971984 2.175776 -0.641507 0
M  V30 11 C 0.819781 3.088297 -0.417468 0
M  V30 12 S 0.554561 4.548087 0.305923 0
M  V30 13 N -0.403099 2.602172 -0.961501 0
M  V30 14 C -1.725969 3.141020 -0.977932 0
M  V30 15 C -2.474158 2.750915 0.133860 0
M  V30 16 C -3.793921 3.191594 0.272576 0
M  V30 17 C -4.297857 4.012939 -0.728684 0
M  V30 18 C -3.568288 4.406670 -1.834340 0
M  V30 19 C -2.267583 3.955855 -1.944481 0
M  V30 20 F -1.455168 4.263062 -2.964293 0
M  V30 21 C 1.192694 -0.199253 -0.680846 0
M  V30 22 C 1.208155 -1.234681 0.262110 0
M  V30 23 C 0.654673 -2.550031 -0.092027 0
M  V30 24 C 1.512020 -3.637420 -0.102337 0
M  V30 25 C 1.099567 -4.934740 -0.423259 0
M  V30 26 N -0.211291 -5.102442 -0.735079 0
M  V30 27 C -1.057597 -4.056744 -0.729834 0
M  V30 28 C -2.394862 -4.227477 -1.047832 0
M  V30 29 C -3.334491 -3.207549 -1.067127 0
M  V30 30 C -2.824373 -1.951569 -0.732669 0
M  V30 31 C -1.534230 -1.690901 -0.408715 0
M  V30 32 C -0.668085 -2.771451 -0.416021 0
M  V30 33 N 3.026766 -2.145637 3.127665 0
M  V30 34 H 5.180093 -3.075467 4.101975 0
M  V30 35 H 4.459854 -3.088652 5.755045 0
M  V30 36 H 4.349275 -4.578799 4.648053 0
M  V30 37 H 1.850040 -4.180301 5.463773 0
M  V30 38 H -0.297252 -3.411860 4.465141 0
M  V30 39 H -0.244099 -1.848752 2.632365 0
M  V30 40 H 2.258191 2.075880 -1.687360 0
M  V30 41 H 2.842678 2.668218 -0.117945 0
M  V30 42 H -0.581495 1.719929 -1.477028 0
M  V30 43 H -2.104807 2.112014 0.927273 0
M  V30 44 H -4.391322 2.897241 1.132647 0
M  V30 45 H -5.332203 4.362919 -0.627519 0
M  V30 46 H -3.974738 5.037721 -2.592104 0
M  V30 47 H 0.808785 -0.222204 -1.699528 0
M  V30 48 H 2.571691 -3.489302 0.151828 0
M  V30 49 H 1.810816 -5.758486 -0.417756 0
M  V30 50 H -2.703138 -5.254544 -1.297991 0
M  V30 51 H -4.367196 -3.397582 -1.323438 0
M  V30 52 H -3.523654 -1.127905 -0.735068 0
M  V30 53 H -1.196234 -0.695860 -0.157832 0
M  V30 END ATOM
M  V30 BEGIN BOND
M  V30 1 1 1 2
M  V30 2 2 2 3
M  V30 3 1 3 4
M  V30 4 2 4 5
M  V30 5 1 5 6
M  V30 6 1 6 7
M  V30 7 2 7 8
M  V30 8 1 8 9
M  V30 9 1 9 10
M  V30 10 1 10 11
M  V30 11 2 11 12
M  V30 12 1 11 13
M  V30 13 1 13 14
M  V30 14 2 14 15
M  V30 15 1 15 16
M  V30 16 2 16 17
M  V30 17 1 17 18
M  V30 18 2 18 19
M  V30 19 1 19 20
M  V30 20 1 9 21
M  V30 21 2 21 22
M  V30 22 1 22 23
M  V30 23 2 23 24
M  V30 24 1 24 25
M  V30 25 2 25 26
M  V30 26 1 26 27
M  V30 27 2 27 28
M  V30 28 1 28 29
M  V30 29 2 29 30
M  V30 30 1 30 31
M  V30 31 2 31 32
M  V30 32 2 6 33
M  V30 33 1 33 2
M  V30 34 1 22 7
M  V30 35 1 32 23
M  V30 36 1 19 14
M  V30 37 1 32 27
M  V30 38 1 1 34
M  V30 39 1 1 35
M  V30 40 1 1 36
M  V30 41 1 3 37
M  V30 42 1 4 38
M  V30 43 1 5 39
M  V30 44 1 10 40
M  V30 45 1 10 41
M  V30 46 1 13 42
M  V30 47 1 15 43
M  V30 48 1 16 44
M  V30 49 1 17 45
M  V30 50 1 18 46
M  V30 51 1 21 47
M  V30 52 1 24 48
M  V30 53 1 25 49
M  V30 54 1 28 50
M  V30 55 1 29 51
M  V30 56 1 30 52
M  V30 57 1 31 53
M  V30 END BOND
M  V30 END CTAB
M  END
>  <Dataset>  (580) 
ChEMBL_Kinases

>  <Ligand_Instance>  (580) 
nan

>  <PDB_ID>  (580) 
nan

>  <Standardized_SMILES>  (580) 
Cc1cccc(-c2nn(CC(=S)Nc3ccccc3F)cc2-c2ccnc3ccccc23)n1

>  <Name>  (580) 
nan

>  <Pocket>  (580) 
nan

>  <ATP_Site>  (580) 
nan

>  <Peripheral>  (580) 
nan

>  <Num_H_Atoms_ProtBoundConf>  (580) 
nan

>  <Num_Resolved_Atoms>  (580) 
nan

>  <Num_Not_Resolved_Atoms>  (580) 
nan

$$$$
CHEMBL4635731
     RDKit          3D

  0  0  0  0  0  0  0  0  0  0999 V3000
M  V30 BEGIN CTAB
M  V30 COUNTS 55 58 0 0 0
M  V30 BEGIN ATOM
M  V30 1 C 0.826013 2.171318 5.104463 0
M  V30 2 C 1.935417 1.182490 5.004008 0
M  V30 3 N 2.242439 0.134657 5.794572 0
M  V30 4 O 3.302056 -0.450181 5.318476 0
M  V30 5 C 3.731761 0.160767 4.228879 0
M  V30 6 C 4.919874 -0.217000 3.401188 0
M  V30 7 C 2.869492 1.231717 3.987312 0
M  V30 8 C 3.052417 2.130162 2.848760 0
M  V30 9 C 3.840736 3.270079 2.994292 0
M  V30 10 N 3.988796 4.076332 1.926509 0
M  V30 11 C 3.397419 3.799700 0.747461 0
M  V30 12 N 3.656702 4.758942 -0.285311 0
M  V30 13 C 2.614313 2.673009 0.592377 0
M  V30 14 O 2.037862 2.454872 -0.652147 0
M  V30 15 C 1.242433 1.335068 -0.855082 0
M  V30 16 C 1.776375 0.122043 -1.297404 0
M  V30 17 C 0.954407 -0.986330 -1.492750 0
M  V30 18 C -0.393873 -0.934855 -1.262651 0
M  V30 19 C -1.169537 -2.147972 -1.496228 0
M  V30 20 O -0.576623 -3.162398 -1.889409 0
M  V30 21 N -2.578575 -2.226283 -1.294730 0
M  V30 22 C -3.272845 -3.467143 -1.549452 0
M  V30 23 C -3.925414 -3.976323 -0.301796 0
M  V30 24 C -4.443453 -5.360867 -0.543707 0
M  V30 25 C -5.269097 -5.517036 -1.778555 0
M  V30 26 C -4.715240 -4.803328 -2.982212 0
M  V30 27 C -4.313293 -3.365097 -2.633766 0
M  V30 28 C -0.930419 0.253952 -0.827046 0
M  V30 29 C -0.137352 1.368967 -0.625135 0
M  V30 30 N 2.465079 1.862064 1.665478 0
M  V30 31 H 0.050915 2.023493 4.338277 0
M  V30 32 H 1.227598 3.212298 4.955485 0
M  V30 33 H 0.410289 2.174083 6.140605 0
M  V30 34 H 5.731516 0.528592 3.540771 0
M  V30 35 H 5.313724 -1.170745 3.789394 0
M  V30 36 H 4.675998 -0.259256 2.331733 0
M  V30 37 H 4.327335 3.520819 3.921683 0
M  V30 38 H 4.376445 4.738651 -1.030552 0
M  V30 39 H 3.121115 5.638232 -0.414116 0
M  V30 40 H 2.849235 0.055131 -1.488143 0
M  V30 41 H 1.457984 -1.878490 -1.835755 0
M  V30 42 H -3.092146 -1.378856 -0.963362 0
M  V30 43 H -2.524475 -4.212464 -1.888180 0
M  V30 44 H -4.711830 -3.290802 0.066542 0
M  V30 45 H -3.156529 -4.033701 0.492565 0
M  V30 46 H -5.089029 -5.652220 0.317323 0
M  V30 47 H -3.569149 -6.065046 -0.512378 0
M  V30 48 H -6.331767 -5.262077 -1.593050 0
M  V30 49 H -5.254412 -6.615881 -2.028075 0
M  V30 50 H -5.470540 -4.824575 -3.772612 0
M  V30 51 H -3.826850 -5.345308 -3.322819 0
M  V30 52 H -5.224314 -2.855679 -2.297466 0
M  V30 53 H -3.880742 -2.952468 -3.563957 0
M  V30 54 H -1.979020 0.312836 -0.642544 0
M  V30 55 H -0.614138 2.281178 -0.280514 0
M  V30 END ATOM
M  V30 BEGIN BOND
M  V30 1 1 1 2
M  V30 2 2 2 3
M  V30 3 1 3 4
M  V30 4 1 4 5
M  V30 5 1 5 6
M  V30 6 2 5 7
M  V30 7 1 7 8
M  V30 8 2 8 9
M  V30 9 1 9 10
M  V30 10 2 10 11
M  V30 11 1 11 12
M  V30 12 1 11 13
M  V30 13 1 13 14
M  V30 14 1 14 15
M  V30 15 2 15 16
M  V30 16 1 16 17
M  V30 17 2 17 18
M  V30 18 1 18 19
M  V30 19 2 19 20
M  V30 20 1 19 21
M  V30 21 1 21 22
M  V30 22 1 22 23
M  V30 23 1 23 24
M  V30 24 1 24 25
M  V30 25 1 25 26
M  V30 26 1 26 27
M  V30 27 1 18 28
M  V30 28 2 28 29
M  V30 29 2 13 30
M  V30 30 1 7 2
M  V30 31 1 30 8
M  V30 32 1 29 15
M  V30 33 1 27 22
M  V30 34 1 1 31
M  V30 35 1 1 32
M  V30 36 1 1 33
M  V30 37 1 6 34
M  V30 38 1 6 35
M  V30 39 1 6 36
M  V30 40 1 9 37
M  V30 41 1 12 38
M  V30 42 1 12 39
M  V30 43 1 16 40
M  V30 44 1 17 41
M  V30 45 1 21 42
M  V30 46 1 22 43
M  V30 47 1 23 44
M  V30 48 1 23 45
M  V30 49 1 24 46
M  V30 50 1 24 47
M  V30 51 1 25 48
M  V30 52 1 25 49
M  V30 53 1 26 50
M  V30 54 1 26 51
M  V30 55 1 27 52
M  V30 56 1 27 53
M  V30 57 1 28 54
M  V30 58 1 29 55
M  V30 END BOND
M  V30 END CTAB
M  END
>  <Dataset>  (581) 
ChEMBL_Kinases

>  <Ligand_Instance>  (581) 
nan

>  <PDB_ID>  (581) 
nan

>  <Standardized_SMILES>  (581) 
Cc1noc(C)c1-c1cnc(N)c(Oc2ccc(C(=O)NC3CCCCC3)cc2)n1

>  <Name>  (581) 
nan

>  <Pocket>  (581) 
nan

>  <ATP_Site>  (581) 
nan

>  <Peripheral>  (581) 
nan

>  <Num_H_Atoms_ProtBoundConf>  (581) 
nan

>  <Num_Resolved_Atoms>  (581) 
nan

>  <Num_Not_Resolved_Atoms>  (581) 
nan

$$$$
CHEMBL4638544
     RDKit          3D

  0  0  0  0  0  0  0  0  0  0999 V3000
M  V30 BEGIN CTAB
M  V30 COUNTS 66 69 0 0 0
M  V30 BEGIN ATOM
M  V30 1 C 4.809631 -0.590654 6.562309 0
M  V30 2 O 4.299546 0.714261 6.466780 0
M  V30 3 C 3.682973 1.146652 5.325039 0
M  V30 4 C 3.456115 0.465102 4.149525 0
M  V30 5 C 2.811810 1.024495 3.053557 0
M  V30 6 C 2.700747 0.101418 1.933785 0
M  V30 7 C 3.852445 -0.603198 1.562155 0
M  V30 8 N 3.877369 -1.483588 0.541683 0
M  V30 9 C 2.767202 -1.740838 -0.195929 0
M  V30 10 C 1.608675 -1.046936 0.160689 0
M  V30 11 C 0.455228 -1.370574 -0.671829 0
M  V30 12 C -0.444344 -0.511837 -1.268670 0
M  V30 13 C -1.494296 -0.979257 -2.029210 0
M  V30 14 C -1.714063 -2.320571 -2.242769 0
M  V30 15 N -2.805164 -2.761475 -3.028589 0
M  V30 16 C -3.844156 -1.978103 -3.656519 0
M  V30 17 C -5.206064 -2.219959 -3.052411 0
M  V30 18 N -5.567241 -3.580589 -3.232165 0
M  V30 19 S -6.580170 -3.934143 -4.542810 0
M  V30 20 C -5.873111 -3.525444 -6.115715 0
M  V30 21 O -7.916709 -3.253698 -4.392462 0
M  V30 22 O -6.804651 -5.440249 -4.535965 0
M  V30 23 C -4.530886 -4.501469 -2.951707 0
M  V30 24 C -3.155350 -4.090231 -3.402092 0
M  V30 25 C -0.848669 -3.223304 -1.672167 0
M  V30 26 C 0.214338 -2.733765 -0.901274 0
M  V30 27 C 1.588707 -0.148430 1.204222 0
M  V30 28 C 0.330506 0.556672 1.546381 0
M  V30 29 C 2.387221 2.328864 3.172052 0
M  V30 30 C 2.595871 3.042503 4.331432 0
M  V30 31 O 2.142033 4.354284 4.383825 0
M  V30 32 C 1.486992 4.914797 3.262748 0
M  V30 33 C 3.236587 2.469309 5.406222 0
M  V30 34 O 3.399833 3.262778 6.524259 0
M  V30 35 C 4.576825 4.042286 6.621644 0
M  V30 36 H 4.119717 -1.300004 6.051546 0
M  V30 37 H 5.834656 -0.693363 6.134233 0
M  V30 38 H 4.863133 -0.865737 7.655328 0
M  V30 39 H 3.836861 -0.546544 4.184351 0
M  V30 40 H 4.786130 -0.461340 2.095467 0
M  V30 41 H 2.821298 -2.453407 -1.008318 0
M  V30 42 H -0.251515 0.529255 -1.090802 0
M  V30 43 H -2.104677 -0.182441 -2.424749 0
M  V30 44 H -3.881318 -2.097187 -4.768239 0
M  V30 45 H -3.627850 -0.901213 -3.504583 0
M  V30 46 H -5.901379 -1.521664 -3.552506 0
M  V30 47 H -5.211738 -1.974742 -1.991795 0
M  V30 48 H -6.442673 -3.999040 -6.941640 0
M  V30 49 H -4.858115 -3.922713 -6.173639 0
M  V30 50 H -5.829614 -2.421492 -6.215829 0
M  V30 51 H -4.462183 -4.600955 -1.828194 0
M  V30 52 H -4.828946 -5.491121 -3.314956 0
M  V30 53 H -3.160732 -4.267134 -4.519406 0
M  V30 54 H -2.383228 -4.789445 -3.031066 0
M  V30 55 H -0.919035 -4.275466 -1.766998 0
M  V30 56 H 0.894907 -3.462253 -0.453230 0
M  V30 57 H 0.256832 0.755555 2.639341 0
M  V30 58 H -0.503265 -0.129635 1.259824 0
M  V30 59 H 0.309192 1.505486 0.997815 0
M  V30 60 H 1.897747 2.705439 2.286870 0
M  V30 61 H 0.636452 4.252195 2.990253 0
M  V30 62 H 1.169666 5.954135 3.491928 0
M  V30 63 H 2.194087 4.937166 2.400765 0
M  V30 64 H 5.084958 4.162205 5.636351 0
M  V30 65 H 4.397386 5.045621 7.058200 0
M  V30 66 H 5.324249 3.550426 7.304893 0
M  V30 END ATOM
M  V30 BEGIN BOND
M  V30 1 1 1 2
M  V30 2 1 2 3
M  V30 3 2 3 4
M  V30 4 1 4 5
M  V30 5 1 5 6
M  V30 6 2 6 7
M  V30 7 1 7 8
M  V30 8 2 8 9
M  V30 9 1 9 10
M  V30 10 1 10 11
M  V30 11 2 11 12
M  V30 12 1 12 13
M  V30 13 2 13 14
M  V30 14 1 14 15
M  V30 15 1 15 16
M  V30 16 1 16 17
M  V30 17 1 17 18
M  V30 18 1 18 19
M  V30 19 1 19 20
M  V30 20 2 19 21
M  V30 21 2 19 22
M  V30 22 1 18 23
M  V30 23 1 23 24
M  V30 24 1 14 25
M  V30 25 2 25 26
M  V30 26 2 10 27
M  V30 27 1 27 28
M  V30 28 2 5 29
M  V30 29 1 29 30
M  V30 30 1 30 31
M  V30 31 1 31 32
M  V30 32 2 30 33
M  V30 33 1 33 34
M  V30 34 1 34 35
M  V30 35 1 33 3
M  V30 36 1 27 6
M  V30 37 1 26 11
M  V30 38 1 24 15
M  V30 39 1 1 36
M  V30 40 1 1 37
M  V30 41 1 1 38
M  V30 42 1 4 39
M  V30 43 1 7 40
M  V30 44 1 9 41
M  V30 45 1 12 42
M  V30 46 1 13 43
M  V30 47 1 16 44
M  V30 48 1 16 45
M  V30 49 1 17 46
M  V30 50 1 17 47
M  V30 51 1 20 48
M  V30 52 1 20 49
M  V30 53 1 20 50
M  V30 54 1 23 51
M  V30 55 1 23 52
M  V30 56 1 24 53
M  V30 57 1 24 54
M  V30 58 1 25 55
M  V30 59 1 26 56
M  V30 60 1 28 57
M  V30 61 1 28 58
M  V30 62 1 28 59
M  V30 63 1 29 60
M  V30 64 1 32 61
M  V30 65 1 32 62
M  V30 66 1 32 63
M  V30 67 1 35 64
M  V30 68 1 35 65
M  V30 69 1 35 66
M  V30 END BOND
M  V30 END CTAB
M  END
>  <Dataset>  (582) 
ChEMBL_Kinases

>  <Ligand_Instance>  (582) 
nan

>  <PDB_ID>  (582) 
nan

>  <Standardized_SMILES>  (582) 
COc1cc(-c2cncc(-c3ccc(N4CCN(S(C)(=O)=O)CC4)cc3)c2C)cc(OC)c1OC

>  <Name>  (582) 
nan

>  <Pocket>  (582) 
nan

>  <ATP_Site>  (582) 
nan

>  <Peripheral>  (582) 
nan

>  <Num_H_Atoms_ProtBoundConf>  (582) 
nan

>  <Num_Resolved_Atoms>  (582) 
nan

>  <Num_Not_Resolved_Atoms>  (582) 
nan

$$$$
CHEMBL209786
     RDKit          3D

  0  0  0  0  0  0  0  0  0  0999 V3000
M  V30 BEGIN CTAB
M  V30 COUNTS 39 43 0 0 0
M  V30 BEGIN ATOM
M  V30 1 O 3.056909 2.367173 1.317578 0
M  V30 2 C 2.616819 1.292993 1.860447 0
M  V30 3 N 2.612195 0.626951 3.143665 0
M  V30 4 C 1.949091 -0.552434 3.105282 0
M  V30 5 O 1.883027 -1.213775 4.146515 0
M  V30 6 C 1.459838 -0.743795 1.776017 0
M  V30 7 C 1.895487 0.399688 1.066353 0
M  V30 8 C 1.443594 0.291177 -0.199974 0
M  V30 9 C 1.096831 1.552395 -1.030329 0
M  V30 10 C 1.349121 2.145233 -2.227247 0
M  V30 11 C 0.573784 3.194166 -2.732940 0
M  V30 12 C -0.517218 3.693297 -2.022093 0
M  V30 13 C -0.841858 3.165482 -0.805274 0
M  V30 14 C 0.009535 2.126861 -0.402974 0
M  V30 15 N -0.325098 1.920365 0.930041 0 CHG=1 VAL=4
M  V30 16 O -0.520518 1.952495 2.131369 0
M  V30 17 O -0.599731 1.681569 2.291485 0 CHG=-1 VAL=1
M  V30 18 C 0.737155 -0.626646 -0.956763 0
M  V30 19 C 0.326286 -1.774147 -0.159953 0
M  V30 20 N -0.485452 -2.769211 -0.464840 0
M  V30 21 C -0.636054 -3.421729 0.706974 0
M  V30 22 C -1.573705 -4.453539 0.685876 0
M  V30 23 C -1.770817 -4.953315 2.040525 0
M  V30 24 C -1.115516 -4.441938 3.087145 0
M  V30 25 O -1.304233 -4.941066 4.373015 0
M  V30 26 C -0.175000 -3.378125 2.957028 0
M  V30 27 C 0.082671 -2.820890 1.707607 0
M  V30 28 C 0.708471 -1.768688 1.214378 0
M  V30 29 H 3.127800 1.171568 3.920943 0
M  V30 30 H 2.191878 1.664944 -2.713123 0
M  V30 31 H 0.822413 3.572858 -3.630496 0
M  V30 32 H -1.078459 4.474399 -2.466359 0
M  V30 33 H -1.646231 3.476627 -0.194410 0
M  V30 34 H 0.396732 -0.596944 -2.016293 0
M  V30 35 H -0.830068 -2.896478 -1.490162 0
M  V30 36 H -2.086219 -4.893557 -0.131308 0
M  V30 37 H -2.475813 -5.790970 2.297494 0
M  V30 38 H -2.098024 -4.395233 4.879277 0
M  V30 39 H 0.327341 -2.978566 3.751637 0
M  V30 END ATOM
M  V30 BEGIN BOND
M  V30 1 2 1 2
M  V30 2 1 2 3
M  V30 3 1 3 4
M  V30 4 2 4 5
M  V30 5 1 4 6
M  V30 6 2 6 7
M  V30 7 1 7 8
M  V30 8 1 8 9
M  V30 9 2 9 10
M  V30 10 1 10 11
M  V30 11 2 11 12
M  V30 12 1 12 13
M  V30 13 2 13 14
M  V30 14 1 14 15
M  V30 15 2 15 16
M  V30 16 1 15 17
M  V30 17 2 8 18
M  V30 18 1 18 19
M  V30 19 1 19 20
M  V30 20 1 20 21
M  V30 21 2 21 22
M  V30 22 1 22 23
M  V30 23 2 23 24
M  V30 24 1 24 25
M  V30 25 1 24 26
M  V30 26 2 26 27
M  V30 27 1 27 28
M  V30 28 1 7 2
M  V30 29 1 14 9
M  V30 30 2 28 19
M  V30 31 1 28 6
M  V30 32 1 27 21
M  V30 33 1 3 29
M  V30 34 1 10 30
M  V30 35 1 11 31
M  V30 36 1 12 32
M  V30 37 1 13 33
M  V30 38 1 18 34
M  V30 39 1 20 35
M  V30 40 1 22 36
M  V30 41 1 23 37
M  V30 42 1 25 38
M  V30 43 1 26 39
M  V30 END BOND
M  V30 END CTAB
M  END
>  <Dataset>  (583) 
ChEMBL_Kinases

>  <Ligand_Instance>  (583) 
nan

>  <PDB_ID>  (583) 
nan

>  <Standardized_SMILES>  (583) 
O=C1NC(=O)c2c1c(-c1ccccc1[N+](=O)[O-])cc1[nH]c3ccc(O)cc3c21

>  <Name>  (583) 
nan

>  <Pocket>  (583) 
nan

>  <ATP_Site>  (583) 
nan

>  <Peripheral>  (583) 
nan

>  <Num_H_Atoms_ProtBoundConf>  (583) 
nan

>  <Num_Resolved_Atoms>  (583) 
nan

>  <Num_Not_Resolved_Atoms>  (583) 
nan

$$$$
CHEMBL594192
     RDKit          3D

  0  0  0  0  0  0  0  0  0  0999 V3000
M  V30 BEGIN CTAB
M  V30 COUNTS 32 35 0 0 0
M  V30 BEGIN ATOM
M  V30 1 N 0.786184 -5.187551 1.819348 0
M  V30 2 C -0.156423 -4.102966 1.919534 0
M  V30 3 C -1.343809 -4.423685 2.585434 0
M  V30 4 C -2.278505 -3.424271 2.708948 0
M  V30 5 C -2.017583 -2.166481 2.182605 0
M  V30 6 C -0.868572 -1.824140 1.527994 0
M  V30 7 C 0.017739 -2.831193 1.429873 0
M  V30 8 C -1.010528 -0.452021 1.155980 0
M  V30 9 C -0.133825 0.253175 0.514586 0
M  V30 10 N -0.260576 1.610578 0.140011 0
M  V30 11 C 0.874516 2.109480 -0.557447 0
M  V30 12 C 1.102598 3.368779 -1.068752 0
M  V30 13 C 2.316998 3.532194 -1.696419 0
M  V30 14 C 3.258374 2.540161 -1.824741 0
M  V30 15 C 2.940436 1.318611 -1.282958 0
M  V30 16 C 1.745235 1.014917 -0.619449 0
M  V30 17 C 1.151760 -0.136986 0.030520 0
M  V30 18 O 1.826697 -1.130262 0.028853 0
M  V30 19 C -2.303951 0.008500 1.622012 0
M  V30 20 O -2.822086 1.142695 1.504590 0
M  V30 21 N -2.949639 -1.076001 2.275528 0
M  V30 22 H 0.542926 -5.436181 0.816327 0
M  V30 23 H 1.237457 -5.208817 2.740665 0
M  V30 24 H -1.524405 -5.404792 2.985129 0
M  V30 25 H -3.184648 -3.694308 3.225224 0
M  V30 26 H 0.950898 -2.769872 0.967493 0
M  V30 27 H -1.108035 2.176014 0.360429 0
M  V30 28 H 0.371629 4.150568 -0.972772 0
M  V30 29 H 2.543983 4.497211 -2.112988 0
M  V30 30 H 4.206238 2.690070 -2.321807 0
M  V30 31 H 3.683128 0.541700 -1.386005 0
M  V30 32 H -3.896322 -1.029423 2.709632 0
M  V30 END ATOM
M  V30 BEGIN BOND
M  V30 1 1 1 2
M  V30 2 2 2 3
M  V30 3 1 3 4
M  V30 4 2 4 5
M  V30 5 1 5 6
M  V30 6 2 6 7
M  V30 7 1 6 8
M  V30 8 2 8 9
M  V30 9 1 9 10
M  V30 10 1 10 11
M  V30 11 2 11 12
M  V30 12 1 12 13
M  V30 13 2 13 14
M  V30 14 1 14 15
M  V30 15 2 15 16
M  V30 16 1 16 17
M  V30 17 2 17 18
M  V30 18 1 8 19
M  V30 19 2 19 20
M  V30 20 1 19 21
M  V30 21 1 7 2
M  V30 22 1 17 9
M  V30 23 1 21 5
M  V30 24 1 16 11
M  V30 25 1 1 22
M  V30 26 1 1 23
M  V30 27 1 3 24
M  V30 28 1 4 25
M  V30 29 1 7 26
M  V30 30 1 10 27
M  V30 31 1 12 28
M  V30 32 1 13 29
M  V30 33 1 14 30
M  V30 34 1 15 31
M  V30 35 1 21 32
M  V30 END BOND
M  V30 END CTAB
M  END
>  <Dataset>  (584) 
ChEMBL_Kinases

>  <Ligand_Instance>  (584) 
nan

>  <PDB_ID>  (584) 
nan

>  <Standardized_SMILES>  (584) 
Nc1ccc2c(c1)/C(=C1/Nc3ccccc3C1=O)C(=O)N2

>  <Name>  (584) 
nan

>  <Pocket>  (584) 
nan

>  <ATP_Site>  (584) 
nan

>  <Peripheral>  (584) 
nan

>  <Num_H_Atoms_ProtBoundConf>  (584) 
nan

>  <Num_Resolved_Atoms>  (584) 
nan

>  <Num_Not_Resolved_Atoms>  (584) 
nan

$$$$
CHEMBL573923
     RDKit          3D

  0  0  0  0  0  0  0  0  0  0999 V3000
M  V30 BEGIN CTAB
M  V30 COUNTS 45 48 0 0 0
M  V30 BEGIN ATOM
M  V30 1 C -0.723137 -5.956951 0.619841 0
M  V30 2 N 0.304931 -4.987803 0.231002 0
M  V30 3 C 0.584002 -4.091561 1.332898 0
M  V30 4 C -0.210106 -4.221869 -0.907426 0
M  V30 5 C 0.821885 -3.208114 -1.341480 0
M  V30 6 N 0.772185 -2.015966 -0.776937 0
M  V30 7 C 1.625401 -1.022440 -1.067332 0
M  V30 8 C 2.537723 -1.431235 -2.022726 0
M  V30 9 S 3.579006 -0.009100 -2.285110 0
M  V30 10 C 2.667754 1.079082 -1.032989 0
M  V30 11 C 2.950615 2.398601 -0.694894 0
M  V30 12 C 2.114117 2.939175 0.254063 0
M  V30 13 C 1.122843 2.144073 0.748742 0
M  V30 14 C 0.233147 2.743516 1.771434 0
M  V30 15 C 0.745007 3.688406 2.634519 0
M  V30 16 C -0.114029 4.231372 3.583105 0
M  V30 17 C -1.444446 3.827972 3.650840 0
M  V30 18 C -1.962678 2.873960 2.779819 0
M  V30 19 O -3.282640 2.449456 2.819901 0
M  V30 20 C -3.566283 1.339061 3.651364 0
M  V30 21 F -2.832872 0.244175 3.227152 0
M  V30 22 F -4.910012 1.040650 3.674772 0
M  V30 23 F -3.188632 1.616611 4.959720 0
M  V30 24 C -1.087252 2.354248 1.851149 0
M  V30 25 C 0.878400 0.857204 0.392145 0
M  V30 26 C 1.666027 0.237918 -0.549561 0
M  V30 27 C 2.596666 -2.649288 -2.606698 0
M  V30 28 O 3.478606 -2.856659 -3.447984 0
M  V30 29 N 1.709337 -3.599458 -2.268037 0
M  V30 30 H -1.420214 -5.495857 1.373497 0
M  V30 31 H -1.276855 -6.334603 -0.243397 0
M  V30 32 H -0.248277 -6.813697 1.126489 0
M  V30 33 H -0.144610 -3.252765 1.256177 0
M  V30 34 H 0.389235 -4.581147 2.312680 0
M  V30 35 H 1.638618 -3.732999 1.233049 0
M  V30 36 H -1.139504 -3.692692 -0.604637 0
M  V30 37 H -0.401597 -4.896941 -1.751276 0
M  V30 38 H 3.785107 2.860510 -1.202714 0
M  V30 39 H 2.316704 3.961932 0.529750 0
M  V30 40 H 1.791281 3.949663 2.518864 0
M  V30 41 H 0.291938 4.979762 4.266005 0
M  V30 42 H -2.113311 4.257375 4.396769 0
M  V30 43 H -1.497273 1.603843 1.166570 0
M  V30 44 H 0.060421 0.329629 0.856476 0
M  V30 45 H 1.731610 -4.530051 -2.695450 0
M  V30 END ATOM
M  V30 BEGIN BOND
M  V30 1 1 1 2
M  V30 2 1 2 3
M  V30 3 1 2 4
M  V30 4 1 4 5
M  V30 5 2 5 6
M  V30 6 1 6 7
M  V30 7 2 7 8
M  V30 8 1 8 9
M  V30 9 1 9 10
M  V30 10 2 10 11
M  V30 11 1 11 12
M  V30 12 2 12 13
M  V30 13 1 13 14
M  V30 14 2 14 15
M  V30 15 1 15 16
M  V30 16 2 16 17
M  V30 17 1 17 18
M  V30 18 1 18 19
M  V30 19 1 19 20
M  V30 20 1 20 21
M  V30 21 1 20 22
M  V30 22 1 20 23
M  V30 23 2 18 24
M  V30 24 1 13 25
M  V30 25 2 25 26
M  V30 26 1 8 27
M  V30 27 2 27 28
M  V30 28 1 27 29
M  V30 29 1 29 5
M  V30 30 1 26 7
M  V30 31 1 26 10
M  V30 32 1 24 14
M  V30 33 1 1 30
M  V30 34 1 1 31
M  V30 35 1 1 32
M  V30 36 1 3 33
M  V30 37 1 3 34
M  V30 38 1 3 35
M  V30 39 1 4 36
M  V30 40 1 4 37
M  V30 41 1 11 38
M  V30 42 1 12 39
M  V30 43 1 15 40
M  V30 44 1 16 41
M  V30 45 1 17 42
M  V30 46 1 24 43
M  V30 47 1 25 44
M  V30 48 1 29 45
M  V30 END BOND
M  V30 END CTAB
M  END
>  <Dataset>  (585) 
ChEMBL_Kinases

>  <Ligand_Instance>  (585) 
nan

>  <PDB_ID>  (585) 
nan

>  <Standardized_SMILES>  (585) 
CN(C)Cc1nc2c(sc3ccc(-c4cccc(OC(F)(F)F)c4)cc32)c(=O)[nH]1

>  <Name>  (585) 
nan

>  <Pocket>  (585) 
nan

>  <ATP_Site>  (585) 
nan

>  <Peripheral>  (585) 
nan

>  <Num_H_Atoms_ProtBoundConf>  (585) 
nan

>  <Num_Resolved_Atoms>  (585) 
nan

>  <Num_Not_Resolved_Atoms>  (585) 
nan

$$$$
CHEMBL573957
     RDKit          3D

  0  0  0  0  0  0  0  0  0  0999 V3000
M  V30 BEGIN CTAB
M  V30 COUNTS 43 46 0 0 0
M  V30 BEGIN ATOM
M  V30 1 C -1.270094 -5.515676 -0.489882 0
M  V30 2 N -0.617430 -5.038103 0.686035 0
M  V30 3 C 0.738981 -4.621557 0.516586 0
M  V30 4 C -1.434164 -4.153274 1.471189 0
M  V30 5 C -1.855308 -2.922774 0.710951 0
M  V30 6 N -1.046968 -1.868553 0.791640 0
M  V30 7 C -1.295901 -0.706587 0.165544 0
M  V30 8 C -2.456515 -0.750521 -0.544726 0
M  V30 9 S -2.635700 0.815306 -1.290341 0
M  V30 10 C -1.029337 1.497216 -0.558407 0
M  V30 11 C -0.480754 2.780297 -0.733063 0
M  V30 12 C 0.705829 2.985524 -0.071597 0
M  V30 13 C 1.225907 1.954283 0.671699 0
M  V30 14 N 2.461576 2.186637 1.353398 0
M  V30 15 C 3.262017 3.387426 1.377144 0
M  V30 16 C 3.398215 3.643988 2.875158 0
M  V30 17 C 3.608483 2.232199 3.381043 0
M  V30 18 C 3.271467 1.339181 2.196568 0
M  V30 19 C 0.646898 0.719704 0.807624 0
M  V30 20 C -0.542931 0.423145 0.181046 0
M  V30 21 C -3.297593 -1.841500 -0.631086 0
M  V30 22 O -4.338512 -1.741029 -1.324674 0
M  V30 23 N -3.000963 -2.978388 0.014791 0
M  V30 24 H -1.698687 -4.735600 -1.125245 0
M  V30 25 H -0.557903 -6.168811 -1.040420 0
M  V30 26 H -2.104239 -6.189916 -0.157855 0
M  V30 27 H 1.120200 -4.737716 -0.518329 0
M  V30 28 H 1.378404 -5.296787 1.155535 0
M  V30 29 H 0.908029 -3.603068 0.911998 0
M  V30 30 H -2.363270 -4.689297 1.742176 0
M  V30 31 H -0.875082 -3.833419 2.377060 0
M  V30 32 H -1.018436 3.470051 -1.349281 0
M  V30 33 H 1.115568 3.971242 -0.213524 0
M  V30 34 H 2.785947 4.229149 0.871662 0
M  V30 35 H 4.295564 3.207290 0.995501 0
M  V30 36 H 4.260620 4.296297 3.062057 0
M  V30 37 H 2.506437 4.137670 3.307309 0
M  V30 38 H 4.695884 2.078556 3.566484 0
M  V30 39 H 3.001092 1.998059 4.258079 0
M  V30 40 H 2.802144 0.407801 2.512365 0
M  V30 41 H 4.193577 1.068647 1.608428 0
M  V30 42 H 1.146352 -0.016850 1.418552 0
M  V30 43 H -3.634440 -3.799624 -0.050402 0
M  V30 END ATOM
M  V30 BEGIN BOND
M  V30 1 1 1 2
M  V30 2 1 2 3
M  V30 3 1 2 4
M  V30 4 1 4 5
M  V30 5 2 5 6
M  V30 6 1 6 7
M  V30 7 2 7 8
M  V30 8 1 8 9
M  V30 9 1 9 10
M  V30 10 2 10 11
M  V30 11 1 11 12
M  V30 12 2 12 13
M  V30 13 1 13 14
M  V30 14 1 14 15
M  V30 15 1 15 16
M  V30 16 1 16 17
M  V30 17 1 17 18
M  V30 18 1 13 19
M  V30 19 2 19 20
M  V30 20 1 8 21
M  V30 21 2 21 22
M  V30 22 1 21 23
M  V30 23 1 23 5
M  V30 24 1 20 7
M  V30 25 1 20 10
M  V30 26 1 18 14
M  V30 27 1 1 24
M  V30 28 1 1 25
M  V30 29 1 1 26
M  V30 30 1 3 27
M  V30 31 1 3 28
M  V30 32 1 3 29
M  V30 33 1 4 30
M  V30 34 1 4 31
M  V30 35 1 11 32
M  V30 36 1 12 33
M  V30 37 1 15 34
M  V30 38 1 15 35
M  V30 39 1 16 36
M  V30 40 1 16 37
M  V30 41 1 17 38
M  V30 42 1 17 39
M  V30 43 1 18 40
M  V30 44 1 18 41
M  V30 45 1 19 42
M  V30 46 1 23 43
M  V30 END BOND
M  V30 END CTAB
M  END
>  <Dataset>  (586) 
ChEMBL_Kinases

>  <Ligand_Instance>  (586) 
nan

>  <PDB_ID>  (586) 
nan

>  <Standardized_SMILES>  (586) 
CN(C)Cc1nc2c(sc3ccc(N4CCCC4)cc32)c(=O)[nH]1

>  <Name>  (586) 
nan

>  <Pocket>  (586) 
nan

>  <ATP_Site>  (586) 
nan

>  <Peripheral>  (586) 
nan

>  <Num_H_Atoms_ProtBoundConf>  (586) 
nan

>  <Num_Resolved_Atoms>  (586) 
nan

>  <Num_Not_Resolved_Atoms>  (586) 
nan

$$$$
CHEMBL212846
     RDKit          3D

  0  0  0  0  0  0  0  0  0  0999 V3000
M  V30 BEGIN CTAB
M  V30 COUNTS 40 44 0 0 0
M  V30 BEGIN ATOM
M  V30 1 C -0.253784 -7.024251 0.426995 0
M  V30 2 C -0.194312 -5.545923 0.600937 0
M  V30 3 C -0.234517 -4.757780 -0.523744 0
M  V30 4 C -0.176662 -3.396494 -0.307327 0
M  V30 5 C -0.082321 -2.762055 0.936183 0
M  V30 6 C -0.021742 -1.314888 0.932187 0
M  V30 7 C 0.979258 -0.843556 0.071131 0
M  V30 8 C 1.207323 0.513275 -0.055451 0
M  V30 9 N 2.100347 1.223701 -0.807086 0
M  V30 10 C 1.863668 2.517615 -0.525116 0
M  V30 11 C 2.544547 3.594120 -1.068202 0
M  V30 12 C 2.217789 4.881766 -0.706620 0
M  V30 13 C 1.184519 5.067235 0.219332 0
M  V30 14 O 0.850720 6.363211 0.587625 0
M  V30 15 C 0.558290 3.945199 0.711442 0
M  V30 16 C 0.842216 2.654461 0.387616 0
M  V30 17 C 0.436395 1.388135 0.676459 0
M  V30 18 C -0.536680 0.954451 1.514199 0
M  V30 19 C -0.765740 -0.393966 1.642015 0
M  V30 20 C -1.833532 -0.692157 2.561857 0
M  V30 21 O -2.304916 -1.812591 2.912410 0
M  V30 22 N -2.283152 0.596259 3.027185 0
M  V30 23 C -1.490432 1.577267 2.385469 0
M  V30 24 O -1.743541 2.753385 2.672271 0
M  V30 25 C -0.047219 -3.626121 2.009707 0
M  V30 26 C -0.101605 -4.993138 1.858971 0
M  V30 27 H 0.449445 -7.374398 -0.358721 0
M  V30 28 H -1.268814 -7.391688 0.177573 0
M  V30 29 H 0.112661 -7.516154 1.368148 0
M  V30 30 H -0.306291 -5.155826 -1.517364 0
M  V30 31 H -0.209790 -2.778705 -1.216173 0
M  V30 32 H 1.625907 -1.473510 -0.537196 0
M  V30 33 H 2.816322 0.810676 -1.464560 0
M  V30 34 H 3.345122 3.481731 -1.783875 0
M  V30 35 H 2.754011 5.716082 -1.135090 0
M  V30 36 H 1.481697 6.889817 1.171357 0
M  V30 37 H -0.210676 4.175279 1.406057 0
M  V30 38 H -3.067130 0.662076 3.718735 0
M  V30 39 H 0.034948 -3.158614 2.979978 0
M  V30 40 H -0.068850 -5.602372 2.756515 0
M  V30 END ATOM
M  V30 BEGIN BOND
M  V30 1 1 1 2
M  V30 2 2 2 3
M  V30 3 1 3 4
M  V30 4 2 4 5
M  V30 5 1 5 6
M  V30 6 2 6 7
M  V30 7 1 7 8
M  V30 8 1 8 9
M  V30 9 1 9 10
M  V30 10 2 10 11
M  V30 11 1 11 12
M  V30 12 2 12 13
M  V30 13 1 13 14
M  V30 14 1 13 15
M  V30 15 2 15 16
M  V30 16 1 16 17
M  V30 17 1 17 18
M  V30 18 2 18 19
M  V30 19 1 19 20
M  V30 20 2 20 21
M  V30 21 1 20 22
M  V30 22 1 22 23
M  V30 23 2 23 24
M  V30 24 1 5 25
M  V30 25 2 25 26
M  V30 26 1 26 2
M  V30 27 1 19 6
M  V30 28 2 17 8
M  V30 29 1 23 18
M  V30 30 1 16 10
M  V30 31 1 1 27
M  V30 32 1 1 28
M  V30 33 1 1 29
M  V30 34 1 3 30
M  V30 35 1 4 31
M  V30 36 1 7 32
M  V30 37 1 9 33
M  V30 38 1 11 34
M  V30 39 1 12 35
M  V30 40 1 14 36
M  V30 41 1 15 37
M  V30 42 1 22 38
M  V30 43 1 25 39
M  V30 44 1 26 40
M  V30 END BOND
M  V30 END CTAB
M  END
>  <Dataset>  (587) 
ChEMBL_Kinases

>  <Ligand_Instance>  (587) 
nan

>  <PDB_ID>  (587) 
nan

>  <Standardized_SMILES>  (587) 
Cc1ccc(-c2cc3[nH]c4ccc(O)cc4c3c3c2C(=O)NC3=O)cc1

>  <Name>  (587) 
nan

>  <Pocket>  (587) 
nan

>  <ATP_Site>  (587) 
nan

>  <Peripheral>  (587) 
nan

>  <Num_H_Atoms_ProtBoundConf>  (587) 
nan

>  <Num_Resolved_Atoms>  (587) 
nan

>  <Num_Not_Resolved_Atoms>  (587) 
nan

$$$$
CHEMBL594575
     RDKit          3D

  0  0  0  0  0  0  0  0  0  0999 V3000
M  V30 BEGIN CTAB
M  V30 COUNTS 21 22 0 0 0
M  V30 BEGIN ATOM
M  V30 1 O 0.116704 -2.001811 -0.005099 0
M  V30 2 C 1.188808 -2.647474 0.009762 0
M  V30 3 O 0.758661 -3.539427 -0.959001 0
M  V30 4 C 1.809386 -1.783625 1.053589 0
M  V30 5 N 0.895595 -0.736941 1.456356 0
M  V30 6 C 0.046047 -0.919205 2.512182 0
M  V30 7 N -0.700047 0.187825 2.710465 0
M  V30 8 C -0.362584 1.104487 1.804984 0
M  V30 9 C -0.732002 2.397145 1.471480 0
M  V30 10 Br -2.099991 3.193972 2.545813 0
M  V30 11 C -0.165171 3.099925 0.428485 0
M  V30 12 Br -0.749184 4.866795 0.061685 0
M  V30 13 C 0.821036 2.456106 -0.306083 0
M  V30 14 Br 1.565735 3.495986 -1.744299 0
M  V30 15 C 1.201005 1.182817 0.004475 0
M  V30 16 Br 2.548986 0.447856 -1.100484 0
M  V30 17 C 0.621878 0.511532 1.043774 0
M  V30 18 H 0.538991 -4.479885 -0.594939 0
M  V30 19 H 2.761375 -1.405791 0.648439 0
M  V30 20 H 2.105900 -2.392571 1.945823 0
M  V30 21 H -0.123289 -1.752552 3.181150 0
M  V30 END ATOM
M  V30 BEGIN BOND
M  V30 1 2 1 2
M  V30 2 1 2 3
M  V30 3 1 2 4
M  V30 4 1 4 5
M  V30 5 1 5 6
M  V30 6 2 6 7
M  V30 7 1 7 8
M  V30 8 2 8 9
M  V30 9 1 9 10
M  V30 10 1 9 11
M  V30 11 1 11 12
M  V30 12 2 11 13
M  V30 13 1 13 14
M  V30 14 1 13 15
M  V30 15 1 15 16
M  V30 16 2 15 17
M  V30 17 1 17 5
M  V30 18 1 17 8
M  V30 19 1 3 18
M  V30 20 1 4 19
M  V30 21 1 4 20
M  V30 22 1 6 21
M  V30 END BOND
M  V30 END CTAB
M  END
>  <Dataset>  (588) 
ChEMBL_Kinases

>  <Ligand_Instance>  (588) 
nan

>  <PDB_ID>  (588) 
nan

>  <Standardized_SMILES>  (588) 
O=C(O)Cn1cnc2c(Br)c(Br)c(Br)c(Br)c21

>  <Name>  (588) 
nan

>  <Pocket>  (588) 
nan

>  <ATP_Site>  (588) 
nan

>  <Peripheral>  (588) 
nan

>  <Num_H_Atoms_ProtBoundConf>  (588) 
nan

>  <Num_Resolved_Atoms>  (588) 
nan

>  <Num_Not_Resolved_Atoms>  (588) 
nan

$$$$
CHEMBL207071
     RDKit          3D

  0  0  0  0  0  0  0  0  0  0999 V3000
M  V30 BEGIN CTAB
M  V30 COUNTS 25 26 0 0 0
M  V30 BEGIN ATOM
M  V30 1 N -0.060572 -1.783023 5.098626 0
M  V30 2 C 0.638739 -2.423399 4.044906 0
M  V30 3 O 1.250806 -3.499060 4.151060 0
M  V30 4 C 0.637615 -1.761028 2.726387 0
M  V30 5 S -0.152291 -0.246084 2.336575 0
M  V30 6 C 0.341108 -0.204441 0.607817 0
M  V30 7 C 0.013632 0.825993 -0.357112 0
M  V30 8 C 0.465823 0.724952 -1.663941 0
M  V30 9 C 0.138086 1.721786 -2.560917 0
M  V30 10 C -0.631685 2.785840 -2.117423 0
M  V30 11 F -0.909965 3.719259 -3.052862 0
M  V30 12 C -1.076594 2.877417 -0.815993 0
M  V30 13 C -0.758070 1.888094 0.096730 0
M  V30 14 C 1.053578 -1.329336 0.477239 0
M  V30 15 C 1.241204 -2.171636 1.532984 0
M  V30 16 N 1.974480 -3.392167 1.523909 0
M  V30 17 H 0.082496 -0.989187 5.757670 0
M  V30 18 H -1.003916 -2.137203 5.368144 0
M  V30 19 H 1.060793 -0.135462 -1.930894 0
M  V30 20 H 0.495369 1.633408 -3.576443 0
M  V30 21 H -1.673659 3.716999 -0.500517 0
M  V30 22 H -1.085315 1.916992 1.130797 0
M  V30 23 H 1.487807 -1.560369 -0.509840 0
M  V30 24 H 1.549495 -4.343946 1.350956 0
M  V30 25 H 3.006482 -3.239035 1.712104 0
M  V30 END ATOM
M  V30 BEGIN BOND
M  V30 1 1 1 2
M  V30 2 2 2 3
M  V30 3 1 2 4
M  V30 4 1 4 5
M  V30 5 1 5 6
M  V30 6 1 6 7
M  V30 7 2 7 8
M  V30 8 1 8 9
M  V30 9 2 9 10
M  V30 10 1 10 11
M  V30 11 1 10 12
M  V30 12 2 12 13
M  V30 13 2 6 14
M  V30 14 1 14 15
M  V30 15 1 15 16
M  V30 16 2 15 4
M  V30 17 1 13 7
M  V30 18 1 1 17
M  V30 19 1 1 18
M  V30 20 1 8 19
M  V30 21 1 9 20
M  V30 22 1 12 21
M  V30 23 1 13 22
M  V30 24 1 14 23
M  V30 25 1 16 24
M  V30 26 1 16 25
M  V30 END BOND
M  V30 END CTAB
M  END
>  <Dataset>  (589) 
ChEMBL_Kinases

>  <Ligand_Instance>  (589) 
nan

>  <PDB_ID>  (589) 
nan

>  <Standardized_SMILES>  (589) 
NC(=O)c1sc(-c2ccc(F)cc2)cc1N

>  <Name>  (589) 
nan

>  <Pocket>  (589) 
nan

>  <ATP_Site>  (589) 
nan

>  <Peripheral>  (589) 
nan

>  <Num_H_Atoms_ProtBoundConf>  (589) 
nan

>  <Num_Resolved_Atoms>  (589) 
nan

>  <Num_Not_Resolved_Atoms>  (589) 
nan

$$$$
CHEMBL212594
     RDKit          3D

  0  0  0  0  0  0  0  0  0  0999 V3000
M  V30 BEGIN CTAB
M  V30 COUNTS 38 42 0 0 0
M  V30 BEGIN ATOM
M  V30 1 O 3.865546 0.046940 0.177179 0
M  V30 2 C 2.967323 -0.632869 0.742371 0
M  V30 3 N 3.102070 -1.696207 1.694465 0
M  V30 4 C 1.814953 -2.152196 2.043322 0
M  V30 5 O 1.772985 -3.076553 2.863946 0
M  V30 6 C 0.818123 -1.406123 1.335429 0
M  V30 7 C 1.516291 -0.507348 0.566565 0
M  V30 8 C 0.842625 0.390591 -0.262179 0
M  V30 9 C 1.565649 1.352430 -1.086067 0
M  V30 10 C 2.019284 1.182185 -2.377578 0
M  V30 11 C 2.693216 2.207050 -3.017017 0
M  V30 12 C 2.907415 3.395989 -2.356052 0
M  V30 13 C 2.457686 3.586824 -1.053580 0
M  V30 14 C 1.784137 2.553204 -0.423853 0
M  V30 15 O 1.390588 2.873417 0.869315 0
M  V30 16 C -0.536485 0.371779 -0.306386 0
M  V30 17 C -1.224421 -0.536640 0.471508 0
M  V30 18 N -2.546584 -0.750906 0.603734 0
M  V30 19 C -2.673425 -1.771093 1.505877 0
M  V30 20 C -3.858741 -2.326848 1.948009 0
M  V30 21 C -3.850080 -3.364285 2.871497 0
M  V30 22 C -2.610355 -3.823676 3.335040 0
M  V30 23 O -2.604916 -4.852182 4.250440 0
M  V30 24 C -1.479017 -3.214905 2.843350 0
M  V30 25 C -1.437896 -2.197679 1.940045 0
M  V30 26 C -0.540237 -1.413754 1.282187 0
M  V30 27 H 4.066857 -1.974614 1.984817 0
M  V30 28 H 1.775314 0.196998 -2.760981 0
M  V30 29 H 2.996060 1.955395 -4.017386 0
M  V30 30 H 3.447787 4.155069 -2.931515 0
M  V30 31 H 2.677642 4.555260 -0.627591 0
M  V30 32 H 1.246956 2.212397 1.606842 0
M  V30 33 H -1.044447 1.081709 -0.960520 0
M  V30 34 H -3.275904 -0.215943 0.095499 0
M  V30 35 H -4.814471 -1.971308 1.589417 0
M  V30 36 H -4.803348 -3.764325 3.185329 0
M  V30 37 H -2.368318 -4.667841 5.212449 0
M  V30 38 H -0.585143 -3.621077 3.244253 0
M  V30 END ATOM
M  V30 BEGIN BOND
M  V30 1 2 1 2
M  V30 2 1 2 3
M  V30 3 1 3 4
M  V30 4 2 4 5
M  V30 5 1 4 6
M  V30 6 2 6 7
M  V30 7 1 7 8
M  V30 8 1 8 9
M  V30 9 2 9 10
M  V30 10 1 10 11
M  V30 11 2 11 12
M  V30 12 1 12 13
M  V30 13 2 13 14
M  V30 14 1 14 15
M  V30 15 2 8 16
M  V30 16 1 16 17
M  V30 17 1 17 18
M  V30 18 1 18 19
M  V30 19 2 19 20
M  V30 20 1 20 21
M  V30 21 2 21 22
M  V30 22 1 22 23
M  V30 23 1 22 24
M  V30 24 2 24 25
M  V30 25 1 25 26
M  V30 26 1 7 2
M  V30 27 1 14 9
M  V30 28 2 26 17
M  V30 29 1 26 6
M  V30 30 1 25 19
M  V30 31 1 3 27
M  V30 32 1 10 28
M  V30 33 1 11 29
M  V30 34 1 12 30
M  V30 35 1 13 31
M  V30 36 1 15 32
M  V30 37 1 16 33
M  V30 38 1 18 34
M  V30 39 1 20 35
M  V30 40 1 21 36
M  V30 41 1 23 37
M  V30 42 1 24 38
M  V30 END BOND
M  V30 END CTAB
M  END
>  <Dataset>  (590) 
ChEMBL_Kinases

>  <Ligand_Instance>  (590) 
nan

>  <PDB_ID>  (590) 
nan

>  <Standardized_SMILES>  (590) 
O=C1NC(=O)c2c1c(-c1ccccc1O)cc1[nH]c3ccc(O)cc3c21

>  <Name>  (590) 
nan

>  <Pocket>  (590) 
nan

>  <ATP_Site>  (590) 
nan

>  <Peripheral>  (590) 
nan

>  <Num_H_Atoms_ProtBoundConf>  (590) 
nan

>  <Num_Resolved_Atoms>  (590) 
nan

>  <Num_Not_Resolved_Atoms>  (590) 
nan

$$$$
CHEMBL212945
     RDKit          3D

  0  0  0  0  0  0  0  0  0  0999 V3000
M  V30 BEGIN CTAB
M  V30 COUNTS 43 47 0 0 0
M  V30 BEGIN ATOM
M  V30 1 C 0.150382 -5.987089 1.696923 0
M  V30 2 C 0.114109 -4.959118 0.621825 0
M  V30 3 C -0.038181 -5.355930 -0.701236 0
M  V30 4 C -0.075200 -4.421831 -1.720507 0
M  V30 5 C 0.041690 -3.063116 -1.418607 0
M  V30 6 C 0.192403 -2.706692 -0.084685 0
M  V30 7 C 0.314041 -1.279708 0.220873 0
M  V30 8 C 1.575332 -0.717360 0.242565 0
M  V30 9 C 1.708231 0.628086 0.529176 0
M  V30 10 N 2.802197 1.408743 0.612740 0
M  V30 11 C 2.351108 2.660418 0.926134 0
M  V30 12 C 3.129969 3.805227 1.115833 0
M  V30 13 C 2.537231 5.030531 1.434920 0
M  V30 14 C 1.146484 5.058461 1.554248 0
M  V30 15 O 0.544638 6.269167 1.870849 0
M  V30 16 C 0.448425 3.890464 1.352850 0
M  V30 17 C 0.978742 2.677119 1.041485 0
M  V30 18 C 0.594990 1.395264 0.789342 0
M  V30 19 C -0.645701 0.840371 0.767623 0
M  V30 20 C -0.798826 -0.495331 0.484812 0
M  V30 21 C -2.188329 -0.928766 0.502049 0
M  V30 22 O -2.646591 -2.078883 0.285090 0
M  V30 23 N -2.910639 0.275713 0.827080 0
M  V30 24 C -1.977623 1.327823 0.983746 0
M  V30 25 O -2.460634 2.429150 1.266504 0
M  V30 26 C 0.231942 -3.638971 0.959689 0
M  V30 27 C 0.396541 -3.154562 2.352095 0
M  V30 28 H 1.094976 -5.970917 2.269596 0
M  V30 29 H -0.683293 -5.756172 2.398384 0
M  V30 30 H -0.088633 -6.979981 1.274266 0
M  V30 31 H -0.132551 -6.396418 -0.983179 0
M  V30 32 H -0.190410 -4.647490 -2.771888 0
M  V30 33 H 0.015427 -2.326418 -2.191817 0
M  V30 34 H 2.455695 -1.314377 0.038964 0
M  V30 35 H 3.764782 1.058504 0.457001 0
M  V30 36 H 4.204910 3.748706 1.015880 0
M  V30 37 H 3.184647 5.867027 1.567156 0
M  V30 38 H 0.077219 6.452113 2.752198 0
M  V30 39 H -0.599553 4.008397 1.464184 0
M  V30 40 H -3.964158 0.226804 0.901983 0
M  V30 41 H 0.345250 -4.048270 3.012416 0
M  V30 42 H -0.425803 -2.491693 2.636602 0
M  V30 43 H 1.399733 -2.718378 2.533627 0
M  V30 END ATOM
M  V30 BEGIN BOND
M  V30 1 1 1 2
M  V30 2 2 2 3
M  V30 3 1 3 4
M  V30 4 2 4 5
M  V30 5 1 5 6
M  V30 6 1 6 7
M  V30 7 2 7 8
M  V30 8 1 8 9
M  V30 9 1 9 10
M  V30 10 1 10 11
M  V30 11 2 11 12
M  V30 12 1 12 13
M  V30 13 2 13 14
M  V30 14 1 14 15
M  V30 15 1 14 16
M  V30 16 2 16 17
M  V30 17 1 17 18
M  V30 18 1 18 19
M  V30 19 2 19 20
M  V30 20 1 20 21
M  V30 21 2 21 22
M  V30 22 1 21 23
M  V30 23 1 23 24
M  V30 24 2 24 25
M  V30 25 2 6 26
M  V30 26 1 26 27
M  V30 27 1 26 2
M  V30 28 1 20 7
M  V30 29 2 18 9
M  V30 30 1 24 19
M  V30 31 1 17 11
M  V30 32 1 1 28
M  V30 33 1 1 29
M  V30 34 1 1 30
M  V30 35 1 3 31
M  V30 36 1 4 32
M  V30 37 1 5 33
M  V30 38 1 8 34
M  V30 39 1 10 35
M  V30 40 1 12 36
M  V30 41 1 13 37
M  V30 42 1 15 38
M  V30 43 1 16 39
M  V30 44 1 23 40
M  V30 45 1 27 41
M  V30 46 1 27 42
M  V30 47 1 27 43
M  V30 END BOND
M  V30 END CTAB
M  END
>  <Dataset>  (591) 
ChEMBL_Kinases

>  <Ligand_Instance>  (591) 
nan

>  <PDB_ID>  (591) 
nan

>  <Standardized_SMILES>  (591) 
Cc1cccc(-c2cc3[nH]c4ccc(O)cc4c3c3c2C(=O)NC3=O)c1C

>  <Name>  (591) 
nan

>  <Pocket>  (591) 
nan

>  <ATP_Site>  (591) 
nan

>  <Peripheral>  (591) 
nan

>  <Num_H_Atoms_ProtBoundConf>  (591) 
nan

>  <Num_Resolved_Atoms>  (591) 
nan

>  <Num_Not_Resolved_Atoms>  (591) 
nan

$$$$
CHEMBL212933
     RDKit          3D

  0  0  0  0  0  0  0  0  0  0999 V3000
M  V30 BEGIN CTAB
M  V30 COUNTS 39 43 0 0 0
M  V30 BEGIN ATOM
M  V30 1 N 1.864197 -4.534125 2.217192 0
M  V30 2 N 1.325818 -3.279801 1.824462 0
M  V30 3 C 1.667387 -2.733163 0.540508 0
M  V30 4 O 2.416624 -3.233823 -0.332201 0
M  V30 5 C 0.940262 -1.470966 0.502222 0
M  V30 6 C 0.938628 -0.554208 -0.529695 0
M  V30 7 C 1.612592 -0.613764 -1.821046 0
M  V30 8 C 1.610429 -1.621338 -2.763580 0
M  V30 9 C 2.310229 -1.531908 -3.928853 0
M  V30 10 C 3.061619 -0.413996 -4.221213 0
M  V30 11 C 3.114453 0.636552 -3.329838 0
M  V30 12 C 2.390264 0.500508 -2.164262 0
M  V30 13 C 0.185019 0.620535 -0.400224 0
M  V30 14 C -0.544136 0.848570 0.749102 0
M  V30 15 N -1.346683 1.888039 1.124919 0
M  V30 16 C -1.793024 1.562863 2.352018 0
M  V30 17 C -2.652913 2.345269 3.127952 0
M  V30 18 C -3.046811 1.911102 4.376547 0
M  V30 19 C -2.567816 0.679681 4.840861 0
M  V30 20 O -2.960826 0.237435 6.096829 0
M  V30 21 C -1.726141 -0.026341 4.013969 0
M  V30 22 C -1.303640 0.348652 2.776969 0
M  V30 23 C -0.517705 -0.089457 1.755472 0
M  V30 24 C 0.209462 -1.230121 1.639581 0
M  V30 25 C 0.453233 -2.373603 2.474769 0
M  V30 26 O 0.071444 -2.713217 3.600088 0
M  V30 27 H 1.654699 -5.273019 1.529895 0
M  V30 28 H 1.548077 -4.794909 3.156340 0
M  V30 29 H 1.003596 -2.476260 -2.503800 0
M  V30 30 H 2.250696 -2.368443 -4.607503 0
M  V30 31 H 3.609530 -0.364000 -5.152328 0
M  V30 32 H 3.690188 1.531357 -3.518379 0
M  V30 33 H 2.449371 1.348296 -1.474357 0
M  V30 34 H 0.116878 1.412536 -1.161441 0
M  V30 35 H -1.551302 2.742910 0.555937 0
M  V30 36 H -3.032979 3.282493 2.804449 0
M  V30 37 H -3.710765 2.497283 4.995923 0
M  V30 38 H -3.746815 -0.391778 6.165273 0
M  V30 39 H -1.406174 -0.946645 4.433558 0
M  V30 END ATOM
M  V30 BEGIN BOND
M  V30 1 1 1 2
M  V30 2 1 2 3
M  V30 3 2 3 4
M  V30 4 1 3 5
M  V30 5 2 5 6
M  V30 6 1 6 7
M  V30 7 2 7 8
M  V30 8 1 8 9
M  V30 9 2 9 10
M  V30 10 1 10 11
M  V30 11 2 11 12
M  V30 12 1 6 13
M  V30 13 2 13 14
M  V30 14 1 14 15
M  V30 15 1 15 16
M  V30 16 2 16 17
M  V30 17 1 17 18
M  V30 18 2 18 19
M  V30 19 1 19 20
M  V30 20 1 19 21
M  V30 21 2 21 22
M  V30 22 1 22 23
M  V30 23 2 23 24
M  V30 24 1 24 25
M  V30 25 2 25 26
M  V30 26 1 25 2
M  V30 27 1 24 5
M  V30 28 1 12 7
M  V30 29 1 23 14
M  V30 30 1 22 16
M  V30 31 1 1 27
M  V30 32 1 1 28
M  V30 33 1 8 29
M  V30 34 1 9 30
M  V30 35 1 10 31
M  V30 36 1 11 32
M  V30 37 1 12 33
M  V30 38 1 13 34
M  V30 39 1 15 35
M  V30 40 1 17 36
M  V30 41 1 18 37
M  V30 42 1 20 38
M  V30 43 1 21 39
M  V30 END BOND
M  V30 END CTAB
M  END
>  <Dataset>  (592) 
ChEMBL_Kinases

>  <Ligand_Instance>  (592) 
nan

>  <PDB_ID>  (592) 
nan

>  <Standardized_SMILES>  (592) 
NN1C(=O)c2c(-c3ccccc3)cc3[nH]c4ccc(O)cc4c3c2C1=O

>  <Name>  (592) 
nan

>  <Pocket>  (592) 
nan

>  <ATP_Site>  (592) 
nan

>  <Peripheral>  (592) 
nan

>  <Num_H_Atoms_ProtBoundConf>  (592) 
nan

>  <Num_Resolved_Atoms>  (592) 
nan

>  <Num_Not_Resolved_Atoms>  (592) 
nan

$$$$
CHEMBL84558
     RDKit          3D

  0  0  0  0  0  0  0  0  0  0999 V3000
M  V30 BEGIN CTAB
M  V30 COUNTS 31 32 0 0 0
M  V30 BEGIN ATOM
M  V30 1 C -2.519744 -2.773951 3.257046 0
M  V30 2 C -2.874337 -3.709717 2.172223 0
M  V30 3 C -1.811755 -4.188659 1.261717 0
M  V30 4 O -1.096545 -3.330116 0.502059 0
M  V30 5 C -0.239553 -2.311346 0.686278 0
M  V30 6 C 0.356206 -1.638904 1.725376 0
M  V30 7 C 1.224500 -0.585338 1.564639 0
M  V30 8 C 1.541902 -0.148206 0.298996 0
M  V30 9 C 2.475989 0.969916 0.298512 0
M  V30 10 C 2.406839 1.986144 -0.500025 0
M  V30 11 S 1.115668 2.167320 -1.752424 0
M  V30 12 C 1.263219 3.957134 -1.776106 0
M  V30 13 O 0.559949 4.995553 -2.044487 0
M  V30 14 N 2.612134 4.249995 -1.352677 0
M  V30 15 C 3.211387 3.175947 -0.666644 0
M  V30 16 O 4.394362 3.136304 -0.172093 0
M  V30 17 C 0.986647 -0.770160 -0.817056 0
M  V30 18 C 0.105333 -1.841559 -0.595274 0
M  V30 19 H -2.296345 -1.741232 2.926216 0
M  V30 20 H -3.394552 -2.676820 3.943095 0
M  V30 21 H -1.687952 -3.103227 3.898186 0
M  V30 22 H -3.292152 -4.638581 2.676480 0
M  V30 23 H -3.760488 -3.359405 1.565812 0
M  V30 24 H -1.072774 -4.802335 1.873960 0
M  V30 25 H -2.305457 -4.934454 0.572610 0
M  V30 26 H 0.081201 -2.036079 2.682052 0
M  V30 27 H 1.591910 -0.181170 2.500568 0
M  V30 28 H 3.308845 1.009855 0.992333 0
M  V30 29 H 3.183605 5.141030 -1.491197 0
M  V30 30 H 1.302532 -0.355741 -1.732782 0
M  V30 31 H -0.215937 -2.186510 -1.581931 0
M  V30 END ATOM
M  V30 BEGIN BOND
M  V30 1 1 1 2
M  V30 2 1 2 3
M  V30 3 1 3 4
M  V30 4 1 4 5
M  V30 5 2 5 6
M  V30 6 1 6 7
M  V30 7 2 7 8
M  V30 8 1 8 9
M  V30 9 2 9 10
M  V30 10 1 10 11
M  V30 11 1 11 12
M  V30 12 2 12 13
M  V30 13 1 12 14
M  V30 14 1 14 15
M  V30 15 2 15 16
M  V30 16 1 8 17
M  V30 17 2 17 18
M  V30 18 1 18 5
M  V30 19 1 15 10
M  V30 20 1 1 19
M  V30 21 1 1 20
M  V30 22 1 1 21
M  V30 23 1 2 22
M  V30 24 1 2 23
M  V30 25 1 3 24
M  V30 26 1 3 25
M  V30 27 1 6 26
M  V30 28 1 7 27
M  V30 29 1 9 28
M  V30 30 1 14 29
M  V30 31 1 17 30
M  V30 32 1 18 31
M  V30 END BOND
M  V30 END CTAB
M  END
>  <Dataset>  (593) 
ChEMBL_Kinases

>  <Ligand_Instance>  (593) 
nan

>  <PDB_ID>  (593) 
nan

>  <Standardized_SMILES>  (593) 
CCCOc1ccc(/C=C2\SC(=O)NC2=O)cc1

>  <Name>  (593) 
nan

>  <Pocket>  (593) 
nan

>  <ATP_Site>  (593) 
nan

>  <Peripheral>  (593) 
nan

>  <Num_H_Atoms_ProtBoundConf>  (593) 
nan

>  <Num_Resolved_Atoms>  (593) 
nan

>  <Num_Not_Resolved_Atoms>  (593) 
nan

$$$$
CHEMBL4635582
     RDKit          3D

  0  0  0  0  0  0  0  0  0  0999 V3000
M  V30 BEGIN CTAB
M  V30 COUNTS 58 62 0 0 0
M  V30 BEGIN ATOM
M  V30 1 C 2.986214 -2.996011 5.309728 0
M  V30 2 C 3.227608 -2.829226 3.837496 0
M  V30 3 C 4.034217 -3.775245 3.236693 0
M  V30 4 C 4.275265 -3.652810 1.883910 0
M  V30 5 C 3.728779 -2.618964 1.155227 0
M  V30 6 C 2.933115 -1.703306 1.800064 0
M  V30 7 C 2.255107 -0.516201 1.280313 0
M  V30 8 N 2.491556 0.762212 1.620708 0
M  V30 9 N 1.704326 1.585975 0.950751 0
M  V30 10 C 1.535165 3.036176 0.976864 0
M  V30 11 C 0.387792 3.294855 1.950661 0
M  V30 12 S 0.284461 4.259814 3.257048 0
M  V30 13 N -0.907500 2.898913 2.164481 0
M  V30 14 C -2.227461 2.497874 2.385469 0
M  V30 15 C -2.749682 3.222759 3.466635 0
M  V30 16 C -4.064311 2.944678 3.831714 0
M  V30 17 C -4.724957 1.989049 3.100423 0
M  V30 18 C -4.250388 1.273333 2.053786 0
M  V30 19 C -4.934285 0.281349 1.294583 0
M  V30 20 N -5.470610 -0.526854 0.671029 0
M  V30 21 C -2.958867 1.549813 1.699406 0
M  V30 22 C 0.941496 0.765151 0.156934 0
M  V30 23 C 1.271449 -0.584945 0.348579 0
M  V30 24 C 0.539255 -1.581548 -0.429056 0
M  V30 25 C -0.000683 -2.617982 0.272877 0
M  V30 26 C -0.789297 -3.612624 -0.317379 0
M  V30 27 N -0.957131 -3.433842 -1.635509 0
M  V30 28 C -0.441325 -2.429318 -2.347265 0
M  V30 29 C -0.767377 -2.369932 -3.790390 0
M  V30 30 C -1.615185 -3.371408 -4.287565 0
M  V30 31 C -2.001494 -3.436402 -5.606451 0
M  V30 32 C -1.522933 -2.465278 -6.459990 0
M  V30 33 C -0.692076 -1.489230 -5.958446 0
M  V30 34 C -0.283989 -1.398000 -4.630147 0
M  V30 35 C 0.347701 -1.426174 -1.792658 0
M  V30 36 N 2.692161 -1.818721 3.130329 0
M  V30 37 H 3.029745 -4.057703 5.575466 0
M  V30 38 H 2.008384 -2.543675 5.552987 0
M  V30 39 H 3.773050 -2.418060 5.836983 0
M  V30 40 H 4.491380 -4.605417 3.769004 0
M  V30 41 H 4.884795 -4.328087 1.301972 0
M  V30 42 H 3.835766 -2.409072 0.099491 0
M  V30 43 H 1.317563 3.421289 -0.018440 0
M  V30 44 H 2.438970 3.483312 1.371001 0
M  V30 45 H -0.658225 2.336835 1.332509 0
M  V30 46 H -2.277065 3.972738 4.067809 0
M  V30 47 H -4.604208 3.419632 4.640209 0
M  V30 48 H -5.747398 1.751781 3.365309 0
M  V30 49 H -2.475176 1.034702 0.877611 0
M  V30 50 H 0.189492 1.159224 -0.523176 0
M  V30 51 H 0.145367 -2.739624 1.333761 0
M  V30 52 H -1.259485 -4.469152 0.128899 0
M  V30 53 H -2.026477 -4.172642 -3.659497 0
M  V30 54 H -2.666339 -4.217122 -5.983411 0
M  V30 55 H -1.783300 -2.437384 -7.530036 0
M  V30 56 H -0.289376 -0.697310 -6.612333 0
M  V30 57 H 0.369922 -0.616627 -4.287073 0
M  V30 58 H 0.771107 -0.613417 -2.332631 0
M  V30 END ATOM
M  V30 BEGIN BOND
M  V30 1 1 1 2
M  V30 2 2 2 3
M  V30 3 1 3 4
M  V30 4 2 4 5
M  V30 5 1 5 6
M  V30 6 1 6 7
M  V30 7 2 7 8
M  V30 8 1 8 9
M  V30 9 1 9 10
M  V30 10 1 10 11
M  V30 11 2 11 12
M  V30 12 1 11 13
M  V30 13 1 13 14
M  V30 14 2 14 15
M  V30 15 1 15 16
M  V30 16 2 16 17
M  V30 17 1 17 18
M  V30 18 1 18 19
M  V30 19 3 19 20
M  V30 20 2 18 21
M  V30 21 1 9 22
M  V30 22 2 22 23
M  V30 23 1 23 24
M  V30 24 2 24 25
M  V30 25 1 25 26
M  V30 26 2 26 27
M  V30 27 1 27 28
M  V30 28 1 28 29
M  V30 29 2 29 30
M  V30 30 1 30 31
M  V30 31 2 31 32
M  V30 32 1 32 33
M  V30 33 2 33 34
M  V30 34 2 28 35
M  V30 35 2 6 36
M  V30 36 1 36 2
M  V30 37 1 23 7
M  V30 38 1 35 24
M  V30 39 1 21 14
M  V30 40 1 34 29
M  V30 41 1 1 37
M  V30 42 1 1 38
M  V30 43 1 1 39
M  V30 44 1 3 40
M  V30 45 1 4 41
M  V30 46 1 5 42
M  V30 47 1 10 43
M  V30 48 1 10 44
M  V30 49 1 13 45
M  V30 50 1 15 46
M  V30 51 1 16 47
M  V30 52 1 17 48
M  V30 53 1 21 49
M  V30 54 1 22 50
M  V30 55 1 25 51
M  V30 56 1 26 52
M  V30 57 1 30 53
M  V30 58 1 31 54
M  V30 59 1 32 55
M  V30 60 1 33 56
M  V30 61 1 34 57
M  V30 62 1 35 58
M  V30 END BOND
M  V30 END CTAB
M  END
>  <Dataset>  (594) 
ChEMBL_Kinases

>  <Ligand_Instance>  (594) 
nan

>  <PDB_ID>  (594) 
nan

>  <Standardized_SMILES>  (594) 
Cc1cccc(-c2nn(CC(=S)Nc3cccc(C#N)c3)cc2-c2ccnc(-c3ccccc3)c2)n1

>  <Name>  (594) 
nan

>  <Pocket>  (594) 
nan

>  <ATP_Site>  (594) 
nan

>  <Peripheral>  (594) 
nan

>  <Num_H_Atoms_ProtBoundConf>  (594) 
nan

>  <Num_Resolved_Atoms>  (594) 
nan

>  <Num_Not_Resolved_Atoms>  (594) 
nan

$$$$
CHEMBL589336
     RDKit          3D

  0  0  0  0  0  0  0  0  0  0999 V3000
M  V30 BEGIN CTAB
M  V30 COUNTS 53 55 0 0 0
M  V30 BEGIN ATOM
M  V30 1 C 0.588753 -3.758038 2.610180 0
M  V30 2 C -0.471278 -2.903503 3.192501 0
M  V30 3 N -0.330614 -1.472443 2.877140 0
M  V30 4 C -1.431337 -0.765413 3.555390 0
M  V30 5 C -1.448065 0.697465 3.314931 0
M  V30 6 C 0.516823 -0.622381 2.129644 0
M  V30 7 N 1.363224 0.115489 2.872694 0
M  V30 8 C 2.229860 0.940218 2.258510 0
M  V30 9 C 2.262777 1.039531 0.886141 0
M  V30 10 C 3.188943 1.923254 0.187207 0
M  V30 11 C 4.113536 2.737852 0.804253 0
M  V30 12 C 4.942509 3.536911 0.027436 0
M  V30 13 N 4.897283 3.565648 -1.331117 0
M  V30 14 C 3.995823 2.772011 -1.943998 0
M  V30 15 C 3.162555 1.970284 -1.191049 0
M  V30 16 N 1.394875 0.279816 0.197976 0
M  V30 17 C 0.512094 -0.557363 0.771519 0
M  V30 18 N -0.306776 -1.241784 -0.160001 0
M  V30 19 C -0.476790 -2.645824 -0.489533 0
M  V30 20 C -1.793355 -3.098090 0.085120 0
M  V30 21 C -2.807903 -3.088142 -1.067978 0
M  V30 22 N -2.621068 -1.881464 -1.866521 0
M  V30 23 C -3.767514 -1.786311 -2.754468 0
M  V30 24 C -2.498497 -0.707307 -1.031259 0
M  V30 25 C -1.074164 -0.223134 -0.881361 0
M  V30 26 H 0.154648 -4.479158 1.855838 0
M  V30 27 H 1.339966 -3.174426 2.027561 0
M  V30 28 H 1.063413 -4.403004 3.375927 0
M  V30 29 H -1.479668 -3.269628 2.998900 0
M  V30 30 H -0.326642 -2.928954 4.316351 0
M  V30 31 H -2.387252 -1.220397 3.178927 0
M  V30 32 H -1.316226 -1.026470 4.644439 0
M  V30 33 H -2.515767 1.027711 3.150353 0
M  V30 34 H -0.777709 1.084023 2.542208 0
M  V30 35 H -1.155972 1.213926 4.276669 0
M  V30 36 H 2.901239 1.524154 2.875280 0
M  V30 37 H 4.175487 2.739429 1.870095 0
M  V30 38 H 5.670039 4.178149 0.507184 0
M  V30 39 H 3.986337 2.818948 -3.024771 0
M  V30 40 H 2.454017 1.351069 -1.757817 0
M  V30 41 H 0.390874 -3.262732 -0.195680 0
M  V30 42 H -0.490289 -2.765236 -1.618977 0
M  V30 43 H -1.776693 -4.148752 0.447582 0
M  V30 44 H -2.162520 -2.438137 0.886219 0
M  V30 45 H -3.833022 -3.247345 -0.732612 0
M  V30 46 H -2.510882 -3.942624 -1.720170 0
M  V30 47 H -4.500138 -1.060956 -2.323650 0
M  V30 48 H -3.444855 -1.484911 -3.775129 0
M  V30 49 H -4.325469 -2.757377 -2.822832 0
M  V30 50 H -3.024038 0.123948 -1.597401 0
M  V30 51 H -2.945479 -0.821188 -0.032904 0
M  V30 52 H -1.069301 0.760161 -0.423625 0
M  V30 53 H -0.649726 -0.231490 -1.913719 0
M  V30 END ATOM
M  V30 BEGIN BOND
M  V30 1 1 1 2
M  V30 2 1 2 3
M  V30 3 1 3 4
M  V30 4 1 4 5
M  V30 5 1 3 6
M  V30 6 2 6 7
M  V30 7 1 7 8
M  V30 8 2 8 9
M  V30 9 1 9 10
M  V30 10 2 10 11
M  V30 11 1 11 12
M  V30 12 2 12 13
M  V30 13 1 13 14
M  V30 14 2 14 15
M  V30 15 1 9 16
M  V30 16 2 16 17
M  V30 17 1 17 18
M  V30 18 1 18 19
M  V30 19 1 19 20
M  V30 20 1 20 21
M  V30 21 1 21 22
M  V30 22 1 22 23
M  V30 23 1 22 24
M  V30 24 1 24 25
M  V30 25 1 17 6
M  V30 26 1 25 18
M  V30 27 1 15 10
M  V30 28 1 1 26
M  V30 29 1 1 27
M  V30 30 1 1 28
M  V30 31 1 2 29
M  V30 32 1 2 30
M  V30 33 1 4 31
M  V30 34 1 4 32
M  V30 35 1 5 33
M  V30 36 1 5 34
M  V30 37 1 5 35
M  V30 38 1 8 36
M  V30 39 1 11 37
M  V30 40 1 12 38
M  V30 41 1 14 39
M  V30 42 1 15 40
M  V30 43 1 19 41
M  V30 44 1 19 42
M  V30 45 1 20 43
M  V30 46 1 20 44
M  V30 47 1 21 45
M  V30 48 1 21 46
M  V30 49 1 23 47
M  V30 50 1 23 48
M  V30 51 1 23 49
M  V30 52 1 24 50
M  V30 53 1 24 51
M  V30 54 1 25 52
M  V30 55 1 25 53
M  V30 END BOND
M  V30 END CTAB
M  END
>  <Dataset>  (595) 
ChEMBL_Kinases

>  <Ligand_Instance>  (595) 
nan

>  <PDB_ID>  (595) 
nan

>  <Standardized_SMILES>  (595) 
CCN(CC)c1ncc(-c2ccncc2)nc1N1CCCN(C)CC1

>  <Name>  (595) 
nan

>  <Pocket>  (595) 
nan

>  <ATP_Site>  (595) 
nan

>  <Peripheral>  (595) 
nan

>  <Num_H_Atoms_ProtBoundConf>  (595) 
nan

>  <Num_Resolved_Atoms>  (595) 
nan

>  <Num_Not_Resolved_Atoms>  (595) 
nan

$$$$
CHEMBL209907
     RDKit          3D

  0  0  0  0  0  0  0  0  0  0999 V3000
M  V30 BEGIN CTAB
M  V30 COUNTS 27 30 0 0 0
M  V30 BEGIN ATOM
M  V30 1 O 2.997155 -2.702942 4.284630 0
M  V30 2 C 2.119479 -2.486589 3.410135 0
M  V30 3 N 1.043692 -3.337819 3.010922 0
M  V30 4 C 0.307274 -2.688308 1.995210 0
M  V30 5 O -0.667013 -3.299126 1.537200 0
M  V30 6 C 0.884797 -1.402063 1.709865 0
M  V30 7 C 1.955546 -1.310931 2.562786 0
M  V30 8 C 2.771972 -0.177937 2.572343 0
M  V30 9 C 2.478024 0.850491 1.703474 0
M  V30 10 C 1.398775 0.744668 0.852198 0
M  V30 11 N 0.911869 1.586786 -0.068027 0
M  V30 12 C -0.178303 0.987514 -0.631259 0
M  V30 13 C -0.981500 1.507572 -1.625626 0
M  V30 14 C -2.056675 0.785151 -2.101966 0
M  V30 15 C -2.268673 -0.470855 -1.524930 0
M  V30 16 O -3.356570 -1.177615 -2.021494 0
M  V30 17 C -1.452482 -0.940773 -0.549757 0
M  V30 18 C -0.385776 -0.249191 -0.062019 0
M  V30 19 C 0.609532 -0.377131 0.858947 0
M  V30 20 H 0.925873 -4.280476 3.478999 0
M  V30 21 H 3.620901 -0.081803 3.234177 0
M  V30 22 H 3.098255 1.733806 1.697120 0
M  V30 23 H 1.318487 2.517108 -0.283809 0
M  V30 24 H -0.791829 2.474689 -2.047515 0
M  V30 25 H -2.708815 1.156424 -2.878596 0
M  V30 26 H -4.047700 -1.619938 -1.443586 0
M  V30 27 H -1.700637 -1.885074 -0.191190 0
M  V30 END ATOM
M  V30 BEGIN BOND
M  V30 1 2 1 2
M  V30 2 1 2 3
M  V30 3 1 3 4
M  V30 4 2 4 5
M  V30 5 1 4 6
M  V30 6 2 6 7
M  V30 7 1 7 8
M  V30 8 2 8 9
M  V30 9 1 9 10
M  V30 10 1 10 11
M  V30 11 1 11 12
M  V30 12 2 12 13
M  V30 13 1 13 14
M  V30 14 2 14 15
M  V30 15 1 15 16
M  V30 16 1 15 17
M  V30 17 2 17 18
M  V30 18 1 18 19
M  V30 19 1 7 2
M  V30 20 2 19 10
M  V30 21 1 19 6
M  V30 22 1 18 12
M  V30 23 1 3 20
M  V30 24 1 8 21
M  V30 25 1 9 22
M  V30 26 1 11 23
M  V30 27 1 13 24
M  V30 28 1 14 25
M  V30 29 1 16 26
M  V30 30 1 17 27
M  V30 END BOND
M  V30 END CTAB
M  END
>  <Dataset>  (596) 
ChEMBL_Kinases

>  <Ligand_Instance>  (596) 
nan

>  <PDB_ID>  (596) 
nan

>  <Standardized_SMILES>  (596) 
O=C1NC(=O)c2c1ccc1[nH]c3ccc(O)cc3c21

>  <Name>  (596) 
nan

>  <Pocket>  (596) 
nan

>  <ATP_Site>  (596) 
nan

>  <Peripheral>  (596) 
nan

>  <Num_H_Atoms_ProtBoundConf>  (596) 
nan

>  <Num_Resolved_Atoms>  (596) 
nan

>  <Num_Not_Resolved_Atoms>  (596) 
nan

$$$$
CHEMBL4642258
     RDKit          3D

  0  0  0  0  0  0  0  0  0  0999 V3000
M  V30 BEGIN CTAB
M  V30 COUNTS 47 50 0 0 0
M  V30 BEGIN ATOM
M  V30 1 C 1.118369 -0.191760 7.675437 0
M  V30 2 N 1.265176 0.057319 6.244122 0
M  V30 3 C 2.310180 0.714576 5.707759 0
M  V30 4 C 2.007343 0.699194 4.349229 0
M  V30 5 C 2.825353 1.287252 3.292870 0
M  V30 6 C 4.018406 1.928973 3.619416 0
M  V30 7 N 4.789606 2.480710 2.646290 0
M  V30 8 C 4.375644 2.393559 1.361099 0
M  V30 9 N 5.196056 2.978747 0.340982 0
M  V30 10 C 3.196046 1.764540 0.991023 0
M  V30 11 O 2.769209 1.674093 -0.328958 0
M  V30 12 C 1.581581 1.038501 -0.681607 0
M  V30 13 C 0.358469 1.694466 -0.758873 0
M  V30 14 C -0.800355 0.994317 -1.120371 0
M  V30 15 C -0.755502 -0.356443 -1.406938 0
M  V30 16 C -2.002715 -1.022022 -1.776710 0
M  V30 17 O -3.032080 -0.309355 -1.806525 0
M  V30 18 N -2.058819 -2.405847 -2.088762 0
M  V30 19 C -3.230888 -3.122979 -2.456188 0
M  V30 20 C -3.721371 -3.308763 -3.732403 0
M  V30 21 C -4.897383 -4.048995 -3.900609 0
M  V30 22 C -5.543159 -4.577100 -2.799832 0
M  V30 23 Cl -7.022246 -5.502466 -3.067644 0
M  V30 24 C -5.052570 -4.393046 -1.505811 0
M  V30 25 C -3.889334 -3.657766 -1.369773 0
M  V30 26 C 0.469779 -0.986514 -1.323650 0
M  V30 27 C 1.629450 -0.323858 -0.970194 0
M  V30 28 N 2.488225 1.245745 1.991442 0
M  V30 29 C 0.812614 0.044091 4.129421 0
M  V30 30 N 0.385080 -0.338972 5.336030 0
M  V30 31 H 0.121026 -0.560819 7.932618 0
M  V30 32 H 1.861228 -0.928141 8.042927 0
M  V30 33 H 1.274891 0.733842 8.275886 0
M  V30 34 H 3.156613 1.138068 6.214500 0
M  V30 35 H 4.321125 1.979272 4.675424 0
M  V30 36 H 5.833069 3.792490 0.470659 0
M  V30 37 H 5.158771 2.560233 -0.617970 0
M  V30 38 H 0.351385 2.751740 -0.529505 0
M  V30 39 H -1.692376 1.603788 -1.148058 0
M  V30 40 H -1.200774 -2.999605 -2.063802 0
M  V30 41 H -3.145302 -2.856675 -4.527768 0
M  V30 42 H -5.256346 -4.176352 -4.918653 0
M  V30 43 H -5.604297 -4.833889 -0.666587 0
M  V30 44 H -3.576412 -3.561107 -0.340846 0
M  V30 45 H 0.521021 -2.042857 -1.544811 0
M  V30 46 H 2.580394 -0.852655 -0.914298 0
M  V30 47 H 0.295905 -0.141801 3.191609 0
M  V30 END ATOM
M  V30 BEGIN BOND
M  V30 1 1 1 2
M  V30 2 1 2 3
M  V30 3 2 3 4
M  V30 4 1 4 5
M  V30 5 2 5 6
M  V30 6 1 6 7
M  V30 7 2 7 8
M  V30 8 1 8 9
M  V30 9 1 8 10
M  V30 10 1 10 11
M  V30 11 1 11 12
M  V30 12 2 12 13
M  V30 13 1 13 14
M  V30 14 2 14 15
M  V30 15 1 15 16
M  V30 16 2 16 17
M  V30 17 1 16 18
M  V30 18 1 18 19
M  V30 19 2 19 20
M  V30 20 1 20 21
M  V30 21 2 21 22
M  V30 22 1 22 23
M  V30 23 1 22 24
M  V30 24 2 24 25
M  V30 25 1 15 26
M  V30 26 2 26 27
M  V30 27 2 10 28
M  V30 28 1 4 29
M  V30 29 2 29 30
M  V30 30 1 30 2
M  V30 31 1 28 5
M  V30 32 1 27 12
M  V30 33 1 25 19
M  V30 34 1 1 31
M  V30 35 1 1 32
M  V30 36 1 1 33
M  V30 37 1 3 34
M  V30 38 1 6 35
M  V30 39 1 9 36
M  V30 40 1 9 37
M  V30 41 1 13 38
M  V30 42 1 14 39
M  V30 43 1 18 40
M  V30 44 1 20 41
M  V30 45 1 21 42
M  V30 46 1 24 43
M  V30 47 1 25 44
M  V30 48 1 26 45
M  V30 49 1 27 46
M  V30 50 1 29 47
M  V30 END BOND
M  V30 END CTAB
M  END
>  <Dataset>  (597) 
ChEMBL_Kinases

>  <Ligand_Instance>  (597) 
nan

>  <PDB_ID>  (597) 
nan

>  <Standardized_SMILES>  (597) 
Cn1cc(-c2cnc(N)c(Oc3ccc(C(=O)Nc4ccc(Cl)cc4)cc3)n2)cn1

>  <Name>  (597) 
nan

>  <Pocket>  (597) 
nan

>  <ATP_Site>  (597) 
nan

>  <Peripheral>  (597) 
nan

>  <Num_H_Atoms_ProtBoundConf>  (597) 
nan

>  <Num_Resolved_Atoms>  (597) 
nan

>  <Num_Not_Resolved_Atoms>  (597) 
nan

$$$$
CHEMBL1090975
     RDKit          3D

  0  0  0  0  0  0  0  0  0  0999 V3000
M  V30 BEGIN CTAB
M  V30 COUNTS 70 75 0 0 0
M  V30 BEGIN ATOM
M  V30 1 C 5.870649 -0.531157 2.786613 0
M  V30 2 C 4.957690 -1.116840 1.765600 0
M  V30 3 C 5.089995 -2.466497 1.453118 0
M  V30 4 C 4.280235 -3.084461 0.516009 0
M  V30 5 C 3.309998 -2.325293 -0.125499 0
M  V30 6 N 2.497121 -2.996225 -1.082469 0
M  V30 7 N 2.705304 -3.199948 -2.368202 0
M  V30 8 C 1.671651 -3.886645 -2.905954 0
M  V30 9 C 1.562153 -4.293002 -4.322825 0
M  V30 10 C 0.278735 -5.050090 -4.597384 0
M  V30 11 C 2.722868 -5.223092 -4.670094 0
M  V30 12 C 1.628527 -3.125030 -5.278828 0
M  V30 13 C 0.765597 -4.119713 -1.873933 0
M  V30 14 C 1.314672 -3.544073 -0.728799 0
M  V30 15 N 0.594757 -3.627813 0.504629 0
M  V30 16 C -0.322878 -2.572574 0.802528 0
M  V30 17 O -0.467830 -1.609613 -0.023722 0
M  V30 18 N -1.134686 -2.459886 1.966267 0
M  V30 19 C -1.981912 -1.302484 2.040051 0
M  V30 20 C -3.273981 -1.264552 1.552840 0
M  V30 21 C -3.997779 -0.087452 1.679936 0
M  V30 22 C -3.447125 1.043789 2.284500 0
M  V30 23 O -4.351307 2.085409 2.294320 0
M  V30 24 C -4.210061 3.299438 1.662325 0
M  V30 25 C -3.210375 3.834514 0.849991 0
M  V30 26 C -3.294409 5.096916 0.325059 0
M  V30 27 N -4.366520 5.867276 0.586181 0
M  V30 28 C -5.364808 5.402157 1.365823 0
M  V30 29 N -6.491692 6.042224 1.717177 0
M  V30 30 C -7.176090 5.185670 2.495609 0
M  V30 31 O -8.289523 5.448677 3.010292 0
M  V30 32 N -6.465095 4.054083 2.604224 0
M  V30 33 C -5.297038 4.114807 1.911417 0
M  V30 34 C -2.154202 0.970356 2.760758 0
M  V30 35 C -1.708309 2.135738 3.346608 0
M  V30 36 C -0.424651 2.134425 3.851920 0
M  V30 37 C 0.352438 1.009327 3.762572 0
M  V30 38 C -0.129741 -0.150690 3.165189 0
M  V30 39 C -1.421876 -0.192738 2.641551 0
M  V30 40 C 3.147381 -0.966714 0.162187 0
M  V30 41 C 3.982688 -0.396182 1.107357 0
M  V30 42 H 6.821845 -1.082317 2.719481 0
M  V30 43 H 5.425388 -0.634027 3.797613 0
M  V30 44 H 5.988022 0.551172 2.484722 0
M  V30 45 H 5.861403 -3.029739 1.976076 0
M  V30 46 H 4.430418 -4.144806 0.312770 0
M  V30 47 H 0.356790 -5.631353 -5.528881 0
M  V30 48 H -0.596106 -4.366457 -4.650465 0
M  V30 49 H 0.113935 -5.770125 -3.761126 0
M  V30 50 H 3.649040 -4.605952 -4.746462 0
M  V30 51 H 2.802772 -5.948860 -3.832834 0
M  V30 52 H 2.529518 -5.734722 -5.633075 0
M  V30 53 H 1.320776 -3.529566 -6.274598 0
M  V30 54 H 0.918304 -2.328312 -5.039867 0
M  V30 55 H 2.664785 -2.751024 -5.412153 0
M  V30 56 H -0.156436 -4.661772 -2.066481 0
M  V30 57 H 0.653543 -4.378522 1.234760 0
M  V30 58 H -1.034991 -3.244290 2.667436 0
M  V30 59 H -3.652919 -2.166502 1.093970 0
M  V30 60 H -5.004941 -0.187772 1.255437 0
M  V30 61 H -2.400190 3.100860 0.718366 0
M  V30 62 H -2.423642 5.341228 -0.281895 0
M  V30 63 H -6.778186 7.006155 1.442946 0
M  V30 64 H -6.756918 3.211987 3.152628 0
M  V30 65 H -2.311583 3.027778 3.430920 0
M  V30 66 H 0.006251 3.009815 4.329418 0
M  V30 67 H 1.370732 0.956310 4.144897 0
M  V30 68 H 0.470649 -1.045138 3.087418 0
M  V30 69 H 2.386446 -0.393015 -0.347787 0
M  V30 70 H 3.876496 0.662600 1.350328 0
M  V30 END ATOM
M  V30 BEGIN BOND
M  V30 1 1 1 2
M  V30 2 2 2 3
M  V30 3 1 3 4
M  V30 4 2 4 5
M  V30 5 1 5 6
M  V30 6 1 6 7
M  V30 7 2 7 8
M  V30 8 1 8 9
M  V30 9 1 9 10
M  V30 10 1 9 11
M  V30 11 1 9 12
M  V30 12 1 8 13
M  V30 13 2 13 14
M  V30 14 1 14 15
M  V30 15 1 15 16
M  V30 16 2 16 17
M  V30 17 1 16 18
M  V30 18 1 18 19
M  V30 19 2 19 20
M  V30 20 1 20 21
M  V30 21 2 21 22
M  V30 22 1 22 23
M  V30 23 1 23 24
M  V30 24 2 24 25
M  V30 25 1 25 26
M  V30 26 2 26 27
M  V30 27 1 27 28
M  V30 28 1 28 29
M  V30 29 1 29 30
M  V30 30 2 30 31
M  V30 31 1 30 32
M  V30 32 1 32 33
M  V30 33 1 22 34
M  V30 34 2 34 35
M  V30 35 1 35 36
M  V30 36 2 36 37
M  V30 37 1 37 38
M  V30 38 2 38 39
M  V30 39 1 5 40
M  V30 40 2 40 41
M  V30 41 1 41 2
M  V30 42 1 14 6
M  V30 43 1 39 19
M  V30 44 1 33 24
M  V30 45 1 39 34
M  V30 46 2 33 28
M  V30 47 1 1 42
M  V30 48 1 1 43
M  V30 49 1 1 44
M  V30 50 1 3 45
M  V30 51 1 4 46
M  V30 52 1 10 47
M  V30 53 1 10 48
M  V30 54 1 10 49
M  V30 55 1 11 50
M  V30 56 1 11 51
M  V30 57 1 11 52
M  V30 58 1 12 53
M  V30 59 1 12 54
M  V30 60 1 12 55
M  V30 61 1 13 56
M  V30 62 1 15 57
M  V30 63 1 18 58
M  V30 64 1 20 59
M  V30 65 1 21 60
M  V30 66 1 25 61
M  V30 67 1 26 62
M  V30 68 1 29 63
M  V30 69 1 32 64
M  V30 70 1 35 65
M  V30 71 1 36 66
M  V30 72 1 37 67
M  V30 73 1 38 68
M  V30 74 1 40 69
M  V30 75 1 41 70
M  V30 END BOND
M  V30 END CTAB
M  END
>  <Dataset>  (598) 
ChEMBL_Kinases

>  <Ligand_Instance>  (598) 
nan

>  <PDB_ID>  (598) 
nan

>  <Standardized_SMILES>  (598) 
Cc1ccc(-n2nc(C(C)(C)C)cc2NC(=O)Nc2ccc(Oc3ccnc4[nH]c(=O)[nH]c34)c3ccccc23)cc1

>  <Name>  (598) 
nan

>  <Pocket>  (598) 
nan

>  <ATP_Site>  (598) 
nan

>  <Peripheral>  (598) 
nan

>  <Num_H_Atoms_ProtBoundConf>  (598) 
nan

>  <Num_Resolved_Atoms>  (598) 
nan

>  <Num_Not_Resolved_Atoms>  (598) 
nan

$$$$
CHEMBL2103875
     RDKit          3D

  0  0  0  0  0  0  0  0  0  0999 V3000
M  V30 BEGIN CTAB
M  V30 COUNTS 60 64 0 0 0
M  V30 BEGIN ATOM
M  V30 1 C 4.098356 -1.109195 5.894439 0
M  V30 2 C 3.559740 -0.638123 4.605478 0
M  V30 3 O 2.446270 -1.137188 4.318525 0
M  V30 4 N 4.157344 0.277475 3.713839 0
M  V30 5 C 3.683158 0.759562 2.470294 0
M  V30 6 C 4.528050 1.655147 1.854047 0
M  V30 7 C 4.196789 2.205298 0.640972 0
M  V30 8 C 3.029023 1.894011 -0.002734 0
M  V30 9 C 2.129375 0.985229 0.581070 0
M  V30 10 N 0.845473 0.551504 0.149111 0
M  V30 11 C -0.077743 1.215405 0.915148 0
M  V30 12 O 0.142246 2.065420 1.844840 0
M  V30 13 N -1.427758 1.042732 0.773859 0
M  V30 14 C -2.444888 1.692269 1.526138 0
M  V30 15 C -3.622133 0.920005 2.043303 0
M  V30 16 C -3.771731 2.019557 1.042738 0
M  V30 17 C -1.833064 0.159018 -0.186303 0
M  V30 18 O -3.024360 -0.133207 -0.465365 0
M  V30 19 C -0.919795 -0.518626 -0.967165 0
M  V30 20 C -1.279119 -1.418397 -1.948747 0
M  V30 21 N -2.660697 -1.671686 -2.177867 0
M  V30 22 C -3.264224 -2.733001 -1.430717 0
M  V30 23 C -2.514752 -3.467241 -0.529833 0
M  V30 24 C -3.031362 -4.505031 0.224926 0
M  V30 25 C -4.368035 -4.792843 0.041552 0
M  V30 26 I -5.205309 -6.361628 1.163923 0
M  V30 27 C -5.177301 -4.087857 -0.852937 0
M  V30 28 C -4.596162 -3.063942 -1.574101 0
M  V30 29 F -5.354605 -2.361364 -2.449714 0
M  V30 30 N -0.352416 -2.054244 -2.685844 0
M  V30 31 C -0.780580 -2.979614 -3.693312 0
M  V30 32 C 0.927786 -1.783017 -2.433008 0
M  V30 33 O 1.742327 -2.430804 -3.179219 0
M  V30 34 C 1.461473 -0.897532 -1.473569 0
M  V30 35 C 2.913840 -0.718994 -1.333788 0
M  V30 36 C 0.425457 -0.308961 -0.784821 0
M  V30 37 C 2.533755 0.457557 1.829614 0
M  V30 38 H 4.172052 -2.213253 5.971458 0
M  V30 39 H 5.110216 -0.685190 6.091430 0
M  V30 40 H 3.475459 -0.800349 6.775452 0
M  V30 41 H 5.078052 0.582935 4.124193 0
M  V30 42 H 5.492990 1.984956 2.268781 0
M  V30 43 H 4.845417 2.907421 0.144367 0
M  V30 44 H 2.657703 2.253162 -0.946764 0
M  V30 45 H -2.031994 2.406163 2.301644 0
M  V30 46 H -3.980821 1.089910 3.099065 0
M  V30 47 H -3.643108 -0.143461 1.778379 0
M  V30 48 H -4.298733 2.928779 1.461933 0
M  V30 49 H -4.162219 1.838945 0.019853 0
M  V30 50 H -3.272102 -1.146562 -2.847141 0
M  V30 51 H -1.460637 -3.260082 -0.367576 0
M  V30 52 H -2.426729 -5.073848 0.930730 0
M  V30 53 H -6.221266 -4.347592 -0.964994 0
M  V30 54 H 0.040772 -2.971025 -4.471917 0
M  V30 55 H -0.806788 -4.041574 -3.376805 0
M  V30 56 H -1.667518 -2.645029 -4.258842 0
M  V30 57 H 3.362022 0.043404 -2.007233 0
M  V30 58 H 3.331011 -1.654626 -1.873550 0
M  V30 59 H 3.368112 -0.883546 -0.369438 0
M  V30 60 H 1.880356 -0.242198 2.317072 0
M  V30 END ATOM
M  V30 BEGIN BOND
M  V30 1 1 1 2
M  V30 2 2 2 3
M  V30 3 1 2 4
M  V30 4 1 4 5
M  V30 5 2 5 6
M  V30 6 1 6 7
M  V30 7 2 7 8
M  V30 8 1 8 9
M  V30 9 1 9 10
M  V30 10 1 10 11
M  V30 11 2 11 12
M  V30 12 1 11 13
M  V30 13 1 13 14
M  V30 14 1 14 15
M  V30 15 1 15 16
M  V30 16 1 13 17
M  V30 17 2 17 18
M  V30 18 1 17 19
M  V30 19 2 19 20
M  V30 20 1 20 21
M  V30 21 1 21 22
M  V30 22 2 22 23
M  V30 23 1 23 24
M  V30 24 2 24 25
M  V30 25 1 25 26
M  V30 26 1 25 27
M  V30 27 2 27 28
M  V30 28 1 28 29
M  V30 29 1 20 30
M  V30 30 1 30 31
M  V30 31 1 30 32
M  V30 32 2 32 33
M  V30 33 1 32 34
M  V30 34 1 34 35
M  V30 35 2 34 36
M  V30 36 2 9 37
M  V30 37 1 37 5
M  V30 38 1 36 10
M  V30 39 1 16 14
M  V30 40 1 36 19
M  V30 41 1 28 22
M  V30 42 1 1 38
M  V30 43 1 1 39
M  V30 44 1 1 40
M  V30 45 1 4 41
M  V30 46 1 6 42
M  V30 47 1 7 43
M  V30 48 1 8 44
M  V30 49 1 14 45
M  V30 50 1 15 46
M  V30 51 1 15 47
M  V30 52 1 16 48
M  V30 53 1 16 49
M  V30 54 1 21 50
M  V30 55 1 23 51
M  V30 56 1 24 52
M  V30 57 1 27 53
M  V30 58 1 31 54
M  V30 59 1 31 55
M  V30 60 1 31 56
M  V30 61 1 35 57
M  V30 62 1 35 58
M  V30 63 1 35 59
M  V30 64 1 37 60
M  V30 END BOND
M  V30 END CTAB
M  END
>  <Dataset>  (599) 
ChEMBL_Kinases

>  <Ligand_Instance>  (599) 
nan

>  <PDB_ID>  (599) 
nan

>  <Standardized_SMILES>  (599) 
CC(=O)Nc1cccc(-n2c(=O)n(C3CC3)c(=O)c3c(Nc4ccc(I)cc4F)n(C)c(=O)c(C)c32)c1

>  <Name>  (599) 
TRAMETINIB

>  <Pocket>  (599) 
nan

>  <ATP_Site>  (599) 
nan

>  <Peripheral>  (599) 
nan

>  <Num_H_Atoms_ProtBoundConf>  (599) 
nan

>  <Num_Resolved_Atoms>  (599) 
nan

>  <Num_Not_Resolved_Atoms>  (599) 
nan

$$$$
CHEMBL1090979
     RDKit          3D

  0  0  0  0  0  0  0  0  0  0999 V3000
M  V30 BEGIN CTAB
M  V30 COUNTS 73 78 0 0 0
M  V30 BEGIN ATOM
M  V30 1 C 3.155023 -2.248574 3.853902 0
M  V30 2 C 3.205170 -1.555686 2.524340 0
M  V30 3 C 4.073847 -0.497867 2.231608 0
M  V30 4 C 4.036569 0.091380 0.982428 0
M  V30 5 C 3.162169 -0.327092 -0.012509 0
M  V30 6 N 2.995818 0.190234 -1.324621 0
M  V30 7 N 3.707768 -0.153553 -2.407557 0
M  V30 8 C 3.228145 0.552051 -3.470530 0
M  V30 9 C 3.712978 0.482885 -4.895621 0
M  V30 10 C 4.753338 -0.608283 -4.909159 0
M  V30 11 C 2.637509 0.151124 -5.869599 0
M  V30 12 C 4.345359 1.812651 -5.259540 0
M  V30 13 C 2.189675 1.378889 -3.113972 0
M  V30 14 C 2.087820 1.112448 -1.770004 0
M  V30 15 N 1.194168 1.617830 -0.837202 0
M  V30 16 C 0.160007 1.792461 -0.009382 0
M  V30 17 O -0.091720 0.580350 -0.464804 0
M  V30 18 N -0.913210 1.968845 0.847202 0
M  V30 19 C -2.008202 1.157565 1.203038 0
M  V30 20 C -1.690408 0.205176 2.162082 0
M  V30 21 C -2.620376 -0.674796 2.675186 0
M  V30 22 C -3.935396 -0.625244 2.231276 0
M  V30 23 O -4.784086 -1.557864 2.808364 0
M  V30 24 C -4.272422 -2.529652 3.658256 0
M  V30 25 C -4.493787 -2.600220 5.046485 0
M  V30 26 C -3.915435 -3.629797 5.755255 0
M  V30 27 N -3.158106 -4.563237 5.197843 0
M  V30 28 C -2.916203 -4.545379 3.877794 0
M  V30 29 N -2.196462 -5.439385 3.206489 0
M  V30 30 C -2.294471 -4.984137 1.940079 0
M  V30 31 O -1.751025 -5.532664 0.918492 0
M  V30 32 N -3.056879 -3.845244 1.869196 0
M  V30 33 C -3.348974 -3.178530 0.633865 0
M  V30 34 C -3.474111 -3.539950 3.149385 0
M  V30 35 C -4.270312 0.309240 1.286111 0
M  V30 36 C -5.581545 0.352732 0.853227 0
M  V30 37 C -5.874261 1.310111 -0.099355 0
M  V30 38 C -4.912454 2.187962 -0.601959 0
M  V30 39 C -3.619011 2.132417 -0.162222 0
M  V30 40 C -3.335499 1.178068 0.782985 0
M  V30 41 C 2.339053 -1.386902 0.372214 0
M  V30 42 C 2.312553 -2.027260 1.592620 0
M  V30 43 H 4.001142 -2.031069 4.501193 0
M  V30 44 H 2.179739 -1.902677 4.313753 0
M  V30 45 H 3.004517 -3.331473 3.659545 0
M  V30 46 H 4.745259 -0.172351 2.983971 0
M  V30 47 H 4.679763 0.901871 0.702512 0
M  V30 48 H 5.478382 -0.340471 -5.706199 0
M  V30 49 H 4.260875 -1.559240 -5.222095 0
M  V30 50 H 5.197218 -0.748038 -3.911687 0
M  V30 51 H 1.611670 0.305708 -5.460079 0
M  V30 52 H 2.744016 -0.858690 -6.338314 0
M  V30 53 H 2.695761 0.859780 -6.732217 0
M  V30 54 H 4.981076 1.671105 -6.147007 0
M  V30 55 H 4.978387 2.080931 -4.363560 0
M  V30 56 H 3.551001 2.566911 -5.377359 0
M  V30 57 H 1.604812 2.053437 -3.704199 0
M  V30 58 H 1.405234 2.582147 -0.472217 0
M  V30 59 H -0.524533 2.939806 1.083181 0
M  V30 60 H -0.668044 0.098283 2.567678 0
M  V30 61 H -2.286902 -1.400025 3.431300 0
M  V30 62 H -5.121063 -1.781712 5.371207 0
M  V30 63 H -4.139731 -3.605203 6.815152 0
M  V30 64 H -1.668644 -6.277850 3.453712 0
M  V30 65 H -4.400883 -2.858293 0.537452 0
M  V30 66 H -2.631401 -2.380598 0.361279 0
M  V30 67 H -3.229665 -3.927523 -0.215151 0
M  V30 68 H -6.279608 -0.350792 1.280951 0
M  V30 69 H -6.897069 1.340734 -0.442168 0
M  V30 70 H -5.235020 2.903141 -1.341119 0
M  V30 71 H -2.840172 2.799908 -0.533845 0
M  V30 72 H 1.621076 -1.767451 -0.371119 0
M  V30 73 H 1.640926 -2.829036 1.786891 0
M  V30 END ATOM
M  V30 BEGIN BOND
M  V30 1 1 1 2
M  V30 2 2 2 3
M  V30 3 1 3 4
M  V30 4 2 4 5
M  V30 5 1 5 6
M  V30 6 1 6 7
M  V30 7 2 7 8
M  V30 8 1 8 9
M  V30 9 1 9 10
M  V30 10 1 9 11
M  V30 11 1 9 12
M  V30 12 1 8 13
M  V30 13 2 13 14
M  V30 14 1 14 15
M  V30 15 1 15 16
M  V30 16 2 16 17
M  V30 17 1 16 18
M  V30 18 1 18 19
M  V30 19 2 19 20
M  V30 20 1 20 21
M  V30 21 2 21 22
M  V30 22 1 22 23
M  V30 23 1 23 24
M  V30 24 2 24 25
M  V30 25 1 25 26
M  V30 26 2 26 27
M  V30 27 1 27 28
M  V30 28 1 28 29
M  V30 29 1 29 30
M  V30 30 2 30 31
M  V30 31 1 30 32
M  V30 32 1 32 33
M  V30 33 1 32 34
M  V30 34 1 22 35
M  V30 35 2 35 36
M  V30 36 1 36 37
M  V30 37 2 37 38
M  V30 38 1 38 39
M  V30 39 2 39 40
M  V30 40 1 5 41
M  V30 41 2 41 42
M  V30 42 1 42 2
M  V30 43 1 14 6
M  V30 44 1 40 19
M  V30 45 1 34 24
M  V30 46 1 40 35
M  V30 47 2 34 28
M  V30 48 1 1 43
M  V30 49 1 1 44
M  V30 50 1 1 45
M  V30 51 1 3 46
M  V30 52 1 4 47
M  V30 53 1 10 48
M  V30 54 1 10 49
M  V30 55 1 10 50
M  V30 56 1 11 51
M  V30 57 1 11 52
M  V30 58 1 11 53
M  V30 59 1 12 54
M  V30 60 1 12 55
M  V30 61 1 12 56
M  V30 62 1 13 57
M  V30 63 1 15 58
M  V30 64 1 18 59
M  V30 65 1 20 60
M  V30 66 1 21 61
M  V30 67 1 25 62
M  V30 68 1 26 63
M  V30 69 1 29 64
M  V30 70 1 33 65
M  V30 71 1 33 66
M  V30 72 1 33 67
M  V30 73 1 36 68
M  V30 74 1 37 69
M  V30 75 1 38 70
M  V30 76 1 39 71
M  V30 77 1 41 72
M  V30 78 1 42 73
M  V30 END BOND
M  V30 END CTAB
M  END
>  <Dataset>  (600) 
ChEMBL_Kinases

>  <Ligand_Instance>  (600) 
nan

>  <PDB_ID>  (600) 
nan

>  <Standardized_SMILES>  (600) 
Cc1ccc(-n2nc(C(C)(C)C)cc2NC(=O)Nc2ccc(Oc3ccnc4[nH]c(=O)n(C)c34)c3ccccc23)cc1

>  <Name>  (600) 
nan

>  <Pocket>  (600) 
nan

>  <ATP_Site>  (600) 
nan

>  <Peripheral>  (600) 
nan

>  <Num_H_Atoms_ProtBoundConf>  (600) 
nan

>  <Num_Resolved_Atoms>  (600) 
nan

>  <Num_Not_Resolved_Atoms>  (600) 
nan

$$$$
CHEMBL207012
     RDKit          3D

  0  0  0  0  0  0  0  0  0  0999 V3000
M  V30 BEGIN CTAB
M  V30 COUNTS 20 21 0 0 0
M  V30 BEGIN ATOM
M  V30 1 N -1.725370 -0.218151 3.798587 0
M  V30 2 C -1.270111 -0.978784 2.714660 0
M  V30 3 O -1.604277 -2.151967 2.501242 0
M  V30 4 C -0.322189 -0.376474 1.731669 0
M  V30 5 S 0.272963 1.293118 1.866988 0
M  V30 6 C 1.268234 1.241071 0.436070 0
M  V30 7 N 2.067925 2.209733 -0.124882 0
M  V30 8 C 2.773887 1.994439 -1.243813 0
M  V30 9 C 2.603857 0.722812 -1.745500 0
M  V30 10 C 1.812545 -0.269439 -1.210082 0
M  V30 11 C 1.096209 0.019436 -0.033674 0
M  V30 12 C 0.282057 -0.831420 0.616257 0
M  V30 13 N -0.037004 -2.201418 0.267004 0
M  V30 14 H -1.594729 -0.713492 4.717274 0
M  V30 15 H -2.159379 0.728407 3.849158 0
M  V30 16 H 3.406199 2.726649 -1.706998 0
M  V30 17 H 3.157032 0.480809 -2.664959 0
M  V30 18 H 1.777243 -1.236636 -1.723998 0
M  V30 19 H 0.581539 -2.911995 0.745943 0
M  V30 20 H -0.826537 -2.197819 -0.397513 0
M  V30 END ATOM
M  V30 BEGIN BOND
M  V30 1 1 1 2
M  V30 2 2 2 3
M  V30 3 1 2 4
M  V30 4 1 4 5
M  V30 5 1 5 6
M  V30 6 2 6 7
M  V30 7 1 7 8
M  V30 8 2 8 9
M  V30 9 1 9 10
M  V30 10 2 10 11
M  V30 11 1 11 12
M  V30 12 1 12 13
M  V30 13 2 12 4
M  V30 14 1 11 6
M  V30 15 1 1 14
M  V30 16 1 1 15
M  V30 17 1 8 16
M  V30 18 1 9 17
M  V30 19 1 10 18
M  V30 20 1 13 19
M  V30 21 1 13 20
M  V30 END BOND
M  V30 END CTAB
M  END
>  <Dataset>  (601) 
ChEMBL_Kinases

>  <Ligand_Instance>  (601) 
nan

>  <PDB_ID>  (601) 
nan

>  <Standardized_SMILES>  (601) 
NC(=O)c1sc2ncccc2c1N

>  <Name>  (601) 
nan

>  <Pocket>  (601) 
nan

>  <ATP_Site>  (601) 
nan

>  <Peripheral>  (601) 
nan

>  <Num_H_Atoms_ProtBoundConf>  (601) 
nan

>  <Num_Resolved_Atoms>  (601) 
nan

>  <Num_Not_Resolved_Atoms>  (601) 
nan

$$$$
CHEMBL573044
     RDKit          3D

  0  0  0  0  0  0  0  0  0  0999 V3000
M  V30 BEGIN CTAB
M  V30 COUNTS 47 50 0 0 0
M  V30 BEGIN ATOM
M  V30 1 C 1.418819 -3.531106 -0.066416 0
M  V30 2 C 2.378731 -2.492576 -0.592005 0
M  V30 3 C 3.368699 -2.077041 0.423481 0
M  V30 4 C 4.635328 -1.761853 -0.077667 0
M  V30 5 C 5.687097 -1.356288 0.704778 0
M  V30 6 C 5.507767 -1.247066 2.057686 0
M  V30 7 C 4.269179 -1.552307 2.572288 0
M  V30 8 C 3.214094 -1.959641 1.783093 0
M  V30 9 C 1.609053 -1.303020 -1.108054 0
M  V30 10 C 2.131530 -0.649062 -2.200231 0
M  V30 11 C 1.447482 0.435340 -2.685368 0
M  V30 12 C 0.271818 0.757520 -1.997883 0
M  V30 13 S -0.934325 2.167324 -2.357718 0
M  V30 14 C -1.998823 1.759024 -1.044467 0
M  V30 15 C -3.169128 2.370740 -0.647366 0
M  V30 16 O -3.558262 3.354831 -1.285760 0
M  V30 17 N -3.866954 1.910070 0.403987 0
M  V30 18 C -3.314951 0.836686 0.991219 0
M  V30 19 C -4.045262 0.265291 2.179585 0
M  V30 20 N -3.583695 0.891964 3.402159 0
M  V30 21 C -2.155588 0.645142 3.548149 0
M  V30 22 C -4.218112 0.217681 4.519066 0
M  V30 23 N -2.188987 0.236737 0.620425 0
M  V30 24 C -1.454572 0.657558 -0.422890 0
M  V30 25 C -0.292140 0.116367 -0.882873 0
M  V30 26 C 0.460496 -0.955888 -0.468365 0
M  V30 27 H 0.530303 -3.595248 -0.739809 0
M  V30 28 H 1.914748 -4.524089 -0.016336 0
M  V30 29 H 1.029589 -3.285651 0.939111 0
M  V30 30 H 2.879929 -2.967753 -1.477761 0
M  V30 31 H 4.856290 -1.825352 -1.152268 0
M  V30 32 H 6.651502 -1.121388 0.280930 0
M  V30 33 H 6.281092 -0.935603 2.743715 0
M  V30 34 H 4.043742 -1.490583 3.643213 0
M  V30 35 H 2.234963 -2.204547 2.151899 0
M  V30 36 H 3.035935 -0.896336 -2.729665 0
M  V30 37 H 1.718078 1.053258 -3.526562 0
M  V30 38 H -4.750533 2.334330 0.740886 0
M  V30 39 H -3.880813 -0.842134 2.232195 0
M  V30 40 H -5.112359 0.416563 2.013672 0
M  V30 41 H -1.553550 1.089157 2.749704 0
M  V30 42 H -1.897187 1.029778 4.558200 0
M  V30 43 H -2.061534 -0.474525 3.602689 0
M  V30 44 H -5.292438 0.498644 4.610524 0
M  V30 45 H -3.647270 0.482760 5.432528 0
M  V30 46 H -4.154094 -0.879335 4.314598 0
M  V30 47 H 0.144401 -1.542641 0.381280 0
M  V30 END ATOM
M  V30 BEGIN BOND
M  V30 1 1 1 2
M  V30 2 1 2 3
M  V30 3 2 3 4
M  V30 4 1 4 5
M  V30 5 2 5 6
M  V30 6 1 6 7
M  V30 7 2 7 8
M  V30 8 1 2 9
M  V30 9 2 9 10
M  V30 10 1 10 11
M  V30 11 2 11 12
M  V30 12 1 12 13
M  V30 13 1 13 14
M  V30 14 1 14 15
M  V30 15 2 15 16
M  V30 16 1 15 17
M  V30 17 1 17 18
M  V30 18 1 18 19
M  V30 19 1 19 20
M  V30 20 1 20 21
M  V30 21 1 20 22
M  V30 22 2 18 23
M  V30 23 1 23 24
M  V30 24 1 24 25
M  V30 25 2 25 26
M  V30 26 1 8 3
M  V30 27 1 26 9
M  V30 28 1 25 12
M  V30 29 2 24 14
M  V30 30 1 1 27
M  V30 31 1 1 28
M  V30 32 1 1 29
M  V30 33 1 2 30
M  V30 34 1 4 31
M  V30 35 1 5 32
M  V30 36 1 6 33
M  V30 37 1 7 34
M  V30 38 1 8 35
M  V30 39 1 10 36
M  V30 40 1 11 37
M  V30 41 1 17 38
M  V30 42 1 19 39
M  V30 43 1 19 40
M  V30 44 1 21 41
M  V30 45 1 21 42
M  V30 46 1 21 43
M  V30 47 1 22 44
M  V30 48 1 22 45
M  V30 49 1 22 46
M  V30 50 1 26 47
M  V30 END BOND
M  V30 END CTAB
M  END
>  <Dataset>  (602) 
ChEMBL_Kinases

>  <Ligand_Instance>  (602) 
nan

>  <PDB_ID>  (602) 
nan

>  <Standardized_SMILES>  (602) 
CC(c1ccccc1)c1ccc2sc3c(=O)[nH]c(CN(C)C)nc3c2c1

>  <Name>  (602) 
nan

>  <Pocket>  (602) 
nan

>  <ATP_Site>  (602) 
nan

>  <Peripheral>  (602) 
nan

>  <Num_H_Atoms_ProtBoundConf>  (602) 
nan

>  <Num_Resolved_Atoms>  (602) 
nan

>  <Num_Not_Resolved_Atoms>  (602) 
nan

$$$$
CHEMBL2087004
     RDKit          3D

  0  0  0  0  0  0  0  0  0  0999 V3000
M  V30 BEGIN CTAB
M  V30 COUNTS 26 27 0 0 0
M  V30 BEGIN ATOM
M  V30 1 C -0.705360 -5.172008 4.617824 0
M  V30 2 C -0.314480 -3.923001 3.924653 0
M  V30 3 O 0.120812 -3.023810 4.689324 0
M  V30 4 N -0.464889 -3.866633 2.513364 0
M  V30 5 C -0.105461 -2.666584 1.714729 0
M  V30 6 N 0.969486 -2.450093 1.230562 0
M  V30 7 N 1.275826 -1.403402 0.536419 0
M  V30 8 C 0.496249 -0.507327 0.292937 0
M  V30 9 C 0.556430 0.784838 -0.456901 0
M  V30 10 C 1.707785 1.212009 -1.085706 0
M  V30 11 C 1.668869 2.419093 -1.754097 0
M  V30 12 C 0.525139 3.190415 -1.804503 0
M  V30 13 N 0.519830 4.427043 -2.500850 0 CHG=1 VAL=4
M  V30 14 O -0.483463 5.132770 -2.561541 0
M  V30 15 O 1.496315 5.084785 -3.200911 0 CHG=-1 VAL=1
M  V30 16 C -0.645152 2.776270 -1.176678 0
M  V30 17 C -0.575049 1.563314 -0.515470 0
M  V30 18 S -1.013666 -1.101356 1.136721 0
M  V30 19 H -1.661581 -4.920450 5.163325 0
M  V30 20 H 0.015156 -5.408410 5.443838 0
M  V30 21 H -0.846393 -6.032430 3.935586 0
M  V30 22 H -0.837639 -4.682314 2.001570 0
M  V30 23 H 2.538264 0.537815 -0.984677 0
M  V30 24 H 2.585354 2.720437 -2.232789 0
M  V30 25 H -1.560857 3.352143 -1.193515 0
M  V30 26 H -1.485567 1.219957 -0.015071 0
M  V30 END ATOM
M  V30 BEGIN BOND
M  V30 1 1 1 2
M  V30 2 2 2 3
M  V30 3 1 2 4
M  V30 4 1 4 5
M  V30 5 2 5 6
M  V30 6 1 6 7
M  V30 7 2 7 8
M  V30 8 1 8 9
M  V30 9 2 9 10
M  V30 10 1 10 11
M  V30 11 2 11 12
M  V30 12 1 12 13
M  V30 13 2 13 14
M  V30 14 1 13 15
M  V30 15 1 12 16
M  V30 16 2 16 17
M  V30 17 1 8 18
M  V30 18 1 18 5
M  V30 19 1 17 9
M  V30 20 1 1 19
M  V30 21 1 1 20
M  V30 22 1 1 21
M  V30 23 1 4 22
M  V30 24 1 10 23
M  V30 25 1 11 24
M  V30 26 1 16 25
M  V30 27 1 17 26
M  V30 END BOND
M  V30 END CTAB
M  END
>  <Dataset>  (603) 
ChEMBL_Kinases

>  <Ligand_Instance>  (603) 
nan

>  <PDB_ID>  (603) 
nan

>  <Standardized_SMILES>  (603) 
CC(=O)Nc1nnc(-c2ccc([N+](=O)[O-])cc2)s1

>  <Name>  (603) 
nan

>  <Pocket>  (603) 
nan

>  <ATP_Site>  (603) 
nan

>  <Peripheral>  (603) 
nan

>  <Num_H_Atoms_ProtBoundConf>  (603) 
nan

>  <Num_Resolved_Atoms>  (603) 
nan

>  <Num_Not_Resolved_Atoms>  (603) 
nan

$$$$
CHEMBL213313
     RDKit          3D

  0  0  0  0  0  0  0  0  0  0999 V3000
M  V30 BEGIN CTAB
M  V30 COUNTS 39 43 0 0 0
M  V30 BEGIN ATOM
M  V30 1 N -0.659984 -6.242393 -0.303530 0
M  V30 2 C 0.156862 -5.314852 0.404596 0
M  V30 3 C 1.191489 -5.751831 1.212613 0
M  V30 4 C 1.949564 -4.780255 1.875911 0
M  V30 5 C 1.672805 -3.440181 1.727249 0
M  V30 6 C 0.621272 -3.040319 0.903586 0
M  V30 7 C 0.443345 -1.594332 0.840261 0
M  V30 8 C 1.127090 -0.900425 -0.136185 0
M  V30 9 C 0.975611 0.467984 -0.216911 0
M  V30 10 N 1.518194 1.363920 -1.059155 0
M  V30 11 C 1.027080 2.584602 -0.693287 0
M  V30 12 C 1.322986 3.793364 -1.293166 0
M  V30 13 C 0.753845 4.959702 -0.820726 0
M  V30 14 C -0.118925 4.867433 0.270816 0
M  V30 15 O -0.695932 6.045606 0.750625 0
M  V30 16 C -0.362239 3.633375 0.810941 0
M  V30 17 C 0.174086 2.460936 0.380056 0
M  V30 18 C 0.153531 1.130270 0.665026 0
M  V30 19 C -0.520475 0.450604 1.626717 0
M  V30 20 C -0.384199 -0.908928 1.724410 0
M  V30 21 C -1.184291 -1.488709 2.821709 0
M  V30 22 O -1.247355 -2.704529 3.136552 0
M  V30 23 N -1.832782 -0.342187 3.395632 0
M  V30 24 C -1.431076 0.810004 2.676658 0
M  V30 25 O -1.918368 1.876145 3.067985 0
M  V30 26 C -0.144795 -3.979333 0.235657 0
M  V30 27 Cl -1.429884 -3.384108 -0.765072 0
M  V30 28 H -0.934557 -6.449265 -1.289882 0
M  V30 29 H -1.189759 -6.984739 0.241366 0
M  V30 30 H 1.409441 -6.805970 1.329751 0
M  V30 31 H 2.760916 -5.161512 2.507426 0
M  V30 32 H 2.319831 -2.789990 2.283507 0
M  V30 33 H 1.772638 -1.427684 -0.827338 0
M  V30 34 H 2.180065 1.117624 -1.825217 0
M  V30 35 H 1.987340 3.865563 -2.124435 0
M  V30 36 H 0.980463 5.909641 -1.284871 0
M  V30 37 H -0.355645 6.356252 1.657533 0
M  V30 38 H -1.031027 3.656578 1.629046 0
M  V30 39 H -2.470195 -0.498864 4.210257 0
M  V30 END ATOM
M  V30 BEGIN BOND
M  V30 1 1 1 2
M  V30 2 2 2 3
M  V30 3 1 3 4
M  V30 4 2 4 5
M  V30 5 1 5 6
M  V30 6 1 6 7
M  V30 7 2 7 8
M  V30 8 1 8 9
M  V30 9 1 9 10
M  V30 10 1 10 11
M  V30 11 2 11 12
M  V30 12 1 12 13
M  V30 13 2 13 14
M  V30 14 1 14 15
M  V30 15 1 14 16
M  V30 16 2 16 17
M  V30 17 1 17 18
M  V30 18 1 18 19
M  V30 19 2 19 20
M  V30 20 1 20 21
M  V30 21 2 21 22
M  V30 22 1 21 23
M  V30 23 1 23 24
M  V30 24 2 24 25
M  V30 25 2 6 26
M  V30 26 1 26 27
M  V30 27 1 26 2
M  V30 28 1 20 7
M  V30 29 2 18 9
M  V30 30 1 24 19
M  V30 31 1 17 11
M  V30 32 1 1 28
M  V30 33 1 1 29
M  V30 34 1 3 30
M  V30 35 1 4 31
M  V30 36 1 5 32
M  V30 37 1 8 33
M  V30 38 1 10 34
M  V30 39 1 12 35
M  V30 40 1 13 36
M  V30 41 1 15 37
M  V30 42 1 16 38
M  V30 43 1 23 39
M  V30 END BOND
M  V30 END CTAB
M  END
>  <Dataset>  (604) 
ChEMBL_Kinases

>  <Ligand_Instance>  (604) 
nan

>  <PDB_ID>  (604) 
nan

>  <Standardized_SMILES>  (604) 
Nc1cccc(-c2cc3[nH]c4ccc(O)cc4c3c3c2C(=O)NC3=O)c1Cl

>  <Name>  (604) 
nan

>  <Pocket>  (604) 
nan

>  <ATP_Site>  (604) 
nan

>  <Peripheral>  (604) 
nan

>  <Num_H_Atoms_ProtBoundConf>  (604) 
nan

>  <Num_Resolved_Atoms>  (604) 
nan

>  <Num_Not_Resolved_Atoms>  (604) 
nan

$$$$
CHEMBL1233807
     RDKit          3D

  0  0  0  0  0  0  0  0  0  0999 V3000
M  V30 BEGIN CTAB
M  V30 COUNTS 29 30 0 0 0
M  V30 BEGIN ATOM
M  V30 1 C -1.372875 -1.202660 3.534763 0
M  V30 2 N -0.367368 -1.719392 2.627377 0
M  V30 3 C -0.081000 -3.127391 2.674016 0
M  V30 4 C 0.279150 -0.807678 1.742422 0
M  V30 5 N 1.416309 -0.167019 2.137114 0
M  V30 6 C 1.828496 0.636929 1.119560 0
M  V30 7 C 2.885239 1.502841 0.931464 0
M  V30 8 Br 4.082404 1.643962 2.433695 0
M  V30 9 C 3.054574 2.203367 -0.245952 0
M  V30 10 Br 4.547533 3.368880 -0.393947 0
M  V30 11 C 2.108988 2.000327 -1.245818 0
M  V30 12 Br 2.361407 2.977690 -2.865296 0
M  V30 13 C 1.062277 1.130138 -1.033679 0
M  V30 14 Br -0.130849 0.962357 -2.509491 0
M  V30 15 C 0.885193 0.427425 0.138239 0
M  V30 16 N -0.077216 -0.444559 0.474485 0
M  V30 17 C -1.232310 -0.942119 -0.206697 0
M  V30 18 C -0.941244 -2.149564 -1.023756 0
M  V30 19 O 0.150662 -2.785839 -1.201223 0
M  V30 20 O -1.995775 -2.716649 -1.728716 0
M  V30 21 H -0.950421 -0.346213 4.130239 0
M  V30 22 H -1.712197 -1.961138 4.254748 0
M  V30 23 H -2.178553 -0.763117 2.913430 0
M  V30 24 H 0.696158 -3.455119 1.981403 0
M  V30 25 H -1.065744 -3.646680 2.485886 0
M  V30 26 H 0.216963 -3.482746 3.684745 0
M  V30 27 H -1.987041 -1.269715 0.576781 0
M  V30 28 H -1.692212 -0.185605 -0.849194 0
M  V30 29 H -2.067651 -3.733112 -1.887904 0
M  V30 END ATOM
M  V30 BEGIN BOND
M  V30 1 1 1 2
M  V30 2 1 2 3
M  V30 3 1 2 4
M  V30 4 2 4 5
M  V30 5 1 5 6
M  V30 6 2 6 7
M  V30 7 1 7 8
M  V30 8 1 7 9
M  V30 9 1 9 10
M  V30 10 2 9 11
M  V30 11 1 11 12
M  V30 12 1 11 13
M  V30 13 1 13 14
M  V30 14 2 13 15
M  V30 15 1 15 16
M  V30 16 1 16 17
M  V30 17 1 17 18
M  V30 18 2 18 19
M  V30 19 1 18 20
M  V30 20 1 16 4
M  V30 21 1 15 6
M  V30 22 1 1 21
M  V30 23 1 1 22
M  V30 24 1 1 23
M  V30 25 1 3 24
M  V30 26 1 3 25
M  V30 27 1 3 26
M  V30 28 1 17 27
M  V30 29 1 17 28
M  V30 30 1 20 29
M  V30 END BOND
M  V30 END CTAB
M  END
>  <Dataset>  (605) 
ChEMBL_Kinases

>  <Ligand_Instance>  (605) 
nan

>  <PDB_ID>  (605) 
nan

>  <Standardized_SMILES>  (605) 
CN(C)c1nc2c(Br)c(Br)c(Br)c(Br)c2n1CC(=O)O

>  <Name>  (605) 
nan

>  <Pocket>  (605) 
nan

>  <ATP_Site>  (605) 
nan

>  <Peripheral>  (605) 
nan

>  <Num_H_Atoms_ProtBoundConf>  (605) 
nan

>  <Num_Resolved_Atoms>  (605) 
nan

>  <Num_Not_Resolved_Atoms>  (605) 
nan

$$$$
CHEMBL2087005
     RDKit          3D

  0  0  0  0  0  0  0  0  0  0999 V3000
M  V30 BEGIN CTAB
M  V30 COUNTS 27 28 0 0 0
M  V30 BEGIN ATOM
M  V30 1 C -0.930547 -4.424074 5.419646 0
M  V30 2 C -0.487743 -3.517659 4.308125 0
M  V30 3 O -0.687375 -2.274826 4.471747 0
M  V30 4 N 0.129168 -3.989811 3.114112 0
M  V30 5 C 0.421486 -2.855789 2.270858 0
M  V30 6 N 1.437764 -2.160014 2.226233 0
M  V30 7 N 1.574174 -1.165904 1.419345 0
M  V30 8 C 0.740314 -0.804521 0.627010 0
M  V30 9 C 0.676836 0.289965 -0.381995 0
M  V30 10 C 1.802172 1.086114 -0.454243 0
M  V30 11 C 1.714322 2.090420 -1.396780 0
M  V30 12 C 0.597415 2.270633 -2.187843 0
M  V30 13 C 0.559884 3.350392 -3.169025 0
M  V30 14 O 1.538313 4.130006 -3.309497 0
M  V30 15 O -0.538708 3.550447 -3.967426 0
M  V30 16 C -0.495721 1.439039 -2.065896 0
M  V30 17 C -0.463039 0.414737 -1.136740 0
M  V30 18 S -0.595425 -2.037565 0.968912 0
M  V30 19 H -2.006986 -4.635577 5.240278 0
M  V30 20 H -0.343607 -5.355716 5.369114 0
M  V30 21 H -0.859321 -3.928572 6.399869 0
M  V30 22 H 0.285317 -5.010280 2.995989 0
M  V30 23 H 2.654829 0.906179 0.187327 0
M  V30 24 H 2.597910 2.741586 -1.476664 0
M  V30 25 H -0.811241 4.466770 -4.338583 0
M  V30 26 H -1.380136 1.562629 -2.675316 0
M  V30 27 H -1.284395 -0.282970 -0.980320 0
M  V30 END ATOM
M  V30 BEGIN BOND
M  V30 1 1 1 2
M  V30 2 2 2 3
M  V30 3 1 2 4
M  V30 4 1 4 5
M  V30 5 2 5 6
M  V30 6 1 6 7
M  V30 7 2 7 8
M  V30 8 1 8 9
M  V30 9 2 9 10
M  V30 10 1 10 11
M  V30 11 2 11 12
M  V30 12 1 12 13
M  V30 13 2 13 14
M  V30 14 1 13 15
M  V30 15 1 12 16
M  V30 16 2 16 17
M  V30 17 1 8 18
M  V30 18 1 18 5
M  V30 19 1 17 9
M  V30 20 1 1 19
M  V30 21 1 1 20
M  V30 22 1 1 21
M  V30 23 1 4 22
M  V30 24 1 10 23
M  V30 25 1 11 24
M  V30 26 1 15 25
M  V30 27 1 16 26
M  V30 28 1 17 27
M  V30 END BOND
M  V30 END CTAB
M  END
>  <Dataset>  (606) 
ChEMBL_Kinases

>  <Ligand_Instance>  (606) 
nan

>  <PDB_ID>  (606) 
nan

>  <Standardized_SMILES>  (606) 
CC(=O)Nc1nnc(-c2ccc(C(=O)O)cc2)s1

>  <Name>  (606) 
nan

>  <Pocket>  (606) 
nan

>  <ATP_Site>  (606) 
nan

>  <Peripheral>  (606) 
nan

>  <Num_H_Atoms_ProtBoundConf>  (606) 
nan

>  <Num_Resolved_Atoms>  (606) 
nan

>  <Num_Not_Resolved_Atoms>  (606) 
nan

$$$$
CHEMBL2070413
     RDKit          3D

  0  0  0  0  0  0  0  0  0  0999 V3000
M  V30 BEGIN CTAB
M  V30 COUNTS 73 77 0 0 0
M  V30 BEGIN ATOM
M  V30 1 C 4.775635 -5.008755 -4.365688 0
M  V30 2 N 3.553612 -5.056425 -5.138500 0
M  V30 3 C 2.416411 -4.558733 -4.385731 0
M  V30 4 C 1.940180 -3.232985 -4.909143 0
M  V30 5 N 3.014256 -2.337189 -5.254062 0
M  V30 6 C 2.518031 -1.047337 -5.690563 0
M  V30 7 C 3.655953 -0.147750 -6.019265 0
M  V30 8 C 4.606347 0.172192 -4.901561 0
M  V30 9 O 4.143915 0.809816 -3.805754 0
M  V30 10 C 3.322149 0.704938 -2.781976 0
M  V30 11 C 2.449999 -0.223712 -2.264329 0
M  V30 12 C 1.729739 0.047936 -1.128026 0
M  V30 13 C 1.831181 1.238956 -0.448461 0
M  V30 14 N 0.973441 1.248407 0.682110 0
M  V30 15 C 1.357065 0.834296 1.979225 0
M  V30 16 O 2.499173 0.419242 2.290026 0
M  V30 17 C 0.270111 0.943305 2.919766 0
M  V30 18 C 0.170919 0.577892 4.148735 0
M  V30 19 C -0.906960 0.672972 5.115964 0
M  V30 20 C -2.191748 0.425656 4.613287 0
M  V30 21 C -3.260206 0.499404 5.517328 0
M  V30 22 C -3.058839 0.803844 6.855366 0
M  V30 23 O -4.207571 0.846819 7.672942 0
M  V30 24 C -5.444887 0.559073 7.072083 0
M  V30 25 C -6.435625 1.346332 6.539165 0
M  V30 26 C -7.554180 0.766261 6.009932 0
M  V30 27 C -7.770173 -0.617808 5.968844 0
M  V30 28 C -9.027431 -1.163887 5.378098 0
M  V30 29 N -9.996942 -0.200172 4.983792 0
M  V30 30 O -8.949289 -2.420195 5.357033 0
M  V30 31 C -6.751171 -1.411047 6.515104 0
M  V30 32 C -5.605280 -0.822269 7.059019 0
M  V30 33 C -1.779109 1.039455 7.303396 0
M  V30 34 C -0.700805 0.977094 6.445692 0
M  V30 35 S -1.120286 1.762050 2.106051 0
M  V30 36 C -0.353090 1.698734 0.462507 0
M  V30 37 S -1.155530 2.102744 -0.888060 0
M  V30 38 C 2.701727 2.214538 -0.929305 0
M  V30 39 C 3.433499 1.928147 -2.090990 0
M  V30 40 C 3.932722 -2.911067 -6.210388 0
M  V30 41 C 3.684924 -4.372062 -6.410097 0
M  V30 42 H 5.145084 -6.047390 -4.233855 0
M  V30 43 H 4.552161 -4.621671 -3.329462 0
M  V30 44 H 5.577070 -4.430699 -4.836005 0
M  V30 45 H 2.633594 -4.558410 -3.300269 0
M  V30 46 H 1.591790 -5.285750 -4.541450 0
M  V30 47 H 1.320840 -2.754441 -4.131345 0
M  V30 48 H 1.312940 -3.374229 -5.809335 0
M  V30 49 H 1.983260 -1.243250 -6.669774 0
M  V30 50 H 1.764018 -0.604585 -5.041001 0
M  V30 51 H 3.305764 0.850526 -6.404788 0
M  V30 52 H 4.291653 -0.550756 -6.862640 0
M  V30 53 H 5.231693 -0.756050 -4.662475 0
M  V30 54 H 5.395582 0.842640 -5.386743 0
M  V30 55 H 2.434672 -1.115243 -2.829933 0
M  V30 56 H 1.092310 -0.813384 -0.869099 0
M  V30 57 H 1.055301 0.094362 4.591870 0
M  V30 58 H -2.418701 0.180745 3.583205 0
M  V30 59 H -4.256766 0.300709 5.093782 0
M  V30 60 H -6.183036 2.387380 6.615488 0
M  V30 61 H -8.289478 1.434417 5.609624 0
M  V30 62 H -10.283329 0.293524 5.852816 0
M  V30 63 H -10.319633 0.331559 5.845563 0
M  V30 64 H -6.897328 -2.497600 6.491725 0
M  V30 65 H -4.912681 -1.590491 7.440277 0
M  V30 66 H -1.677576 1.277678 8.372841 0
M  V30 67 H 0.302248 1.164564 6.805015 0
M  V30 68 H 2.688385 3.096523 -0.309079 0
M  V30 69 H 4.038215 2.828359 -2.269623 0
M  V30 70 H 4.986759 -2.679366 -6.047083 0
M  V30 71 H 3.648914 -2.432264 -7.197260 0
M  V30 72 H 2.836084 -4.536619 -7.074720 0
M  V30 73 H 4.579053 -4.805119 -6.906706 0
M  V30 END ATOM
M  V30 BEGIN BOND
M  V30 1 1 1 2
M  V30 2 1 2 3
M  V30 3 1 3 4
M  V30 4 1 4 5
M  V30 5 1 5 6
M  V30 6 1 6 7
M  V30 7 1 7 8
M  V30 8 1 8 9
M  V30 9 1 9 10
M  V30 10 2 10 11
M  V30 11 1 11 12
M  V30 12 2 12 13
M  V30 13 1 13 14
M  V30 14 1 14 15
M  V30 15 2 15 16
M  V30 16 1 15 17
M  V30 17 2 17 18
M  V30 18 1 18 19
M  V30 19 2 19 20
M  V30 20 1 20 21
M  V30 21 2 21 22
M  V30 22 1 22 23
M  V30 23 1 23 24
M  V30 24 2 24 25
M  V30 25 1 25 26
M  V30 26 2 26 27
M  V30 27 1 27 28
M  V30 28 1 28 29
M  V30 29 2 28 30
M  V30 30 1 27 31
M  V30 31 2 31 32
M  V30 32 1 22 33
M  V30 33 2 33 34
M  V30 34 1 17 35
M  V30 35 1 35 36
M  V30 36 2 36 37
M  V30 37 1 13 38
M  V30 38 2 38 39
M  V30 39 1 5 40
M  V30 40 1 40 41
M  V30 41 1 41 2
M  V30 42 1 39 10
M  V30 43 1 36 14
M  V30 44 1 34 19
M  V30 45 1 32 24
M  V30 46 1 1 42
M  V30 47 1 1 43
M  V30 48 1 1 44
M  V30 49 1 3 45
M  V30 50 1 3 46
M  V30 51 1 4 47
M  V30 52 1 4 48
M  V30 53 1 6 49
M  V30 54 1 6 50
M  V30 55 1 7 51
M  V30 56 1 7 52
M  V30 57 1 8 53
M  V30 58 1 8 54
M  V30 59 1 11 55
M  V30 60 1 12 56
M  V30 61 1 18 57
M  V30 62 1 20 58
M  V30 63 1 21 59
M  V30 64 1 25 60
M  V30 65 1 26 61
M  V30 66 1 29 62
M  V30 67 1 29 63
M  V30 68 1 31 64
M  V30 69 1 32 65
M  V30 70 1 33 66
M  V30 71 1 34 67
M  V30 72 1 38 68
M  V30 73 1 39 69
M  V30 74 1 40 70
M  V30 75 1 40 71
M  V30 76 1 41 72
M  V30 77 1 41 73
M  V30 END BOND
M  V30 END CTAB
M  END
>  <Dataset>  (607) 
ChEMBL_Kinases

>  <Ligand_Instance>  (607) 
nan

>  <PDB_ID>  (607) 
nan

>  <Standardized_SMILES>  (607) 
CN1CCN(CCCOc2ccc(N3C(=O)/C(=C/c4ccc(Oc5ccc(C(N)=O)cc5)cc4)SC3=S)cc2)CC1

>  <Name>  (607) 
nan

>  <Pocket>  (607) 
nan

>  <ATP_Site>  (607) 
nan

>  <Peripheral>  (607) 
nan

>  <Num_H_Atoms_ProtBoundConf>  (607) 
nan

>  <Num_Resolved_Atoms>  (607) 
nan

>  <Num_Not_Resolved_Atoms>  (607) 
nan

$$$$
CHEMBL210363
     RDKit          3D

  0  0  0  0  0  0  0  0  0  0999 V3000
M  V30 BEGIN CTAB
M  V30 COUNTS 25 25 0 0 0
M  V30 BEGIN ATOM
M  V30 1 C 3.724432 -1.558858 1.833334 0
M  V30 2 O 2.728676 -0.859757 2.557745 0
M  V30 3 C 1.470178 -0.591498 2.044149 0
M  V30 4 N 0.997398 -0.930790 0.829137 0
M  V30 5 C -0.262301 -0.597382 0.465792 0
M  V30 6 N -0.736339 -0.968169 -0.823451 0
M  V30 7 C -0.551265 -0.073675 -1.923885 0
M  V30 8 C -1.033074 -0.418082 -3.303681 0
M  V30 9 O 0.025690 1.018390 -1.725493 0
M  V30 10 C -1.133121 0.096650 1.291235 0
M  V30 11 C -0.638067 0.444686 2.546668 0
M  V30 12 N -1.507258 1.167312 3.439961 0
M  V30 13 C 0.656185 0.104671 2.925873 0
M  V30 14 C 1.063178 0.512366 4.240310 0
M  V30 15 N 1.399510 0.853497 5.284075 0
M  V30 16 H 3.427293 -1.811307 0.798436 0
M  V30 17 H 3.956664 -2.464481 2.454501 0
M  V30 18 H 4.679400 -0.962639 1.779009 0
M  V30 19 H -1.228569 -1.873444 -1.049176 0
M  V30 20 H -2.024002 0.117734 -3.383431 0
M  V30 21 H -1.224557 -1.483477 -3.432369 0
M  V30 22 H -0.388111 0.030667 -4.078958 0
M  V30 23 H -2.133774 0.363377 1.007012 0
M  V30 24 H -2.023740 0.352002 3.880271 0
M  V30 25 H -1.158980 2.127570 3.172898 0
M  V30 END ATOM
M  V30 BEGIN BOND
M  V30 1 1 1 2
M  V30 2 1 2 3
M  V30 3 2 3 4
M  V30 4 1 4 5
M  V30 5 1 5 6
M  V30 6 1 6 7
M  V30 7 1 7 8
M  V30 8 2 7 9
M  V30 9 2 5 10
M  V30 10 1 10 11
M  V30 11 1 11 12
M  V30 12 2 11 13
M  V30 13 1 13 14
M  V30 14 3 14 15
M  V30 15 1 13 3
M  V30 16 1 1 16
M  V30 17 1 1 17
M  V30 18 1 1 18
M  V30 19 1 6 19
M  V30 20 1 8 20
M  V30 21 1 8 21
M  V30 22 1 8 22
M  V30 23 1 10 23
M  V30 24 1 12 24
M  V30 25 1 12 25
M  V30 END BOND
M  V30 END CTAB
M  END
>  <Dataset>  (608) 
ChEMBL_Kinases

>  <Ligand_Instance>  (608) 
nan

>  <PDB_ID>  (608) 
nan

>  <Standardized_SMILES>  (608) 
COc1nc(NC(C)=O)cc(N)c1C#N

>  <Name>  (608) 
nan

>  <Pocket>  (608) 
nan

>  <ATP_Site>  (608) 
nan

>  <Peripheral>  (608) 
nan

>  <Num_H_Atoms_ProtBoundConf>  (608) 
nan

>  <Num_Resolved_Atoms>  (608) 
nan

>  <Num_Not_Resolved_Atoms>  (608) 
nan

$$$$
CHEMBL1083484
     RDKit          3D

  0  0  0  0  0  0  0  0  0  0999 V3000
M  V30 BEGIN CTAB
M  V30 COUNTS 54 57 0 0 0
M  V30 BEGIN ATOM
M  V30 1 C 1.622754 -2.950155 5.675585 0
M  V30 2 C 2.469537 -1.879541 5.100806 0
M  V30 3 N 3.439348 -1.272823 5.495724 0
M  V30 4 C 4.056749 -0.329037 4.799306 0
M  V30 5 C 5.243715 0.366948 5.363495 0
M  V30 6 C 3.601925 0.000160 3.570720 0
M  V30 7 C 3.929021 0.909573 2.506382 0
M  V30 8 C 4.933623 1.822476 2.427759 0
M  V30 9 C 5.203127 2.663998 1.395608 0
M  V30 10 N 4.384726 2.569345 0.359738 0
M  V30 11 C 3.361364 1.707929 0.323664 0
M  V30 12 N 2.534638 1.674103 -0.826863 0
M  V30 13 C 1.403974 0.866429 -1.114205 0
M  V30 14 C 0.883121 -0.090106 -0.271830 0
M  V30 15 C -0.210561 -0.887735 -0.521571 0
M  V30 16 C -0.857704 -0.725955 -1.725771 0
M  V30 17 N -1.997487 -1.504883 -2.073996 0
M  V30 18 C -2.831370 -1.515321 -3.232495 0
M  V30 19 C -4.310534 -1.541380 -2.958751 0
M  V30 20 N -4.695261 -2.612411 -2.071454 0
M  V30 21 S -5.674092 -2.057646 -0.770264 0
M  V30 22 C -7.160650 -1.366509 -1.452296 0
M  V30 23 O -4.999911 -0.992354 0.043903 0
M  V30 24 O -6.069343 -3.164721 0.148743 0
M  V30 25 C -3.551798 -3.369679 -1.608750 0
M  V30 26 C -2.450432 -2.483253 -1.134279 0
M  V30 27 C -0.375690 0.216485 -2.600812 0
M  V30 28 C 0.714733 0.981267 -2.300955 0
M  V30 29 N 3.191429 0.936008 1.383403 0
M  V30 30 S 2.194003 -1.129379 3.420331 0
M  V30 31 H 1.155820 -3.527187 4.837959 0
M  V30 32 H 0.869121 -2.563130 6.392693 0
M  V30 33 H 2.294696 -3.615473 6.219160 0
M  V30 34 H 5.084766 1.456588 5.503306 0
M  V30 35 H 5.524872 0.002200 6.384367 0
M  V30 36 H 6.104067 0.127940 4.711076 0
M  V30 37 H 5.590304 1.888077 3.276029 0
M  V30 38 H 6.017766 3.355224 1.414986 0
M  V30 39 H 2.781184 2.352307 -1.612705 0
M  V30 40 H 1.338212 -0.272312 0.688948 0
M  V30 41 H -0.577836 -1.620724 0.169797 0
M  V30 42 H -2.509077 -2.381707 -3.868148 0
M  V30 43 H -2.613208 -0.607317 -3.830667 0
M  V30 44 H -4.816385 -1.716518 -3.929991 0
M  V30 45 H -4.614249 -0.591796 -2.521086 0
M  V30 46 H -7.934675 -1.203258 -0.671306 0
M  V30 47 H -6.944418 -0.401666 -1.954760 0
M  V30 48 H -7.634071 -2.024699 -2.208308 0
M  V30 49 H -3.896017 -4.010983 -0.798489 0
M  V30 50 H -3.201406 -3.973596 -2.469469 0
M  V30 51 H -1.586425 -3.139689 -0.892000 0
M  V30 52 H -2.714945 -1.996675 -0.163390 0
M  V30 53 H -0.859306 0.380039 -3.572406 0
M  V30 54 H 1.049216 1.719069 -3.047772 0
M  V30 END ATOM
M  V30 BEGIN BOND
M  V30 1 1 1 2
M  V30 2 2 2 3
M  V30 3 1 3 4
M  V30 4 1 4 5
M  V30 5 2 4 6
M  V30 6 1 6 7
M  V30 7 2 7 8
M  V30 8 1 8 9
M  V30 9 2 9 10
M  V30 10 1 10 11
M  V30 11 1 11 12
M  V30 12 1 12 13
M  V30 13 2 13 14
M  V30 14 1 14 15
M  V30 15 2 15 16
M  V30 16 1 16 17
M  V30 17 1 17 18
M  V30 18 1 18 19
M  V30 19 1 19 20
M  V30 20 1 20 21
M  V30 21 1 21 22
M  V30 22 2 21 23
M  V30 23 2 21 24
M  V30 24 1 20 25
M  V30 25 1 25 26
M  V30 26 1 16 27
M  V30 27 2 27 28
M  V30 28 2 11 29
M  V30 29 1 6 30
M  V30 30 1 30 2
M  V30 31 1 29 7
M  V30 32 1 28 13
M  V30 33 1 26 17
M  V30 34 1 1 31
M  V30 35 1 1 32
M  V30 36 1 1 33
M  V30 37 1 5 34
M  V30 38 1 5 35
M  V30 39 1 5 36
M  V30 40 1 8 37
M  V30 41 1 9 38
M  V30 42 1 12 39
M  V30 43 1 14 40
M  V30 44 1 15 41
M  V30 45 1 18 42
M  V30 46 1 18 43
M  V30 47 1 19 44
M  V30 48 1 19 45
M  V30 49 1 22 46
M  V30 50 1 22 47
M  V30 51 1 22 48
M  V30 52 1 25 49
M  V30 53 1 25 50
M  V30 54 1 26 51
M  V30 55 1 26 52
M  V30 56 1 27 53
M  V30 57 1 28 54
M  V30 END BOND
M  V30 END CTAB
M  END
>  <Dataset>  (609) 
ChEMBL_Kinases

>  <Ligand_Instance>  (609) 
nan

>  <PDB_ID>  (609) 
nan

>  <Standardized_SMILES>  (609) 
Cc1nc(C)c(-c2ccnc(Nc3ccc(N4CCN(S(C)(=O)=O)CC4)cc3)n2)s1

>  <Name>  (609) 
nan

>  <Pocket>  (609) 
nan

>  <ATP_Site>  (609) 
nan

>  <Peripheral>  (609) 
nan

>  <Num_H_Atoms_ProtBoundConf>  (609) 
nan

>  <Num_Resolved_Atoms>  (609) 
nan

>  <Num_Not_Resolved_Atoms>  (609) 
nan

$$$$
CHEMBL2087007
     RDKit          3D

  0  0  0  0  0  0  0  0  0  0999 V3000
M  V30 BEGIN CTAB
M  V30 COUNTS 34 36 0 0 0
M  V30 BEGIN ATOM
M  V30 1 O 4.036721 -7.536793 0.731112 0
M  V30 2 C 3.420499 -6.936117 -0.179673 0
M  V30 3 O 3.287688 -7.606573 -1.367269 0
M  V30 4 C 2.876138 -5.599242 0.014891 0
M  V30 5 C 3.038726 -4.965762 1.236652 0
M  V30 6 C 2.538861 -3.699392 1.463412 0
M  V30 7 C 1.887211 -3.130547 0.418051 0
M  V30 8 C 1.340058 -1.763679 0.642377 0
M  V30 9 N 1.346164 -1.016380 1.584909 0
M  V30 10 N 0.828667 0.154340 1.645819 0
M  V30 11 C 0.219906 0.636696 0.608512 0
M  V30 12 N -0.403202 1.965050 0.581097 0
M  V30 13 C -1.752761 2.056098 0.968977 0
M  V30 14 O -2.360407 1.009651 1.318199 0
M  V30 15 C -2.501006 3.310801 0.990705 0
M  V30 16 C -3.823737 3.251801 1.394585 0
M  V30 17 C -4.592431 4.419798 1.436326 0
M  V30 18 C -3.981192 5.595091 1.065431 0
M  V30 19 F -4.746553 6.720839 1.112959 0
M  V30 20 C -2.670408 5.682623 0.660534 0
M  V30 21 C -1.921860 4.509913 0.625555 0
M  V30 22 S 0.415020 -0.753517 -0.590322 0
M  V30 23 C 1.694726 -3.718025 -0.827010 0
M  V30 24 C 2.207477 -4.987648 -1.023180 0
M  V30 25 H 3.192502 -8.619295 -1.394410 0
M  V30 26 H 3.569433 -5.438758 2.075955 0
M  V30 27 H 2.646495 -3.170746 2.407646 0
M  V30 28 H 0.115481 2.793638 0.293383 0
M  V30 29 H -4.335020 2.327075 1.695461 0
M  V30 30 H -5.621687 4.362955 1.752343 0
M  V30 31 H -2.266169 6.646213 0.385341 0
M  V30 32 H -0.898800 4.563304 0.311924 0
M  V30 33 H 1.157132 -3.167528 -1.588765 0
M  V30 34 H 2.054722 -5.439367 -1.993285 0
M  V30 END ATOM
M  V30 BEGIN BOND
M  V30 1 2 1 2
M  V30 2 1 2 3
M  V30 3 1 2 4
M  V30 4 2 4 5
M  V30 5 1 5 6
M  V30 6 2 6 7
M  V30 7 1 7 8
M  V30 8 2 8 9
M  V30 9 1 9 10
M  V30 10 2 10 11
M  V30 11 1 11 12
M  V30 12 1 12 13
M  V30 13 2 13 14
M  V30 14 1 13 15
M  V30 15 2 15 16
M  V30 16 1 16 17
M  V30 17 2 17 18
M  V30 18 1 18 19
M  V30 19 1 18 20
M  V30 20 2 20 21
M  V30 21 1 11 22
M  V30 22 1 7 23
M  V30 23 2 23 24
M  V30 24 1 24 4
M  V30 25 1 22 8
M  V30 26 1 21 15
M  V30 27 1 3 25
M  V30 28 1 5 26
M  V30 29 1 6 27
M  V30 30 1 12 28
M  V30 31 1 16 29
M  V30 32 1 17 30
M  V30 33 1 20 31
M  V30 34 1 21 32
M  V30 35 1 23 33
M  V30 36 1 24 34
M  V30 END BOND
M  V30 END CTAB
M  END
>  <Dataset>  (610) 
ChEMBL_Kinases

>  <Ligand_Instance>  (610) 
nan

>  <PDB_ID>  (610) 
nan

>  <Standardized_SMILES>  (610) 
O=C(O)c1ccc(-c2nnc(NC(=O)c3ccc(F)cc3)s2)cc1

>  <Name>  (610) 
nan

>  <Pocket>  (610) 
nan

>  <ATP_Site>  (610) 
nan

>  <Peripheral>  (610) 
nan

>  <Num_H_Atoms_ProtBoundConf>  (610) 
nan

>  <Num_Resolved_Atoms>  (610) 
nan

>  <Num_Not_Resolved_Atoms>  (610) 
nan

$$$$
CHEMBL2087972
     RDKit          3D

  0  0  0  0  0  0  0  0  0  0999 V3000
M  V30 BEGIN CTAB
M  V30 COUNTS 47 51 0 0 0
M  V30 BEGIN ATOM
M  V30 1 C 0.131302 -4.967324 -1.929832 0
M  V30 2 C 0.725755 -3.881154 -1.105469 0
M  V30 3 C 1.894415 -4.109287 -0.378365 0
M  V30 4 C 2.425887 -3.091860 0.377446 0
M  V30 5 C 1.779495 -1.874187 0.389517 0
M  V30 6 C 0.611039 -1.652347 -0.339882 0
M  V30 7 C 0.085504 -0.299957 -0.199674 0
M  V30 8 N 0.652623 0.842266 -0.513594 0
M  V30 9 C 0.228226 1.921343 -0.396930 0
M  V30 10 N 0.545693 3.291719 -0.601351 0
M  V30 11 C 0.788228 4.212706 0.487022 0
M  V30 12 C 1.900063 3.685546 1.307477 0
M  V30 13 C 3.238211 3.991516 1.108929 0
M  V30 14 C 4.163867 3.433296 1.951242 0
M  V30 15 C 3.824301 2.578446 2.989564 0
M  V30 16 F 4.799628 2.075124 3.772743 0
M  V30 17 C 2.498512 2.262177 3.201622 0
M  V30 18 C 1.572544 2.827035 2.351627 0
M  V30 19 S -1.483104 1.542309 0.363482 0
M  V30 20 C -1.214706 -0.215218 0.354740 0
M  V30 21 C -2.258006 -1.058667 0.836975 0
M  V30 22 C -3.557527 -0.853078 0.379747 0
M  V30 23 C -4.507101 -1.708846 0.882512 0
M  V30 24 C -4.096665 -2.674016 1.775410 0
M  V30 25 N -4.868124 -3.600562 2.373572 0
M  V30 26 C -4.096451 -4.373027 3.184358 0
M  V30 27 N -2.832106 -3.886280 3.059605 0
M  V30 28 N -2.819947 -2.875950 2.224701 0
M  V30 29 C -1.867893 -2.029005 1.728655 0
M  V30 30 N 0.109737 -2.667910 -1.074119 0
M  V30 31 H 0.332297 -5.969924 -1.484493 0
M  V30 32 H 0.440339 -4.972236 -2.976088 0
M  V30 33 H -0.995038 -4.872367 -1.922532 0
M  V30 34 H 2.391406 -5.070798 -0.397019 0
M  V30 35 H 3.335046 -3.296316 0.935626 0
M  V30 36 H 2.252021 -1.118132 1.006557 0
M  V30 37 H 0.588179 3.563639 -1.586872 0
M  V30 38 H 1.021471 5.232232 0.117477 0
M  V30 39 H -0.141249 4.236163 1.132555 0
M  V30 40 H 3.491348 4.665614 0.286994 0
M  V30 41 H 5.224516 3.685219 1.786590 0
M  V30 42 H 2.214517 1.603490 3.998630 0
M  V30 43 H 0.515849 2.576421 2.515323 0
M  V30 44 H -3.753430 -0.066431 -0.319253 0
M  V30 45 H -5.515400 -1.607531 0.573140 0
M  V30 46 H -4.339765 -5.223171 3.834419 0
M  V30 47 H -0.845420 -2.154948 2.058809 0
M  V30 END ATOM
M  V30 BEGIN BOND
M  V30 1 1 1 2
M  V30 2 2 2 3
M  V30 3 1 3 4
M  V30 4 2 4 5
M  V30 5 1 5 6
M  V30 6 1 6 7
M  V30 7 1 7 8
M  V30 8 2 8 9
M  V30 9 1 9 10
M  V30 10 1 10 11
M  V30 11 1 11 12
M  V30 12 2 12 13
M  V30 13 1 13 14
M  V30 14 2 14 15
M  V30 15 1 15 16
M  V30 16 1 15 17
M  V30 17 2 17 18
M  V30 18 1 9 19
M  V30 19 1 19 20
M  V30 20 1 20 21
M  V30 21 1 21 22
M  V30 22 2 22 23
M  V30 23 1 23 24
M  V30 24 2 24 25
M  V30 25 1 25 26
M  V30 26 2 26 27
M  V30 27 1 27 28
M  V30 28 1 28 29
M  V30 29 2 6 30
M  V30 30 1 30 2
M  V30 31 2 20 7
M  V30 32 2 29 21
M  V30 33 1 18 12
M  V30 34 1 28 24
M  V30 35 1 1 31
M  V30 36 1 1 32
M  V30 37 1 1 33
M  V30 38 1 3 34
M  V30 39 1 4 35
M  V30 40 1 5 36
M  V30 41 1 10 37
M  V30 42 1 11 38
M  V30 43 1 11 39
M  V30 44 1 13 40
M  V30 45 1 14 41
M  V30 46 1 17 42
M  V30 47 1 18 43
M  V30 48 1 22 44
M  V30 49 1 23 45
M  V30 50 1 26 46
M  V30 51 1 29 47
M  V30 END BOND
M  V30 END CTAB
M  END
>  <Dataset>  (611) 
ChEMBL_Kinases

>  <Ligand_Instance>  (611) 
nan

>  <PDB_ID>  (611) 
nan

>  <Standardized_SMILES>  (611) 
Cc1cccc(-c2nc(NCc3ccc(F)cc3)sc2-c2ccc3ncnn3c2)n1

>  <Name>  (611) 
nan

>  <Pocket>  (611) 
nan

>  <ATP_Site>  (611) 
nan

>  <Peripheral>  (611) 
nan

>  <Num_H_Atoms_ProtBoundConf>  (611) 
nan

>  <Num_Resolved_Atoms>  (611) 
nan

>  <Num_Not_Resolved_Atoms>  (611) 
nan

$$$$
CHEMBL460940
     RDKit          3D

  0  0  0  0  0  0  0  0  0  0999 V3000
M  V30 BEGIN CTAB
M  V30 COUNTS 53 57 0 0 0
M  V30 BEGIN ATOM
M  V30 1 C 1.372467 -2.220484 5.227055 0
M  V30 2 S 2.687929 -2.775811 4.154269 0
M  V30 3 O 3.846957 -3.301185 4.914861 0
M  V30 4 O 2.080700 -3.857528 3.282804 0
M  V30 5 N 3.103029 -1.397035 3.158770 0
M  V30 6 C 2.486433 -1.112278 1.885437 0
M  V30 7 O 1.691631 -2.060128 1.798179 0
M  V30 8 C 3.115991 0.108908 1.398581 0
M  V30 9 C 2.566539 0.540107 0.073624 0
M  V30 10 N 1.159598 0.832059 0.049832 0
M  V30 11 C 0.643897 2.059623 0.376499 0
M  V30 12 C 1.329572 3.208421 0.799531 0
M  V30 13 C 0.704826 4.399954 1.104339 0
M  V30 14 C -0.689129 4.423249 0.971747 0
M  V30 15 O -1.326349 5.629911 1.279971 0
M  V30 16 C -1.334327 3.281655 0.554995 0
M  V30 17 C -0.727455 2.101893 0.252018 0
M  V30 18 C -1.082839 0.866827 -0.164785 0
M  V30 19 C -2.285711 0.327880 -0.460405 0
M  V30 20 C -2.390746 -0.975183 -0.882861 0
M  V30 21 C -1.247561 -1.764566 -1.012973 0
M  V30 22 C -1.285961 -3.133222 -1.449644 0
M  V30 23 C -1.193868 -3.534131 -2.767270 0
M  V30 24 C -1.241509 -4.879056 -3.081977 0
M  V30 25 C -1.382072 -5.840080 -2.080472 0
M  V30 26 C -1.474155 -5.426983 -0.755170 0
M  V30 27 C -1.426903 -4.068229 -0.427086 0
M  V30 28 Cl -1.548074 -3.600452 1.268244 0
M  V30 29 C -0.045041 -1.169229 -0.699149 0
M  V30 30 C 0.067384 0.120516 -0.279657 0
M  V30 31 C -3.751849 -1.397193 -1.157978 0
M  V30 32 O -4.160747 -2.517915 -1.554532 0
M  V30 33 N -4.535318 -0.229048 -0.870710 0
M  V30 34 C -3.648401 0.793378 -0.455384 0
M  V30 35 O -4.162037 1.881952 -0.165081 0
M  V30 36 H 0.606289 -3.001861 5.387292 0
M  V30 37 H 1.778366 -1.884457 6.202733 0
M  V30 38 H 0.816411 -1.357337 4.773394 0
M  V30 39 H 3.865663 -0.859080 3.691083 0
M  V30 40 H 3.002892 0.968298 2.101880 0
M  V30 41 H 4.231642 -0.012764 1.302218 0
M  V30 42 H 2.834038 -0.228643 -0.686577 0
M  V30 43 H 3.149519 1.455689 -0.246839 0
M  V30 44 H 2.406988 3.241175 0.917683 0
M  V30 45 H 1.249254 5.275193 1.428834 0
M  V30 46 H -1.896304 5.671303 2.118645 0
M  V30 47 H -2.382121 3.430010 0.495681 0
M  V30 48 H -1.085522 -2.766544 -3.522073 0
M  V30 49 H -1.168086 -5.191524 -4.127964 0
M  V30 50 H -1.419487 -6.895356 -2.326948 0
M  V30 51 H -1.584914 -6.143982 0.059867 0
M  V30 52 H 0.848670 -1.770473 -0.797065 0
M  V30 53 H -5.584134 -0.260226 -0.989864 0
M  V30 END ATOM
M  V30 BEGIN BOND
M  V30 1 1 1 2
M  V30 2 2 2 3
M  V30 3 2 2 4
M  V30 4 1 2 5
M  V30 5 1 5 6
M  V30 6 2 6 7
M  V30 7 1 6 8
M  V30 8 1 8 9
M  V30 9 1 9 10
M  V30 10 1 10 11
M  V30 11 2 11 12
M  V30 12 1 12 13
M  V30 13 2 13 14
M  V30 14 1 14 15
M  V30 15 1 14 16
M  V30 16 2 16 17
M  V30 17 1 17 18
M  V30 18 2 18 19
M  V30 19 1 19 20
M  V30 20 2 20 21
M  V30 21 1 21 22
M  V30 22 2 22 23
M  V30 23 1 23 24
M  V30 24 2 24 25
M  V30 25 1 25 26
M  V30 26 2 26 27
M  V30 27 1 27 28
M  V30 28 1 21 29
M  V30 29 2 29 30
M  V30 30 1 20 31
M  V30 31 2 31 32
M  V30 32 1 31 33
M  V30 33 1 33 34
M  V30 34 2 34 35
M  V30 35 1 30 10
M  V30 36 1 17 11
M  V30 37 1 30 18
M  V30 38 1 34 19
M  V30 39 1 27 22
M  V30 40 1 1 36
M  V30 41 1 1 37
M  V30 42 1 1 38
M  V30 43 1 5 39
M  V30 44 1 8 40
M  V30 45 1 8 41
M  V30 46 1 9 42
M  V30 47 1 9 43
M  V30 48 1 12 44
M  V30 49 1 13 45
M  V30 50 1 15 46
M  V30 51 1 16 47
M  V30 52 1 23 48
M  V30 53 1 24 49
M  V30 54 1 25 50
M  V30 55 1 26 51
M  V30 56 1 29 52
M  V30 57 1 33 53
M  V30 END BOND
M  V30 END CTAB
M  END
>  <Dataset>  (612) 
ChEMBL_Kinases

>  <Ligand_Instance>  (612) 
nan

>  <PDB_ID>  (612) 
nan

>  <Standardized_SMILES>  (612) 
CS(=O)(=O)NC(=O)CCn1c2ccc(O)cc2c2c3c(c(-c4ccccc4Cl)cc21)C(=O)NC3=O

>  <Name>  (612) 
nan

>  <Pocket>  (612) 
nan

>  <ATP_Site>  (612) 
nan

>  <Peripheral>  (612) 
nan

>  <Num_H_Atoms_ProtBoundConf>  (612) 
nan

>  <Num_Resolved_Atoms>  (612) 
nan

>  <Num_Not_Resolved_Atoms>  (612) 
nan

$$$$
CHEMBL585113
     RDKit          3D

  0  0  0  0  0  0  0  0  0  0999 V3000
M  V30 BEGIN CTAB
M  V30 COUNTS 56 60 0 0 0
M  V30 BEGIN ATOM
M  V30 1 C -0.021882 -2.084507 3.448473 0
M  V30 2 C 0.474638 -2.534601 2.147379 0
M  V30 3 C 1.546577 -1.938916 1.524771 0
M  V30 4 N 2.228777 -0.844858 2.125698 0
M  V30 5 C 3.333235 -0.256148 1.448995 0
M  V30 6 C 4.597811 -0.762435 1.694569 0
M  V30 7 C 4.775811 -1.864778 2.620473 0
M  V30 8 N 4.934059 -2.747355 3.358391 0
M  V30 9 C 5.727885 -0.234493 1.066509 0
M  V30 10 N 5.519271 0.789787 0.212734 0
M  V30 11 C 4.304894 1.305061 -0.048230 0
M  V30 12 C 3.181576 0.792795 0.565252 0
M  V30 13 C 1.857738 1.341951 0.291627 0
M  V30 14 C 1.599554 2.387003 -0.572477 0
M  V30 15 C 0.257388 2.593465 -0.547101 0
M  V30 16 C -0.274160 1.660784 0.339810 0
M  V30 17 C -1.701320 1.546200 0.655602 0
M  V30 18 N -2.454153 0.657764 -0.182201 0
M  V30 19 C -3.823784 0.699696 0.305278 0
M  V30 20 C -4.835204 0.372253 -0.763479 0
M  V30 21 C -4.288998 -0.661560 -1.692943 0
M  V30 22 C -3.100231 -0.053030 -2.386914 0
M  V30 23 C -2.503877 1.090887 -1.561564 0
M  V30 24 O 0.731307 0.959296 0.793458 0
M  V30 25 C 2.024000 -2.359849 0.290252 0
M  V30 26 C 1.414383 -3.428807 -0.374197 0
M  V30 27 C 0.327556 -4.023432 0.270072 0
M  V30 28 N -0.439765 -5.059132 -0.134192 0
M  V30 29 C -1.365567 -5.277651 0.816326 0
M  V30 30 C -1.225640 -4.389911 1.864910 0
M  V30 31 C -0.139731 -3.595076 1.501205 0
M  V30 32 H -0.863786 -1.343488 3.333244 0
M  V30 33 H -0.485013 -2.963267 3.950746 0
M  V30 34 H 0.769553 -1.685990 4.117013 0
M  V30 35 H 1.973521 -0.430929 3.049319 0
M  V30 36 H 6.704571 -0.646900 1.274658 0
M  V30 37 H 4.150830 2.127235 -0.735578 0
M  V30 38 H 2.278143 2.982232 -1.190042 0
M  V30 39 H -0.319365 3.341210 -1.105840 0
M  V30 40 H -2.160496 2.553816 0.583596 0
M  V30 41 H -1.844667 1.201942 1.700468 0
M  V30 42 H -3.962452 0.086900 1.210431 0
M  V30 43 H -4.020390 1.752617 0.602288 0
M  V30 44 H -5.119301 1.306106 -1.316509 0
M  V30 45 H -5.765413 -0.011578 -0.313578 0
M  V30 46 H -5.092444 -0.895676 -2.448799 0
M  V30 47 H -4.060976 -1.567929 -1.132660 0
M  V30 48 H -2.361400 -0.824420 -2.605689 0
M  V30 49 H -3.493558 0.441697 -3.323310 0
M  V30 50 H -1.536085 1.332396 -2.003098 0
M  V30 51 H -3.128099 1.996045 -1.647103 0
M  V30 52 H 2.866573 -1.907437 -0.221171 0
M  V30 53 H 1.754174 -3.778418 -1.322605 0
M  V30 54 H -0.340274 -5.600678 -1.024474 0
M  V30 55 H -2.159583 -6.029270 0.844514 0
M  V30 56 H -1.822704 -4.322483 2.768537 0
M  V30 END ATOM
M  V30 BEGIN BOND
M  V30 1 1 1 2
M  V30 2 2 2 3
M  V30 3 1 3 4
M  V30 4 1 4 5
M  V30 5 2 5 6
M  V30 6 1 6 7
M  V30 7 3 7 8
M  V30 8 1 6 9
M  V30 9 2 9 10
M  V30 10 1 10 11
M  V30 11 2 11 12
M  V30 12 1 12 13
M  V30 13 2 13 14
M  V30 14 1 14 15
M  V30 15 2 15 16
M  V30 16 1 16 17
M  V30 17 1 17 18
M  V30 18 1 18 19
M  V30 19 1 19 20
M  V30 20 1 20 21
M  V30 21 1 21 22
M  V30 22 1 22 23
M  V30 23 1 16 24
M  V30 24 1 3 25
M  V30 25 2 25 26
M  V30 26 1 26 27
M  V30 27 1 27 28
M  V30 28 1 28 29
M  V30 29 2 29 30
M  V30 30 1 30 31
M  V30 31 1 31 2
M  V30 32 1 12 5
M  V30 33 1 24 13
M  V30 34 2 31 27
M  V30 35 1 23 18
M  V30 36 1 1 32
M  V30 37 1 1 33
M  V30 38 1 1 34
M  V30 39 1 4 35
M  V30 40 1 9 36
M  V30 41 1 11 37
M  V30 42 1 14 38
M  V30 43 1 15 39
M  V30 44 1 17 40
M  V30 45 1 17 41
M  V30 46 1 19 42
M  V30 47 1 19 43
M  V30 48 1 20 44
M  V30 49 1 20 45
M  V30 50 1 21 46
M  V30 51 1 21 47
M  V30 52 1 22 48
M  V30 53 1 22 49
M  V30 54 1 23 50
M  V30 55 1 23 51
M  V30 56 1 25 52
M  V30 57 1 26 53
M  V30 58 1 28 54
M  V30 59 1 29 55
M  V30 60 1 30 56
M  V30 END BOND
M  V30 END CTAB
M  END
>  <Dataset>  (613) 
ChEMBL_Kinases

>  <Ligand_Instance>  (613) 
nan

>  <PDB_ID>  (613) 
nan

>  <Standardized_SMILES>  (613) 
Cc1c(Nc2c(C#N)cncc2-c2ccc(CN3CCCCC3)o2)ccc2[nH]ccc12

>  <Name>  (613) 
nan

>  <Pocket>  (613) 
nan

>  <ATP_Site>  (613) 
nan

>  <Peripheral>  (613) 
nan

>  <Num_H_Atoms_ProtBoundConf>  (613) 
nan

>  <Num_Resolved_Atoms>  (613) 
nan

>  <Num_Not_Resolved_Atoms>  (613) 
nan

$$$$
CHEMBL210307
     RDKit          3D

  0  0  0  0  0  0  0  0  0  0999 V3000
M  V30 BEGIN CTAB
M  V30 COUNTS 31 31 0 0 0
M  V30 BEGIN ATOM
M  V30 1 C -1.223806 -3.172440 4.268235 0
M  V30 2 C -0.594725 -2.363651 3.197265 0
M  V30 3 O -0.257728 -1.170463 3.410216 0
M  V30 4 N -0.354331 -2.901039 1.911776 0
M  V30 5 C 0.241683 -2.213344 0.815386 0
M  V30 6 C 0.432255 -2.836744 -0.401848 0
M  V30 7 C 1.005156 -2.186556 -1.466616 0
M  V30 8 N 1.149039 -2.935442 -2.671575 0
M  V30 9 C 1.404779 -0.871299 -1.323659 0
M  V30 10 C 1.999344 -0.212704 -2.445261 0
M  V30 11 N 2.491631 0.317140 -3.336473 0
M  V30 12 C 1.205302 -0.260986 -0.092998 0
M  V30 13 O 1.638930 1.057784 -0.049129 0
M  V30 14 C 1.543215 1.884243 1.088657 0
M  V30 15 C 0.076433 2.036169 1.505021 0
M  V30 16 C -0.720475 2.639611 0.426534 0
M  V30 17 O -0.345609 3.016441 -0.720938 0
M  V30 18 O -2.063244 2.842916 0.646794 0
M  V30 19 N 0.638071 -0.929033 0.936261 0
M  V30 20 H -1.836754 -2.500717 4.905594 0
M  V30 21 H -1.913145 -3.937206 3.884221 0
M  V30 22 H -0.475762 -3.641011 4.948501 0
M  V30 23 H -0.646009 -3.886457 1.776737 0
M  V30 24 H 0.101502 -3.866263 -0.459487 0
M  V30 25 H 0.344819 -2.748462 -3.315664 0
M  V30 26 H 0.372137 -2.791386 -3.361269 0
M  V30 27 H 1.884756 2.896880 0.813448 0
M  V30 28 H 2.165027 1.562812 1.929997 0
M  V30 29 H -0.362033 1.066926 1.817905 0
M  V30 30 H -0.009112 2.701236 2.386468 0
M  V30 31 H -2.736707 2.878733 -0.108638 0
M  V30 END ATOM
M  V30 BEGIN BOND
M  V30 1 1 1 2
M  V30 2 2 2 3
M  V30 3 1 2 4
M  V30 4 1 4 5
M  V30 5 2 5 6
M  V30 6 1 6 7
M  V30 7 1 7 8
M  V30 8 2 7 9
M  V30 9 1 9 10
M  V30 10 3 10 11
M  V30 11 1 9 12
M  V30 12 1 12 13
M  V30 13 1 13 14
M  V30 14 1 14 15
M  V30 15 1 15 16
M  V30 16 2 16 17
M  V30 17 1 16 18
M  V30 18 2 12 19
M  V30 19 1 19 5
M  V30 20 1 1 20
M  V30 21 1 1 21
M  V30 22 1 1 22
M  V30 23 1 4 23
M  V30 24 1 6 24
M  V30 25 1 8 25
M  V30 26 1 8 26
M  V30 27 1 14 27
M  V30 28 1 14 28
M  V30 29 1 15 29
M  V30 30 1 15 30
M  V30 31 1 18 31
M  V30 END BOND
M  V30 END CTAB
M  END
>  <Dataset>  (614) 
ChEMBL_Kinases

>  <Ligand_Instance>  (614) 
nan

>  <PDB_ID>  (614) 
nan

>  <Standardized_SMILES>  (614) 
CC(=O)Nc1cc(N)c(C#N)c(OCCC(=O)O)n1

>  <Name>  (614) 
nan

>  <Pocket>  (614) 
nan

>  <ATP_Site>  (614) 
nan

>  <Peripheral>  (614) 
nan

>  <Num_H_Atoms_ProtBoundConf>  (614) 
nan

>  <Num_Resolved_Atoms>  (614) 
nan

>  <Num_Not_Resolved_Atoms>  (614) 
nan

$$$$
CHEMBL1233748
     RDKit          3D

  0  0  0  0  0  0  0  0  0  0999 V3000
M  V30 BEGIN CTAB
M  V30 COUNTS 63 67 0 0 0
M  V30 BEGIN ATOM
M  V30 1 C 3.868544 -2.975211 2.015135 0
M  V30 2 O 4.066325 -2.038730 3.068537 0
M  V30 3 C 3.589472 -0.750575 2.891983 0
M  V30 4 C 2.928986 -0.353714 1.723527 0
M  V30 5 C 2.456664 0.953043 1.568868 0
M  V30 6 N 1.820571 1.131304 0.310795 0
M  V30 7 C 2.354234 1.535562 -0.936320 0
M  V30 8 O 3.565732 1.816856 -1.119940 0
M  V30 9 C 1.482922 1.644886 -2.100936 0
M  V30 10 C 2.033272 2.041959 -3.301117 0
M  V30 11 C 1.265462 2.170493 -4.463077 0
M  V30 12 C -0.104389 1.893396 -4.431451 0
M  V30 13 C -0.650828 1.496472 -3.228179 0
M  V30 14 N -2.057514 1.192909 -3.114994 0
M  V30 15 N -3.083408 1.950950 -3.465933 0
M  V30 16 C -4.243249 1.313767 -3.201860 0
M  V30 17 C -3.833170 0.096884 -2.657373 0
M  V30 18 C -4.593055 -0.954083 -2.203862 0
M  V30 19 C -4.048421 -2.131319 -1.674593 0
M  V30 20 N -4.852514 -3.202691 -1.233738 0
M  V30 21 C -4.751115 -4.143425 -0.186503 0
M  V30 22 C -3.774976 -4.225345 0.775581 0
M  V30 23 C -3.703766 -5.161007 1.762415 0
M  V30 24 C -4.691811 -6.117203 1.814085 0
M  V30 25 C -5.695572 -6.080707 0.872905 0
M  V30 26 C -5.711680 -5.117838 -0.091468 0
M  V30 27 F -6.746848 -5.179398 -0.964351 0
M  V30 28 C -2.672297 -2.129004 -1.655466 0
M  V30 29 C -1.856115 -1.109019 -2.094148 0
M  V30 30 C -2.460798 0.017177 -2.601099 0
M  V30 31 C 0.129522 1.383166 -2.119163 0
M  V30 32 C 2.647210 1.861547 2.586786 0
M  V30 33 C 3.296225 1.463251 3.729359 0
M  V30 34 O 3.471373 2.397384 4.731406 0
M  V30 35 C 3.037860 3.720378 4.671532 0
M  V30 36 C 3.774294 0.182640 3.914071 0
M  V30 37 O 4.427789 -0.215034 5.067177 0
M  V30 38 C 3.718826 -0.755941 6.180586 0
M  V30 39 H 2.794083 -3.143184 1.817239 0
M  V30 40 H 4.322703 -3.953915 2.250281 0
M  V30 41 H 4.355712 -2.605843 1.074715 0
M  V30 42 H 2.831091 -1.153633 0.978399 0
M  V30 43 H 0.817485 0.895246 0.476432 0
M  V30 44 H 3.098569 2.283320 -3.432205 0
M  V30 45 H 1.685453 2.478312 -5.399066 0
M  V30 46 H -0.730887 1.980440 -5.305641 0
M  V30 47 H -5.256072 1.652230 -3.366997 0
M  V30 48 H -5.690622 -0.878200 -2.254158 0
M  V30 49 H -5.700350 -3.266197 -1.867346 0
M  V30 50 H -2.993668 -3.487460 0.774013 0
M  V30 51 H -2.903864 -5.167285 2.490162 0
M  V30 52 H -4.634532 -6.870769 2.608318 0
M  V30 53 H -6.460858 -6.845650 0.937403 0
M  V30 54 H -2.115187 -2.960710 -1.295643 0
M  V30 55 H -0.793000 -1.116325 -2.074945 0
M  V30 56 H -0.329636 1.070009 -1.192721 0
M  V30 57 H 2.252377 2.830021 2.375273 0
M  V30 58 H 3.825786 4.404063 4.247636 0
M  V30 59 H 2.060744 3.864953 4.164378 0
M  V30 60 H 2.889975 4.093846 5.710143 0
M  V30 61 H 4.117683 -1.743553 6.436976 0
M  V30 62 H 2.629287 -0.831664 5.970461 0
M  V30 63 H 3.868506 -0.084398 7.058008 0
M  V30 END ATOM
M  V30 BEGIN BOND
M  V30 1 1 1 2
M  V30 2 1 2 3
M  V30 3 2 3 4
M  V30 4 1 4 5
M  V30 5 1 5 6
M  V30 6 1 6 7
M  V30 7 2 7 8
M  V30 8 1 7 9
M  V30 9 2 9 10
M  V30 10 1 10 11
M  V30 11 2 11 12
M  V30 12 1 12 13
M  V30 13 1 13 14
M  V30 14 1 14 15
M  V30 15 2 15 16
M  V30 16 1 16 17
M  V30 17 2 17 18
M  V30 18 1 18 19
M  V30 19 1 19 20
M  V30 20 1 20 21
M  V30 21 2 21 22
M  V30 22 1 22 23
M  V30 23 2 23 24
M  V30 24 1 24 25
M  V30 25 2 25 26
M  V30 26 1 26 27
M  V30 27 2 19 28
M  V30 28 1 28 29
M  V30 29 2 29 30
M  V30 30 2 13 31
M  V30 31 2 5 32
M  V30 32 1 32 33
M  V30 33 1 33 34
M  V30 34 1 34 35
M  V30 35 2 33 36
M  V30 36 1 36 37
M  V30 37 1 37 38
M  V30 38 1 36 3
M  V30 39 1 31 9
M  V30 40 1 30 14
M  V30 41 1 30 17
M  V30 42 1 26 21
M  V30 43 1 1 39
M  V30 44 1 1 40
M  V30 45 1 1 41
M  V30 46 1 4 42
M  V30 47 1 6 43
M  V30 48 1 10 44
M  V30 49 1 11 45
M  V30 50 1 12 46
M  V30 51 1 16 47
M  V30 52 1 18 48
M  V30 53 1 20 49
M  V30 54 1 22 50
M  V30 55 1 23 51
M  V30 56 1 24 52
M  V30 57 1 25 53
M  V30 58 1 28 54
M  V30 59 1 29 55
M  V30 60 1 31 56
M  V30 61 1 32 57
M  V30 62 1 35 58
M  V30 63 1 35 59
M  V30 64 1 35 60
M  V30 65 1 38 61
M  V30 66 1 38 62
M  V30 67 1 38 63
M  V30 END BOND
M  V30 END CTAB
M  END
>  <Dataset>  (615) 
ChEMBL_Kinases

>  <Ligand_Instance>  (615) 
nan

>  <PDB_ID>  (615) 
nan

>  <Standardized_SMILES>  (615) 
COc1cc(NC(=O)c2cccc(-n3ncc4cc(Nc5ccccc5F)ccc43)c2)cc(OC)c1OC

>  <Name>  (615) 
nan

>  <Pocket>  (615) 
nan

>  <ATP_Site>  (615) 
nan

>  <Peripheral>  (615) 
nan

>  <Num_H_Atoms_ProtBoundConf>  (615) 
nan

>  <Num_Resolved_Atoms>  (615) 
nan

>  <Num_Not_Resolved_Atoms>  (615) 
nan

$$$$
CHEMBL1233659
     RDKit          3D

  0  0  0  0  0  0  0  0  0  0999 V3000
M  V30 BEGIN CTAB
M  V30 COUNTS 35 38 0 0 0
M  V30 BEGIN ATOM
M  V30 1 O 1.200872 -1.009603 -3.111590 0
M  V30 2 C 1.807072 -1.329813 -2.077904 0
M  V30 3 N 3.059689 -2.000917 -2.093791 0
M  V30 4 C 3.407349 -2.181084 -0.708531 0
M  V30 5 C 4.585730 -2.810501 -0.290758 0
M  V30 6 Br 5.880956 -3.509658 -1.496161 0
M  V30 7 C 4.823786 -2.932138 1.047116 0
M  V30 8 C 3.863543 -2.413869 1.926458 0
M  V30 9 C 2.736216 -1.812186 1.421686 0
M  V30 10 C 2.445849 -1.662363 0.121328 0
M  V30 11 C 1.423772 -1.118399 -0.691729 0
M  V30 12 C 0.341879 -0.536925 -0.266719 0
M  V30 13 N -0.653890 -0.007130 -1.109037 0
M  V30 14 C -1.724871 0.569804 -0.375770 0
M  V30 15 C -2.893584 1.193967 -0.825808 0
M  V30 16 C -3.745428 1.654582 0.151579 0
M  V30 17 C -3.480450 1.518426 1.485202 0
M  V30 18 C -4.438860 2.036258 2.485065 0
M  V30 19 O -4.277363 1.955147 3.730285 0
M  V30 20 O -5.597596 2.655192 2.053300 0
M  V30 21 C -2.315250 0.895850 1.867860 0
M  V30 22 C -1.388207 0.395240 0.957516 0
M  V30 23 C -0.115395 -0.286146 1.069939 0
M  V30 24 N 0.358179 -0.535036 2.182298 0
M  V30 25 O -0.198451 -0.231707 3.363078 0
M  V30 26 H 3.575885 -2.281258 -2.962499 0
M  V30 27 H 5.714373 -3.407757 1.379461 0
M  V30 28 H 4.149876 -2.562611 2.981569 0
M  V30 29 H 2.169647 -1.505065 2.238386 0
M  V30 30 H -0.635766 -0.021302 -2.136947 0
M  V30 31 H -3.102388 1.301295 -1.868279 0
M  V30 32 H -4.635144 2.129710 -0.199776 0
M  V30 33 H -6.466594 2.699911 2.600068 0
M  V30 34 H -2.180190 0.828088 2.924668 0
M  V30 35 H 0.198914 -0.549457 4.257727 0
M  V30 END ATOM
M  V30 BEGIN BOND
M  V30 1 2 1 2
M  V30 2 1 2 3
M  V30 3 1 3 4
M  V30 4 2 4 5
M  V30 5 1 5 6
M  V30 6 1 5 7
M  V30 7 2 7 8
M  V30 8 1 8 9
M  V30 9 2 9 10
M  V30 10 1 10 11
M  V30 11 2 11 12
M  V30 12 1 12 13
M  V30 13 1 13 14
M  V30 14 2 14 15
M  V30 15 1 15 16
M  V30 16 2 16 17
M  V30 17 1 17 18
M  V30 18 2 18 19
M  V30 19 1 18 20
M  V30 20 1 17 21
M  V30 21 2 21 22
M  V30 22 1 22 23
M  V30 23 2 23 24
M  V30 24 1 24 25
M  V30 25 1 11 2
M  V30 26 1 23 12
M  V30 27 1 10 4
M  V30 28 1 22 14
M  V30 29 1 3 26
M  V30 30 1 7 27
M  V30 31 1 8 28
M  V30 32 1 9 29
M  V30 33 1 13 30
M  V30 34 1 15 31
M  V30 35 1 16 32
M  V30 36 1 20 33
M  V30 37 1 21 34
M  V30 38 1 25 35
M  V30 END BOND
M  V30 END CTAB
M  END
>  <Dataset>  (616) 
ChEMBL_Kinases

>  <Ligand_Instance>  (616) 
nan

>  <PDB_ID>  (616) 
nan

>  <Standardized_SMILES>  (616) 
O=C1Nc2c(Br)cccc2/C1=C1/Nc2ccc(C(=O)O)cc2/C1=N\O

>  <Name>  (616) 
nan

>  <Pocket>  (616) 
nan

>  <ATP_Site>  (616) 
nan

>  <Peripheral>  (616) 
nan

>  <Num_H_Atoms_ProtBoundConf>  (616) 
nan

>  <Num_Resolved_Atoms>  (616) 
nan

>  <Num_Not_Resolved_Atoms>  (616) 
nan

$$$$
CHEMBL2087006
     RDKit          3D

  0  0  0  0  0  0  0  0  0  0999 V3000
M  V30 BEGIN CTAB
M  V30 COUNTS 34 36 0 0 0
M  V30 BEGIN ATOM
M  V30 1 O 2.435717 -7.574217 0.931230 0
M  V30 2 C 2.832497 -6.873001 -0.046594 0
M  V30 3 O 3.587390 -7.511492 -1.021259 0
M  V30 4 C 2.511330 -5.456441 -0.145998 0
M  V30 5 C 2.939125 -4.685170 -1.207143 0
M  V30 6 C 2.639084 -3.342464 -1.308642 0
M  V30 7 C 1.883166 -2.825985 -0.277391 0
M  V30 8 C 1.559482 -1.392150 -0.380297 0
M  V30 9 N 1.729898 -0.495795 -1.067469 0
M  V30 10 N 1.316848 0.721685 -0.923905 0
M  V30 11 C 0.685960 1.136786 -0.056123 0
M  V30 12 N -0.075734 2.131463 0.770029 0
M  V30 13 C -1.441752 2.242554 0.463591 0
M  V30 14 O -1.839352 1.482147 -0.472986 0
M  V30 15 C -2.339646 3.157541 1.162164 0
M  V30 16 C -1.976269 4.011298 2.187908 0
M  V30 17 C -2.896727 4.844187 2.791687 0
M  V30 18 C -4.220777 4.855179 2.391258 0
M  V30 19 C -4.594492 4.006652 1.367888 0
M  V30 20 C -3.676588 3.168115 0.757278 0
M  V30 21 S 0.528722 -0.499637 0.941289 0
M  V30 22 C 1.416043 -3.537223 0.822519 0
M  V30 23 C 1.756573 -4.875355 0.854302 0
M  V30 24 H 4.298834 -8.197054 -0.750004 0
M  V30 25 H 3.532697 -5.109596 -2.008441 0
M  V30 26 H 2.949863 -2.702624 -2.115246 0
M  V30 27 H 0.355649 2.707207 1.519729 0
M  V30 28 H -0.947813 3.992713 2.488202 0
M  V30 29 H -2.557220 5.492045 3.589907 0
M  V30 30 H -4.956000 5.505187 2.857205 0
M  V30 31 H -5.647452 4.030520 1.065617 0
M  V30 32 H -3.993464 2.512550 -0.042137 0
M  V30 33 H 0.827289 -3.051598 1.588284 0
M  V30 34 H 1.375515 -5.411511 1.731789 0
M  V30 END ATOM
M  V30 BEGIN BOND
M  V30 1 2 1 2
M  V30 2 1 2 3
M  V30 3 1 2 4
M  V30 4 2 4 5
M  V30 5 1 5 6
M  V30 6 2 6 7
M  V30 7 1 7 8
M  V30 8 2 8 9
M  V30 9 1 9 10
M  V30 10 2 10 11
M  V30 11 1 11 12
M  V30 12 1 12 13
M  V30 13 2 13 14
M  V30 14 1 13 15
M  V30 15 2 15 16
M  V30 16 1 16 17
M  V30 17 2 17 18
M  V30 18 1 18 19
M  V30 19 2 19 20
M  V30 20 1 11 21
M  V30 21 1 7 22
M  V30 22 2 22 23
M  V30 23 1 23 4
M  V30 24 1 21 8
M  V30 25 1 20 15
M  V30 26 1 3 24
M  V30 27 1 5 25
M  V30 28 1 6 26
M  V30 29 1 12 27
M  V30 30 1 16 28
M  V30 31 1 17 29
M  V30 32 1 18 30
M  V30 33 1 19 31
M  V30 34 1 20 32
M  V30 35 1 22 33
M  V30 36 1 23 34
M  V30 END BOND
M  V30 END CTAB
M  END
>  <Dataset>  (617) 
ChEMBL_Kinases

>  <Ligand_Instance>  (617) 
nan

>  <PDB_ID>  (617) 
nan

>  <Standardized_SMILES>  (617) 
O=C(O)c1ccc(-c2nnc(NC(=O)c3ccccc3)s2)cc1

>  <Name>  (617) 
nan

>  <Pocket>  (617) 
nan

>  <ATP_Site>  (617) 
nan

>  <Peripheral>  (617) 
nan

>  <Num_H_Atoms_ProtBoundConf>  (617) 
nan

>  <Num_Resolved_Atoms>  (617) 
nan

>  <Num_Not_Resolved_Atoms>  (617) 
nan

$$$$
CHEMBL583913
     RDKit          3D

  0  0  0  0  0  0  0  0  0  0999 V3000
M  V30 BEGIN CTAB
M  V30 COUNTS 42 45 0 0 0
M  V30 BEGIN ATOM
M  V30 1 C 1.669081 -5.749458 0.614044 0
M  V30 2 N 0.380355 -5.159569 0.414400 0
M  V30 3 C -0.127729 -4.460387 1.547068 0
M  V30 4 C 0.253129 -4.472186 -0.832522 0
M  V30 5 C 1.295392 -3.378640 -0.850911 0
M  V30 6 N 0.949717 -2.189006 -0.374582 0
M  V30 7 C 1.782928 -1.133931 -0.336513 0
M  V30 8 C 2.985953 -1.477858 -0.846157 0
M  V30 9 S 3.987652 0.096461 -0.709156 0
M  V30 10 C 2.626706 1.018840 0.028268 0
M  V30 11 C 2.623384 2.339622 0.427835 0
M  V30 12 C 1.482393 2.867443 0.972068 0
M  V30 13 C 0.427611 1.989366 1.063100 0
M  V30 14 C -0.816978 2.547805 1.651407 0
M  V30 15 C -1.674670 1.744769 2.371513 0
M  V30 16 C -2.821305 2.261095 2.913029 0
M  V30 17 C -3.149321 3.609956 2.749716 0
M  V30 18 C -2.278607 4.398889 2.025613 0
M  V30 19 O -2.545654 5.756876 1.823698 0
M  V30 20 C -1.115405 3.890063 1.472321 0
M  V30 21 C 0.430884 0.676848 0.666004 0
M  V30 22 C 1.570474 0.137075 0.118614 0
M  V30 23 C 3.413095 -2.697809 -1.359023 0
M  V30 24 O 4.595119 -2.774877 -1.780797 0
M  V30 25 N 2.503172 -3.683158 -1.350186 0
M  V30 26 H 1.745923 -6.331857 1.529450 0
M  V30 27 H 1.999541 -6.352041 -0.254645 0
M  V30 28 H 2.405542 -4.899553 0.693924 0
M  V30 29 H 0.224929 -3.408841 1.534135 0
M  V30 30 H 0.270779 -4.914336 2.479788 0
M  V30 31 H -1.244468 -4.417817 1.570382 0
M  V30 32 H -0.733419 -3.981682 -0.949445 0
M  V30 33 H 0.376525 -5.142056 -1.691709 0
M  V30 34 H 3.533753 2.902757 0.290433 0
M  V30 35 H 1.453605 3.891512 1.290706 0
M  V30 36 H -1.442050 0.703309 2.509952 0
M  V30 37 H -3.532039 1.687243 3.485454 0
M  V30 38 H -4.040245 4.099842 3.147130 0
M  V30 39 H -3.452427 6.144287 1.990589 0
M  V30 40 H -0.465123 4.558428 0.910602 0
M  V30 41 H -0.481911 0.115639 0.804815 0
M  V30 42 H 2.798605 -4.605606 -1.728697 0
M  V30 END ATOM
M  V30 BEGIN BOND
M  V30 1 1 1 2
M  V30 2 1 2 3
M  V30 3 1 2 4
M  V30 4 1 4 5
M  V30 5 2 5 6
M  V30 6 1 6 7
M  V30 7 2 7 8
M  V30 8 1 8 9
M  V30 9 1 9 10
M  V30 10 2 10 11
M  V30 11 1 11 12
M  V30 12 2 12 13
M  V30 13 1 13 14
M  V30 14 2 14 15
M  V30 15 1 15 16
M  V30 16 2 16 17
M  V30 17 1 17 18
M  V30 18 1 18 19
M  V30 19 2 18 20
M  V30 20 1 13 21
M  V30 21 2 21 22
M  V30 22 1 8 23
M  V30 23 2 23 24
M  V30 24 1 23 25
M  V30 25 1 25 5
M  V30 26 1 22 7
M  V30 27 1 22 10
M  V30 28 1 20 14
M  V30 29 1 1 26
M  V30 30 1 1 27
M  V30 31 1 1 28
M  V30 32 1 3 29
M  V30 33 1 3 30
M  V30 34 1 3 31
M  V30 35 1 4 32
M  V30 36 1 4 33
M  V30 37 1 11 34
M  V30 38 1 12 35
M  V30 39 1 15 36
M  V30 40 1 16 37
M  V30 41 1 17 38
M  V30 42 1 19 39
M  V30 43 1 20 40
M  V30 44 1 21 41
M  V30 45 1 25 42
M  V30 END BOND
M  V30 END CTAB
M  END
>  <Dataset>  (618) 
ChEMBL_Kinases

>  <Ligand_Instance>  (618) 
nan

>  <PDB_ID>  (618) 
nan

>  <Standardized_SMILES>  (618) 
CN(C)Cc1nc2c(sc3ccc(-c4cccc(O)c4)cc32)c(=O)[nH]1

>  <Name>  (618) 
nan

>  <Pocket>  (618) 
nan

>  <ATP_Site>  (618) 
nan

>  <Peripheral>  (618) 
nan

>  <Num_H_Atoms_ProtBoundConf>  (618) 
nan

>  <Num_Resolved_Atoms>  (618) 
nan

>  <Num_Not_Resolved_Atoms>  (618) 
nan

$$$$
CHEMBL4638916
     RDKit          3D

  0  0  0  0  0  0  0  0  0  0999 V3000
M  V30 BEGIN CTAB
M  V30 COUNTS 33 35 0 0 0
M  V30 BEGIN ATOM
M  V30 1 C -1.261652 -5.222871 4.259034 0
M  V30 2 C -2.075063 -4.884266 3.034477 0
M  V30 3 O -1.535265 -3.776067 2.334349 0
M  V30 4 C -0.253139 -3.752478 1.797876 0
M  V30 5 O 0.478203 -4.768236 1.936323 0
M  V30 6 C 0.275465 -2.592788 1.080085 0
M  V30 7 C 1.564235 -2.689858 0.592897 0
M  V30 8 C 2.033849 -1.560336 -0.087694 0
M  V30 9 C 1.239647 -0.423156 -0.252730 0
M  V30 10 N 1.520763 0.757269 -0.877921 0
M  V30 11 C 0.408312 1.504243 -0.743791 0
M  V30 12 C 0.252685 2.863088 -1.266713 0
M  V30 13 C 1.297573 3.453512 -1.950661 0
M  V30 14 C 1.107318 4.736137 -2.426420 0
M  V30 15 N -0.064755 5.385973 -2.225831 0
M  V30 16 C -1.086936 4.835280 -1.568360 0
M  V30 17 C -0.929767 3.550029 -1.077885 0
M  V30 18 N -0.530693 0.819699 -0.062651 0
M  V30 19 C -0.038354 -0.411469 0.266911 0
M  V30 20 C -0.555200 -1.495750 0.947357 0
M  V30 21 H -0.406050 -5.875448 4.006252 0
M  V30 22 H -1.869487 -5.720343 5.039536 0
M  V30 23 H -0.884805 -4.279129 4.715057 0
M  V30 24 H -2.169227 -5.719228 2.334993 0
M  V30 25 H -3.075304 -4.570295 3.398284 0
M  V30 26 H 2.164079 -3.570644 0.727000 0
M  V30 27 H 3.055355 -1.631142 -0.476507 0
M  V30 28 H 2.422978 0.989661 -1.348696 0
M  V30 29 H 2.224816 2.885742 -2.086180 0
M  V30 30 H 1.906253 5.224845 -2.965467 0
M  V30 31 H -2.010282 5.384921 -1.426617 0
M  V30 32 H -1.719415 3.049637 -0.537600 0
M  V30 33 H -1.545157 -1.478605 1.346398 0
M  V30 END ATOM
M  V30 BEGIN BOND
M  V30 1 1 1 2
M  V30 2 1 2 3
M  V30 3 1 3 4
M  V30 4 2 4 5
M  V30 5 1 4 6
M  V30 6 2 6 7
M  V30 7 1 7 8
M  V30 8 2 8 9
M  V30 9 1 9 10
M  V30 10 1 10 11
M  V30 11 1 11 12
M  V30 12 2 12 13
M  V30 13 1 13 14
M  V30 14 2 14 15
M  V30 15 1 15 16
M  V30 16 2 16 17
M  V30 17 2 11 18
M  V30 18 1 18 19
M  V30 19 2 19 20
M  V30 20 1 20 6
M  V30 21 1 19 9
M  V30 22 1 17 12
M  V30 23 1 1 21
M  V30 24 1 1 22
M  V30 25 1 1 23
M  V30 26 1 2 24
M  V30 27 1 2 25
M  V30 28 1 7 26
M  V30 29 1 8 27
M  V30 30 1 10 28
M  V30 31 1 13 29
M  V30 32 1 14 30
M  V30 33 1 16 31
M  V30 34 1 17 32
M  V30 35 1 20 33
M  V30 END BOND
M  V30 END CTAB
M  END
>  <Dataset>  (619) 
ChEMBL_Kinases

>  <Ligand_Instance>  (619) 
nan

>  <PDB_ID>  (619) 
nan

>  <Standardized_SMILES>  (619) 
CCOC(=O)c1ccc2[nH]c(-c3ccncc3)nc2c1

>  <Name>  (619) 
nan

>  <Pocket>  (619) 
nan

>  <ATP_Site>  (619) 
nan

>  <Peripheral>  (619) 
nan

>  <Num_H_Atoms_ProtBoundConf>  (619) 
nan

>  <Num_Resolved_Atoms>  (619) 
nan

>  <Num_Not_Resolved_Atoms>  (619) 
nan

$$$$
CHEMBL210462
     RDKit          3D

  0  0  0  0  0  0  0  0  0  0999 V3000
M  V30 BEGIN CTAB
M  V30 COUNTS 47 48 0 0 0
M  V30 BEGIN ATOM
M  V30 1 C 1.691808 -4.268000 1.920746 0
M  V30 2 O 1.147537 -3.273380 1.111917 0
M  V30 3 C 1.830803 -2.167626 0.659414 0
M  V30 4 C 3.157839 -2.103222 1.070089 0
M  V30 5 C 4.044044 -1.068659 0.733736 0
M  V30 6 C 3.540285 -0.025783 -0.062619 0
M  V30 7 O 3.938355 1.137941 -0.615998 0
M  V30 8 C 4.958424 1.978870 -0.704007 0
M  V30 9 C 2.164658 -0.003087 -0.543095 0
M  V30 10 C 1.458510 1.043133 -1.289060 0
M  V30 11 C 0.690785 1.957257 -0.446233 0
M  V30 12 O 0.075323 0.819197 -0.067116 0
M  V30 13 N -0.092927 2.924453 0.419937 0
M  V30 14 C -1.009156 2.004111 1.074528 0
M  V30 15 C -0.597925 1.794185 2.348654 0
M  V30 16 C -1.126173 0.767056 3.100931 0
M  V30 17 N -0.773023 0.459286 4.436795 0
M  V30 18 C -2.069432 -0.051333 2.544252 0
M  V30 19 C -2.645650 -1.202635 3.175444 0
M  V30 20 N -3.086619 -2.125229 3.665808 0
M  V30 21 C -2.445580 0.214530 1.249401 0
M  V30 22 O -3.299951 -0.547423 0.651967 0
M  V30 23 C -4.139828 -1.279181 0.036057 0
M  V30 24 C -5.047002 -2.106266 -0.689427 0
M  V30 25 O -6.334398 -2.290800 -0.140057 0
M  V30 26 N -1.981499 1.223762 0.448413 0
M  V30 27 C 1.528256 -1.134351 -0.077133 0
M  V30 28 H 2.688964 -4.577068 1.586371 0
M  V30 29 H 1.008841 -5.154622 1.854193 0
M  V30 30 H 1.687042 -4.027119 3.020121 0
M  V30 31 H 3.745281 -2.788169 1.704273 0
M  V30 32 H 5.071335 -0.804936 0.912584 0
M  V30 33 H 5.982380 1.556461 -0.833874 0
M  V30 34 H 4.983490 2.693064 0.163015 0
M  V30 35 H 4.792200 2.690569 -1.591655 0
M  V30 36 H 2.220479 1.637595 -1.915208 0
M  V30 37 H 0.863009 0.542600 -2.111803 0
M  V30 38 H 0.528318 3.585137 -0.018326 0
M  V30 39 H 0.126396 2.342319 2.894404 0
M  V30 40 H 0.286808 0.533136 4.525446 0
M  V30 41 H -1.514972 0.209313 5.084296 0
M  V30 42 H -4.512710 -1.960016 1.181259 0
M  V30 43 H -3.194778 -2.338000 0.089784 0
M  V30 44 H -4.643820 -3.050959 -1.129108 0
M  V30 45 H -5.295511 -1.527706 -1.667351 0
M  V30 46 H -6.240983 -2.841575 0.682264 0
M  V30 47 H 0.430854 -1.341098 -0.322430 0
M  V30 END ATOM
M  V30 BEGIN BOND
M  V30 1 1 1 2
M  V30 2 1 2 3
M  V30 3 2 3 4
M  V30 4 1 4 5
M  V30 5 2 5 6
M  V30 6 1 6 7
M  V30 7 1 7 8
M  V30 8 1 6 9
M  V30 9 1 9 10
M  V30 10 1 10 11
M  V30 11 2 11 12
M  V30 12 1 11 13
M  V30 13 1 13 14
M  V30 14 2 14 15
M  V30 15 1 15 16
M  V30 16 1 16 17
M  V30 17 2 16 18
M  V30 18 1 18 19
M  V30 19 3 19 20
M  V30 20 1 18 21
M  V30 21 1 21 22
M  V30 22 1 22 23
M  V30 23 1 23 24
M  V30 24 1 24 25
M  V30 25 2 21 26
M  V30 26 2 9 27
M  V30 27 1 27 3
M  V30 28 1 26 14
M  V30 29 1 1 28
M  V30 30 1 1 29
M  V30 31 1 1 30
M  V30 32 1 4 31
M  V30 33 1 5 32
M  V30 34 1 8 33
M  V30 35 1 8 34
M  V30 36 1 8 35
M  V30 37 1 10 36
M  V30 38 1 10 37
M  V30 39 1 13 38
M  V30 40 1 15 39
M  V30 41 1 17 40
M  V30 42 1 17 41
M  V30 43 1 23 42
M  V30 44 1 23 43
M  V30 45 1 24 44
M  V30 46 1 24 45
M  V30 47 1 25 46
M  V30 48 1 27 47
M  V30 END BOND
M  V30 END CTAB
M  END
>  <Dataset>  (620) 
ChEMBL_Kinases

>  <Ligand_Instance>  (620) 
nan

>  <PDB_ID>  (620) 
nan

>  <Standardized_SMILES>  (620) 
COc1ccc(OC)c(CC(=O)Nc2cc(N)c(C#N)c(OCCO)n2)c1

>  <Name>  (620) 
nan

>  <Pocket>  (620) 
nan

>  <ATP_Site>  (620) 
nan

>  <Peripheral>  (620) 
nan

>  <Num_H_Atoms_ProtBoundConf>  (620) 
nan

>  <Num_Resolved_Atoms>  (620) 
nan

>  <Num_Not_Resolved_Atoms>  (620) 
nan

$$$$
CHEMBL572809
     RDKit          3D

  0  0  0  0  0  0  0  0  0  0999 V3000
M  V30 BEGIN CTAB
M  V30 COUNTS 28 30 0 0 0
M  V30 BEGIN ATOM
M  V30 1 C 1.123807 -3.400111 -0.740959 0
M  V30 2 N 1.176133 -4.252906 0.430198 0
M  V30 3 C 1.603695 -3.480567 1.579466 0
M  V30 4 C 0.594936 -2.376964 1.776245 0
M  V30 5 N 0.847068 -1.231920 1.136036 0
M  V30 6 C 0.046716 -0.155954 1.211494 0
M  V30 7 C -1.050325 -0.434743 2.043255 0
M  V30 8 S -2.016998 1.152541 2.016321 0
M  V30 9 C -0.887118 1.991784 0.930822 0
M  V30 10 C -0.964701 3.252970 0.458713 0
M  V30 11 C 0.010830 3.745704 -0.382345 0
M  V30 12 C 1.010226 2.838497 -0.658709 0
M  V30 13 Cl 2.286992 3.433769 -1.738739 0
M  V30 14 C 1.096077 1.555064 -0.182786 0
M  V30 15 C 0.105476 1.090262 0.656526 0
M  V30 16 C -1.341427 -1.609325 2.721051 0
M  V30 17 O -2.382431 -1.635184 3.411129 0
M  V30 18 N -0.463843 -2.610264 2.564079 0
M  V30 19 H 1.436757 -3.922640 -1.667539 0
M  V30 20 H 0.108572 -2.998616 -0.872916 0
M  V30 21 H 1.873249 -2.574097 -0.579779 0
M  V30 22 H 0.201154 -4.576969 0.613720 0
M  V30 23 H 2.582651 -3.040542 1.382414 0
M  V30 24 H 1.698041 -4.091878 2.482895 0
M  V30 25 H -1.796941 3.869581 0.746402 0
M  V30 26 H 0.002713 4.740100 -0.789204 0
M  V30 27 H 1.959552 0.966594 -0.502548 0
M  V30 28 H -0.655257 -3.497174 3.057367 0
M  V30 END ATOM
M  V30 BEGIN BOND
M  V30 1 1 1 2
M  V30 2 1 2 3
M  V30 3 1 3 4
M  V30 4 2 4 5
M  V30 5 1 5 6
M  V30 6 2 6 7
M  V30 7 1 7 8
M  V30 8 1 8 9
M  V30 9 2 9 10
M  V30 10 1 10 11
M  V30 11 2 11 12
M  V30 12 1 12 13
M  V30 13 1 12 14
M  V30 14 2 14 15
M  V30 15 1 7 16
M  V30 16 2 16 17
M  V30 17 1 16 18
M  V30 18 1 18 4
M  V30 19 1 15 6
M  V30 20 1 15 9
M  V30 21 1 1 19
M  V30 22 1 1 20
M  V30 23 1 1 21
M  V30 24 1 2 22
M  V30 25 1 3 23
M  V30 26 1 3 24
M  V30 27 1 10 25
M  V30 28 1 11 26
M  V30 29 1 14 27
M  V30 30 1 18 28
M  V30 END BOND
M  V30 END CTAB
M  END
>  <Dataset>  (621) 
ChEMBL_Kinases

>  <Ligand_Instance>  (621) 
nan

>  <PDB_ID>  (621) 
nan

>  <Standardized_SMILES>  (621) 
CNCc1nc2c(sc3ccc(Cl)cc32)c(=O)[nH]1

>  <Name>  (621) 
nan

>  <Pocket>  (621) 
nan

>  <ATP_Site>  (621) 
nan

>  <Peripheral>  (621) 
nan

>  <Num_H_Atoms_ProtBoundConf>  (621) 
nan

>  <Num_Resolved_Atoms>  (621) 
nan

>  <Num_Not_Resolved_Atoms>  (621) 
nan

$$$$
CHEMBL583947
     RDKit          3D

  0  0  0  0  0  0  0  0  0  0999 V3000
M  V30 BEGIN CTAB
M  V30 COUNTS 42 45 0 0 0
M  V30 BEGIN ATOM
M  V30 1 O 1.390035 -1.236391 4.746911 0
M  V30 2 C 0.944548 -1.588011 3.627544 0
M  V30 3 N 1.626540 -1.567293 2.474110 0
M  V30 4 C 0.959979 -1.986747 1.390016 0
M  V30 5 C 1.654053 -2.000242 0.048619 0
M  V30 6 N 1.480784 -0.739540 -0.644148 0
M  V30 7 C 2.159203 -0.786058 -1.928099 0
M  V30 8 C 1.985765 0.538839 -2.673094 0
M  V30 9 C 2.552366 1.679355 -1.892497 0
M  V30 10 C 3.818306 2.183349 -1.924636 0
M  V30 11 C 4.121125 3.256991 -1.104185 0
M  V30 12 C 3.183223 3.822533 -0.264528 0
M  V30 13 C 1.911669 3.310282 -0.237479 0
M  V30 14 O 0.991662 3.905575 0.621386 0
M  V30 15 C 1.592902 2.242394 -1.047008 0
M  V30 16 N -0.304300 -2.413391 1.377147 0
M  V30 17 C -1.072487 -2.473198 2.474552 0
M  V30 18 C -0.324622 -2.024557 3.569407 0
M  V30 19 S -1.545796 -2.180142 4.985717 0
M  V30 20 C -2.949622 -2.847682 3.900343 0
M  V30 21 C -4.168320 -3.187538 4.288836 0
M  V30 22 C -5.024931 -3.650189 3.319151 0
M  V30 23 C -4.504018 -3.704145 2.046665 0
M  V30 24 Cl -5.588193 -4.298132 0.772509 0
M  V30 25 C -3.235518 -3.346287 1.665148 0
M  V30 26 C -2.359872 -2.881214 2.612750 0
M  V30 27 H 2.603114 -1.240549 2.468176 0
M  V30 28 H 1.307492 -2.851261 -0.569061 0
M  V30 29 H 2.735036 -2.130221 0.254090 0
M  V30 30 H 1.983481 -0.014885 -0.075668 0
M  V30 31 H 1.691577 -1.549103 -2.571339 0
M  V30 32 H 3.222541 -0.949963 -1.741642 0
M  V30 33 H 2.591903 0.470854 -3.600024 0
M  V30 34 H 0.955013 0.712302 -2.986601 0
M  V30 35 H 4.478439 1.679561 -2.607501 0
M  V30 36 H 5.135221 3.618574 -1.166552 0
M  V30 37 H 3.456449 4.653686 0.356211 0
M  V30 38 H 1.259023 4.332413 1.489228 0
M  V30 39 H 0.563435 1.916917 -0.947561 0
M  V30 40 H -4.432948 -3.088896 5.330881 0
M  V30 41 H -6.023974 -3.943362 3.556727 0
M  V30 42 H -2.955392 -3.437173 0.637212 0
M  V30 END ATOM
M  V30 BEGIN BOND
M  V30 1 2 1 2
M  V30 2 1 2 3
M  V30 3 1 3 4
M  V30 4 1 4 5
M  V30 5 1 5 6
M  V30 6 1 6 7
M  V30 7 1 7 8
M  V30 8 1 8 9
M  V30 9 2 9 10
M  V30 10 1 10 11
M  V30 11 2 11 12
M  V30 12 1 12 13
M  V30 13 1 13 14
M  V30 14 2 13 15
M  V30 15 2 4 16
M  V30 16 1 16 17
M  V30 17 2 17 18
M  V30 18 1 18 19
M  V30 19 1 19 20
M  V30 20 2 20 21
M  V30 21 1 21 22
M  V30 22 2 22 23
M  V30 23 1 23 24
M  V30 24 1 23 25
M  V30 25 2 25 26
M  V30 26 1 18 2
M  V30 27 1 26 20
M  V30 28 1 15 9
M  V30 29 1 26 17
M  V30 30 1 3 27
M  V30 31 1 5 28
M  V30 32 1 5 29
M  V30 33 1 6 30
M  V30 34 1 7 31
M  V30 35 1 7 32
M  V30 36 1 8 33
M  V30 37 1 8 34
M  V30 38 1 10 35
M  V30 39 1 11 36
M  V30 40 1 12 37
M  V30 41 1 14 38
M  V30 42 1 15 39
M  V30 43 1 21 40
M  V30 44 1 22 41
M  V30 45 1 25 42
M  V30 END BOND
M  V30 END CTAB
M  END
>  <Dataset>  (622) 
ChEMBL_Kinases

>  <Ligand_Instance>  (622) 
nan

>  <PDB_ID>  (622) 
nan

>  <Standardized_SMILES>  (622) 
O=c1[nH]c(CNCCc2cccc(O)c2)nc2c1sc1ccc(Cl)cc12

>  <Name>  (622) 
nan

>  <Pocket>  (622) 
nan

>  <ATP_Site>  (622) 
nan

>  <Peripheral>  (622) 
nan

>  <Num_H_Atoms_ProtBoundConf>  (622) 
nan

>  <Num_Resolved_Atoms>  (622) 
nan

>  <Num_Not_Resolved_Atoms>  (622) 
nan

$$$$
CHEMBL574169
     RDKit          3D

  0  0  0  0  0  0  0  0  0  0999 V3000
M  V30 BEGIN CTAB
M  V30 COUNTS 43 46 0 0 0
M  V30 BEGIN ATOM
M  V30 1 C -0.537113 -6.085411 0.956751 0
M  V30 2 N -0.608655 -4.881901 0.150018 0
M  V30 3 C -0.862653 -5.227376 -1.223741 0
M  V30 4 C -1.654903 -4.025502 0.619951 0
M  V30 5 C -1.742578 -2.768211 -0.206250 0
M  V30 6 N -1.031564 -1.717919 0.156349 0
M  V30 7 C -1.048175 -0.558112 -0.519920 0
M  V30 8 C -1.881262 -0.612434 -1.607995 0
M  V30 9 S -1.769706 0.972207 -2.351560 0
M  V30 10 C -0.540416 1.654803 -1.085671 0
M  V30 11 C 0.012276 2.932002 -1.063405 0
M  V30 12 C 0.881615 3.155723 -0.022099 0
M  V30 13 C 1.105189 2.123437 0.860032 0
M  V30 14 C 2.042823 2.364858 1.982675 0
M  V30 15 C 2.818262 1.338701 2.518509 0
M  V30 16 C 3.664110 1.681373 3.571093 0
M  V30 17 C 3.746529 2.961428 4.072832 0
M  V30 18 N 4.623682 3.285476 5.154174 0
M  V30 19 C 2.977199 3.962727 3.535826 0
M  V30 20 C 2.124087 3.648316 2.484205 0
M  V30 21 C 0.532698 0.877510 0.793647 0
M  V30 22 C -0.349176 0.575466 -0.220365 0
M  V30 23 C -2.611440 -1.698428 -1.976086 0
M  V30 24 O -3.329012 -1.601026 -2.994533 0
M  V30 25 N -2.562469 -2.839516 -1.266914 0
M  V30 26 H -1.218228 -6.860804 0.524565 0
M  V30 27 H 0.480972 -6.562938 0.930293 0
M  V30 28 H -0.800038 -5.883167 2.021522 0
M  V30 29 H -1.845357 -5.747204 -1.331779 0
M  V30 30 H -0.773221 -4.389956 -1.915828 0
M  V30 31 H -0.084091 -5.966613 -1.533536 0
M  V30 32 H -1.409016 -3.704949 1.652176 0
M  V30 33 H -2.643074 -4.521659 0.678299 0
M  V30 34 H -0.261741 3.622570 -1.820774 0
M  V30 35 H 1.335836 4.122503 0.042924 0
M  V30 36 H 2.739230 0.339942 2.110678 0
M  V30 37 H 4.267659 0.872100 3.984625 0
M  V30 38 H 4.462989 4.057289 5.818190 0
M  V30 39 H 5.515204 2.820626 5.429643 0
M  V30 40 H 3.011068 4.980275 3.899404 0
M  V30 41 H 1.524850 4.449228 2.072797 0
M  V30 42 H 0.783150 0.142274 1.544524 0
M  V30 43 H -3.110573 -3.667090 -1.536455 0
M  V30 END ATOM
M  V30 BEGIN BOND
M  V30 1 1 1 2
M  V30 2 1 2 3
M  V30 3 1 2 4
M  V30 4 1 4 5
M  V30 5 2 5 6
M  V30 6 1 6 7
M  V30 7 2 7 8
M  V30 8 1 8 9
M  V30 9 1 9 10
M  V30 10 2 10 11
M  V30 11 1 11 12
M  V30 12 2 12 13
M  V30 13 1 13 14
M  V30 14 2 14 15
M  V30 15 1 15 16
M  V30 16 2 16 17
M  V30 17 1 17 18
M  V30 18 1 17 19
M  V30 19 2 19 20
M  V30 20 1 13 21
M  V30 21 2 21 22
M  V30 22 1 8 23
M  V30 23 2 23 24
M  V30 24 1 23 25
M  V30 25 1 25 5
M  V30 26 1 22 7
M  V30 27 1 22 10
M  V30 28 1 20 14
M  V30 29 1 1 26
M  V30 30 1 1 27
M  V30 31 1 1 28
M  V30 32 1 3 29
M  V30 33 1 3 30
M  V30 34 1 3 31
M  V30 35 1 4 32
M  V30 36 1 4 33
M  V30 37 1 11 34
M  V30 38 1 12 35
M  V30 39 1 15 36
M  V30 40 1 16 37
M  V30 41 1 18 38
M  V30 42 1 18 39
M  V30 43 1 19 40
M  V30 44 1 20 41
M  V30 45 1 21 42
M  V30 46 1 25 43
M  V30 END BOND
M  V30 END CTAB
M  END
>  <Dataset>  (623) 
ChEMBL_Kinases

>  <Ligand_Instance>  (623) 
nan

>  <PDB_ID>  (623) 
nan

>  <Standardized_SMILES>  (623) 
CN(C)Cc1nc2c(sc3ccc(-c4ccc(N)cc4)cc32)c(=O)[nH]1

>  <Name>  (623) 
nan

>  <Pocket>  (623) 
nan

>  <ATP_Site>  (623) 
nan

>  <Peripheral>  (623) 
nan

>  <Num_H_Atoms_ProtBoundConf>  (623) 
nan

>  <Num_Resolved_Atoms>  (623) 
nan

>  <Num_Not_Resolved_Atoms>  (623) 
nan

$$$$
CHEMBL572810
     RDKit          3D

  0  0  0  0  0  0  0  0  0  0999 V3000
M  V30 BEGIN CTAB
M  V30 COUNTS 44 46 0 0 0
M  V30 BEGIN ATOM
M  V30 1 C 1.063754 -5.729857 0.066497 0
M  V30 2 N 2.212108 -5.548821 0.898188 0
M  V30 3 C 1.921181 -5.055484 2.207403 0
M  V30 4 C 3.326232 -4.938462 0.239535 0
M  V30 5 C 3.087622 -3.538425 -0.115317 0
M  V30 6 C 2.904203 -2.380946 -0.419572 0
M  V30 7 C 2.683501 -0.990115 -0.811130 0
M  V30 8 C 3.454831 -0.557725 -1.866126 0
M  V30 9 C 3.228453 0.755130 -2.211870 0
M  V30 10 C 2.315334 1.503395 -1.536579 0
M  V30 11 S 1.867441 3.208851 -1.811358 0
M  V30 12 C 0.625848 3.230341 -0.438442 0
M  V30 13 C -0.180716 4.287100 -0.019662 0
M  V30 14 O -0.075560 5.378599 -0.632406 0
M  V30 15 N -1.005131 4.043641 1.009384 0
M  V30 16 C -0.972966 2.809670 1.533662 0
M  V30 17 C -1.873361 2.480967 2.693551 0
M  V30 18 N -3.153804 1.991885 2.294282 0
M  V30 19 C -4.037789 1.660155 3.376357 0
M  V30 20 C -3.150459 1.035348 1.232352 0
M  V30 21 N -0.191936 1.810084 1.116750 0
M  V30 22 C 0.674398 1.933189 0.095783 0
M  V30 23 C 1.556024 1.071386 -0.495019 0
M  V30 24 C 1.758991 -0.247037 -0.120787 0
M  V30 25 H 0.152072 -5.383838 0.569298 0
M  V30 26 H 1.176707 -5.227259 -0.922459 0
M  V30 27 H 0.923044 -6.837310 -0.089026 0
M  V30 28 H 2.475397 -5.653349 2.986505 0
M  V30 29 H 0.831017 -5.259000 2.396624 0
M  V30 30 H 2.086271 -3.987268 2.363513 0
M  V30 31 H 3.447732 -5.481582 -0.731683 0
M  V30 32 H 4.253057 -5.089194 0.826732 0
M  V30 33 H 4.170161 -1.180016 -2.378839 0
M  V30 34 H 3.770090 1.215660 -3.024694 0
M  V30 35 H -1.616957 4.812428 1.342509 0
M  V30 36 H -2.004764 3.369408 3.327965 0
M  V30 37 H -1.412256 1.706784 3.340314 0
M  V30 38 H -5.108264 1.747684 3.084818 0
M  V30 39 H -3.815999 0.584736 3.639756 0
M  V30 40 H -3.849687 2.242213 4.286135 0
M  V30 41 H -2.229799 0.412753 1.304676 0
M  V30 42 H -3.116516 1.508138 0.222965 0
M  V30 43 H -4.009976 0.359832 1.361930 0
M  V30 44 H 1.238353 -0.744507 0.685074 0
M  V30 END ATOM
M  V30 BEGIN BOND
M  V30 1 1 1 2
M  V30 2 1 2 3
M  V30 3 1 2 4
M  V30 4 1 4 5
M  V30 5 3 5 6
M  V30 6 1 6 7
M  V30 7 2 7 8
M  V30 8 1 8 9
M  V30 9 2 9 10
M  V30 10 1 10 11
M  V30 11 1 11 12
M  V30 12 1 12 13
M  V30 13 2 13 14
M  V30 14 1 13 15
M  V30 15 1 15 16
M  V30 16 1 16 17
M  V30 17 1 17 18
M  V30 18 1 18 19
M  V30 19 1 18 20
M  V30 20 2 16 21
M  V30 21 1 21 22
M  V30 22 1 22 23
M  V30 23 2 23 24
M  V30 24 1 24 7
M  V30 25 1 23 10
M  V30 26 2 22 12
M  V30 27 1 1 25
M  V30 28 1 1 26
M  V30 29 1 1 27
M  V30 30 1 3 28
M  V30 31 1 3 29
M  V30 32 1 3 30
M  V30 33 1 4 31
M  V30 34 1 4 32
M  V30 35 1 8 33
M  V30 36 1 9 34
M  V30 37 1 15 35
M  V30 38 1 17 36
M  V30 39 1 17 37
M  V30 40 1 19 38
M  V30 41 1 19 39
M  V30 42 1 19 40
M  V30 43 1 20 41
M  V30 44 1 20 42
M  V30 45 1 20 43
M  V30 46 1 24 44
M  V30 END BOND
M  V30 END CTAB
M  END
>  <Dataset>  (624) 
ChEMBL_Kinases

>  <Ligand_Instance>  (624) 
nan

>  <PDB_ID>  (624) 
nan

>  <Standardized_SMILES>  (624) 
CN(C)CC#Cc1ccc2sc3c(=O)[nH]c(CN(C)C)nc3c2c1

>  <Name>  (624) 
nan

>  <Pocket>  (624) 
nan

>  <ATP_Site>  (624) 
nan

>  <Peripheral>  (624) 
nan

>  <Num_H_Atoms_ProtBoundConf>  (624) 
nan

>  <Num_Resolved_Atoms>  (624) 
nan

>  <Num_Not_Resolved_Atoms>  (624) 
nan

$$$$
CHEMBL572815
     RDKit          3D

  0  0  0  0  0  0  0  0  0  0999 V3000
M  V30 BEGIN CTAB
M  V30 COUNTS 44 47 0 0 0
M  V30 BEGIN ATOM
M  V30 1 C -0.225207 -3.288184 -0.257812 0
M  V30 2 C 1.009646 -3.590497 -1.025656 0
M  V30 3 C 1.509818 -4.874189 -1.091995 0
M  V30 4 C 2.650502 -5.116224 -1.820382 0
M  V30 5 C 3.340938 -4.133772 -2.503860 0
M  V30 6 C 2.806090 -2.859626 -2.411529 0
M  V30 7 C 1.652361 -2.566081 -1.685088 0
M  V30 8 C 1.233326 -1.148336 -1.690453 0
M  V30 9 C 1.193427 -0.584883 -2.935523 0
M  V30 10 C 0.819069 0.735015 -3.022920 0
M  V30 11 C 0.523722 1.337637 -1.809644 0
M  V30 12 S -0.020574 3.112673 -1.517576 0
M  V30 13 C -0.147132 2.935465 0.276768 0
M  V30 14 C -0.514477 3.880198 1.222801 0
M  V30 15 O -0.798383 5.005803 0.788458 0
M  V30 16 N -0.532654 3.506739 2.508056 0
M  V30 17 C -0.186890 2.235313 2.743856 0
M  V30 18 C -0.183482 1.753841 4.174604 0
M  V30 19 N -1.466909 1.216644 4.568907 0
M  V30 20 C -1.735137 0.096990 3.667373 0
M  V30 21 C -1.274052 0.638901 5.886118 0
M  V30 22 N 0.162650 1.345649 1.815308 0
M  V30 23 C 0.210033 1.627510 0.503797 0
M  V30 24 C 0.552004 0.798735 -0.518194 0
M  V30 25 C 0.934322 -0.520503 -0.511412 0
M  V30 26 H -0.672254 -2.382730 -0.674116 0
M  V30 27 H -0.949662 -4.133476 -0.323237 0
M  V30 28 H 0.056339 -3.230159 0.811313 0
M  V30 29 H 0.961727 -5.637319 -0.553020 0
M  V30 30 H 2.970623 -6.155982 -1.815955 0
M  V30 31 H 4.227436 -4.364946 -3.060849 0
M  V30 32 H 3.332220 -2.077651 -2.939511 0
M  V30 33 H 1.427514 -1.073052 -3.866452 0
M  V30 34 H 0.726383 1.355379 -3.902642 0
M  V30 35 H -0.805345 4.203486 3.223874 0
M  V30 36 H 0.573224 0.940534 4.289762 0
M  V30 37 H 0.117184 2.552821 4.857715 0
M  V30 38 H -2.520011 -0.568210 4.059506 0
M  V30 39 H -0.767500 -0.466972 3.610547 0
M  V30 40 H -2.034479 0.535661 2.709064 0
M  V30 41 H -0.790332 1.335007 6.598955 0
M  V30 42 H -2.293059 0.347322 6.255217 0
M  V30 43 H -0.690009 -0.305356 5.841980 0
M  V30 44 H 1.014875 -1.089994 0.401432 0
M  V30 END ATOM
M  V30 BEGIN BOND
M  V30 1 1 1 2
M  V30 2 2 2 3
M  V30 3 1 3 4
M  V30 4 2 4 5
M  V30 5 1 5 6
M  V30 6 2 6 7
M  V30 7 1 7 8
M  V30 8 2 8 9
M  V30 9 1 9 10
M  V30 10 2 10 11
M  V30 11 1 11 12
M  V30 12 1 12 13
M  V30 13 1 13 14
M  V30 14 2 14 15
M  V30 15 1 14 16
M  V30 16 1 16 17
M  V30 17 1 17 18
M  V30 18 1 18 19
M  V30 19 1 19 20
M  V30 20 1 19 21
M  V30 21 2 17 22
M  V30 22 1 22 23
M  V30 23 1 23 24
M  V30 24 2 24 25
M  V30 25 1 7 2
M  V30 26 1 25 8
M  V30 27 1 24 11
M  V30 28 2 23 13
M  V30 29 1 1 26
M  V30 30 1 1 27
M  V30 31 1 1 28
M  V30 32 1 3 29
M  V30 33 1 4 30
M  V30 34 1 5 31
M  V30 35 1 6 32
M  V30 36 1 9 33
M  V30 37 1 10 34
M  V30 38 1 16 35
M  V30 39 1 18 36
M  V30 40 1 18 37
M  V30 41 1 20 38
M  V30 42 1 20 39
M  V30 43 1 20 40
M  V30 44 1 21 41
M  V30 45 1 21 42
M  V30 46 1 21 43
M  V30 47 1 25 44
M  V30 END BOND
M  V30 END CTAB
M  END
>  <Dataset>  (625) 
ChEMBL_Kinases

>  <Ligand_Instance>  (625) 
nan

>  <PDB_ID>  (625) 
nan

>  <Standardized_SMILES>  (625) 
Cc1ccccc1-c1ccc2sc3c(=O)[nH]c(CN(C)C)nc3c2c1

>  <Name>  (625) 
nan

>  <Pocket>  (625) 
nan

>  <ATP_Site>  (625) 
nan

>  <Peripheral>  (625) 
nan

>  <Num_H_Atoms_ProtBoundConf>  (625) 
nan

>  <Num_Resolved_Atoms>  (625) 
nan

>  <Num_Not_Resolved_Atoms>  (625) 
nan

$$$$
CHEMBL584159
     RDKit          3D

  0  0  0  0  0  0  0  0  0  0999 V3000
M  V30 BEGIN CTAB
M  V30 COUNTS 36 39 0 0 0
M  V30 BEGIN ATOM
M  V30 1 O 0.104166 -1.332985 4.400715 0
M  V30 2 C 0.491129 -1.086929 3.242256 0
M  V30 3 N 1.192052 -1.787337 2.350093 0
M  V30 4 C 1.464407 -1.252949 1.154576 0
M  V30 5 C 2.247883 -2.076477 0.204596 0
M  V30 6 N 1.510134 -2.908602 -0.662532 0
M  V30 7 C 0.669782 -3.897649 -0.086614 0
M  V30 8 C -0.770428 -3.466751 0.045951 0
M  V30 9 O -1.098110 -2.458505 -0.826726 0
M  V30 10 C -0.420790 -2.604187 -2.043999 0
M  V30 11 C 1.055890 -2.378448 -1.892480 0
M  V30 12 N 1.093148 -0.039621 0.740470 0
M  V30 13 C 0.386689 0.814562 1.483720 0
M  V30 14 C 0.088323 0.230743 2.791810 0
M  V30 15 S -0.897272 1.556969 3.688810 0
M  V30 16 C -0.819517 2.690682 2.315339 0
M  V30 17 C -1.351964 3.960899 2.217391 0
M  V30 18 C -1.192845 4.699100 1.070714 0
M  V30 19 C -0.479674 4.056626 0.087942 0
M  V30 20 Cl -0.272454 5.007834 -1.394700 0
M  V30 21 C 0.058658 2.801200 0.156648 0
M  V30 22 C -0.105901 2.067261 1.311497 0
M  V30 23 H 1.454414 -2.708137 2.709337 0
M  V30 24 H 2.870754 -1.393932 -0.429374 0
M  V30 25 H 2.983941 -2.694265 0.759499 0
M  V30 26 H 0.677126 -4.770706 -0.803905 0
M  V30 27 H 1.069939 -4.250302 0.885197 0
M  V30 28 H -0.913373 -3.151459 1.116790 0
M  V30 29 H -1.413642 -4.379200 -0.090953 0
M  V30 30 H -0.848320 -1.899320 -2.791207 0
M  V30 31 H -0.623524 -3.637782 -2.444127 0
M  V30 32 H 1.534733 -2.972059 -2.726280 0
M  V30 33 H 1.371878 -1.337733 -2.097036 0
M  V30 34 H -1.885522 4.315231 3.085551 0
M  V30 35 H -1.606637 5.690867 0.989743 0
M  V30 36 H 0.588592 2.466491 -0.723727 0
M  V30 END ATOM
M  V30 BEGIN BOND
M  V30 1 2 1 2
M  V30 2 1 2 3
M  V30 3 1 3 4
M  V30 4 1 4 5
M  V30 5 1 5 6
M  V30 6 1 6 7
M  V30 7 1 7 8
M  V30 8 1 8 9
M  V30 9 1 9 10
M  V30 10 1 10 11
M  V30 11 2 4 12
M  V30 12 1 12 13
M  V30 13 2 13 14
M  V30 14 1 14 15
M  V30 15 1 15 16
M  V30 16 2 16 17
M  V30 17 1 17 18
M  V30 18 2 18 19
M  V30 19 1 19 20
M  V30 20 1 19 21
M  V30 21 2 21 22
M  V30 22 1 14 2
M  V30 23 1 22 16
M  V30 24 1 11 6
M  V30 25 1 22 13
M  V30 26 1 3 23
M  V30 27 1 5 24
M  V30 28 1 5 25
M  V30 29 1 7 26
M  V30 30 1 7 27
M  V30 31 1 8 28
M  V30 32 1 8 29
M  V30 33 1 10 30
M  V30 34 1 10 31
M  V30 35 1 11 32
M  V30 36 1 11 33
M  V30 37 1 17 34
M  V30 38 1 18 35
M  V30 39 1 21 36
M  V30 END BOND
M  V30 END CTAB
M  END
>  <Dataset>  (626) 
ChEMBL_Kinases

>  <Ligand_Instance>  (626) 
nan

>  <PDB_ID>  (626) 
nan

>  <Standardized_SMILES>  (626) 
O=c1[nH]c(CN2CCOCC2)nc2c1sc1ccc(Cl)cc12

>  <Name>  (626) 
nan

>  <Pocket>  (626) 
nan

>  <ATP_Site>  (626) 
nan

>  <Peripheral>  (626) 
nan

>  <Num_H_Atoms_ProtBoundConf>  (626) 
nan

>  <Num_Resolved_Atoms>  (626) 
nan

>  <Num_Not_Resolved_Atoms>  (626) 
nan

$$$$
CHEMBL584563
     RDKit          3D

  0  0  0  0  0  0  0  0  0  0999 V3000
M  V30 BEGIN CTAB
M  V30 COUNTS 41 44 0 0 0
M  V30 BEGIN ATOM
M  V30 1 C 0.306515 -3.885960 1.200820 0
M  V30 2 C 1.476529 -4.208385 2.058982 0
M  V30 3 C 1.398808 -5.322462 2.928001 0
M  V30 4 S 2.993865 -5.357694 3.758563 0
M  V30 5 C 3.692478 -3.889635 2.913368 0
M  V30 6 C 2.617806 -3.453039 2.017489 0
M  V30 7 C 2.830974 -2.274016 1.176649 0
M  V30 8 C 4.024384 -2.240252 0.488407 0
M  V30 9 C 4.195750 -1.115716 -0.290450 0
M  V30 10 C 3.247392 -0.161121 -0.339588 0
M  V30 11 S 3.223812 1.381078 -1.263152 0
M  V30 12 C 1.582076 1.897116 -0.657904 0
M  V30 13 C 0.853755 3.054691 -0.953486 0
M  V30 14 O 1.392988 3.866046 -1.748062 0
M  V30 15 N -0.343727 3.190566 -0.365931 0
M  V30 16 C -0.732184 2.201019 0.452513 0
M  V30 17 C -2.056207 2.307611 1.128636 0
M  V30 18 N -3.106889 1.710450 0.318001 0
M  V30 19 C -2.874178 0.317719 0.061469 0
M  V30 20 C -4.378666 1.871342 0.995769 0
M  V30 21 N -0.032671 1.117344 0.719326 0
M  V30 22 C 1.177872 0.861087 0.197588 0
M  V30 23 C 2.054306 -0.181052 0.340160 0
M  V30 24 C 1.864532 -1.300509 1.126333 0
M  V30 25 H -0.503692 -3.365587 1.715921 0
M  V30 26 H 0.604103 -3.328361 0.288347 0
M  V30 27 H -0.075292 -4.874566 0.808420 0
M  V30 28 H 0.624161 -5.980541 3.074997 0
M  V30 29 H 4.695311 -3.323373 2.955893 0
M  V30 30 H 4.786051 -2.992870 0.519338 0
M  V30 31 H 5.091339 -0.973882 -0.877689 0
M  V30 32 H -0.889517 4.049066 -0.581988 0
M  V30 33 H -2.081268 1.830765 2.126660 0
M  V30 34 H -2.271533 3.386225 1.253810 0
M  V30 35 H -2.579457 0.241544 -1.015802 0
M  V30 36 H -3.835351 -0.272300 0.123777 0
M  V30 37 H -2.164292 -0.175660 0.731629 0
M  V30 38 H -5.215574 1.790352 0.250731 0
M  V30 39 H -4.544070 1.077622 1.735062 0
M  V30 40 H -4.462637 2.898886 1.445999 0
M  V30 41 H 0.965232 -1.469597 1.736473 0
M  V30 END ATOM
M  V30 BEGIN BOND
M  V30 1 1 1 2
M  V30 2 2 2 3
M  V30 3 1 3 4
M  V30 4 1 4 5
M  V30 5 2 5 6
M  V30 6 1 6 7
M  V30 7 2 7 8
M  V30 8 1 8 9
M  V30 9 2 9 10
M  V30 10 1 10 11
M  V30 11 1 11 12
M  V30 12 1 12 13
M  V30 13 2 13 14
M  V30 14 1 13 15
M  V30 15 1 15 16
M  V30 16 1 16 17
M  V30 17 1 17 18
M  V30 18 1 18 19
M  V30 19 1 18 20
M  V30 20 2 16 21
M  V30 21 1 21 22
M  V30 22 1 22 23
M  V30 23 2 23 24
M  V30 24 1 6 2
M  V30 25 1 24 7
M  V30 26 1 23 10
M  V30 27 2 22 12
M  V30 28 1 1 25
M  V30 29 1 1 26
M  V30 30 1 1 27
M  V30 31 1 3 28
M  V30 32 1 5 29
M  V30 33 1 8 30
M  V30 34 1 9 31
M  V30 35 1 15 32
M  V30 36 1 17 33
M  V30 37 1 17 34
M  V30 38 1 19 35
M  V30 39 1 19 36
M  V30 40 1 19 37
M  V30 41 1 20 38
M  V30 42 1 20 39
M  V30 43 1 20 40
M  V30 44 1 24 41
M  V30 END BOND
M  V30 END CTAB
M  END
>  <Dataset>  (627) 
ChEMBL_Kinases

>  <Ligand_Instance>  (627) 
nan

>  <PDB_ID>  (627) 
nan

>  <Standardized_SMILES>  (627) 
Cc1cscc1-c1ccc2sc3c(=O)[nH]c(CN(C)C)nc3c2c1

>  <Name>  (627) 
nan

>  <Pocket>  (627) 
nan

>  <ATP_Site>  (627) 
nan

>  <Peripheral>  (627) 
nan

>  <Num_H_Atoms_ProtBoundConf>  (627) 
nan

>  <Num_Resolved_Atoms>  (627) 
nan

>  <Num_Not_Resolved_Atoms>  (627) 
nan

$$$$
CHEMBL4643470
     RDKit          3D

  0  0  0  0  0  0  0  0  0  0999 V3000
M  V30 BEGIN CTAB
M  V30 COUNTS 37 39 0 0 0
M  V30 BEGIN ATOM
M  V30 1 N -1.290002 -1.499187 3.278851 0
M  V30 2 C -0.962712 -2.887314 3.397283 0
M  V30 3 C -0.295075 -3.516323 2.211307 0
M  V30 4 N 0.950608 -2.920554 1.827324 0
M  V30 5 C 1.140614 -1.750690 1.069260 0
M  V30 6 C 0.116661 -1.016302 0.511510 0
M  V30 7 C 0.263365 0.116066 -0.261622 0
M  V30 8 C -0.868240 0.851004 -0.824377 0
M  V30 9 C -2.045302 0.225465 -1.205523 0
M  V30 10 C -3.124246 0.907436 -1.736669 0
M  V30 11 C -3.021638 2.282347 -1.894558 0
M  V30 12 C -1.858949 2.895488 -1.517291 0
M  V30 13 C -0.755429 2.229157 -0.978657 0
M  V30 14 C 1.546197 0.581456 -0.518886 0
M  V30 15 C 2.602715 -0.121908 0.018066 0
M  V30 16 C 3.839163 0.401009 -0.283045 0
M  V30 17 N 4.937940 -0.239779 0.211892 0
M  V30 18 C 4.793917 -1.350688 0.971153 0
M  V30 19 C 3.537678 -1.839765 1.247990 0
M  V30 20 C 2.387733 -1.244391 0.781582 0
M  V30 21 H -0.632209 -0.883472 3.813236 0
M  V30 22 H -2.288468 -1.291449 3.442457 0
M  V30 23 H -0.331403 -3.010750 4.319037 0
M  V30 24 H -1.936579 -3.429912 3.580424 0
M  V30 25 H -1.030304 -3.529578 1.366885 0
M  V30 26 H -0.126921 -4.589478 2.436969 0
M  V30 27 H 1.776594 -3.448222 2.172861 0
M  V30 28 H -0.908537 -1.297627 0.630421 0
M  V30 29 H -2.146827 -0.853617 -1.090138 0
M  V30 30 H -4.047002 0.427247 -2.036925 0
M  V30 31 H -3.851857 2.863746 -2.312033 0
M  V30 32 H -1.776259 3.955775 -1.637964 0
M  V30 33 H 0.107370 2.790152 -0.713828 0
M  V30 34 H 1.671517 1.465810 -1.122379 0
M  V30 35 H 3.978971 1.284580 -0.886046 0
M  V30 36 H 5.721410 -1.786012 1.315861 0
M  V30 37 H 3.523154 -2.726144 1.858542 0
M  V30 END ATOM
M  V30 BEGIN BOND
M  V30 1 1 1 2
M  V30 2 1 2 3
M  V30 3 1 3 4
M  V30 4 1 4 5
M  V30 5 2 5 6
M  V30 6 1 6 7
M  V30 7 1 7 8
M  V30 8 2 8 9
M  V30 9 1 9 10
M  V30 10 2 10 11
M  V30 11 1 11 12
M  V30 12 2 12 13
M  V30 13 2 7 14
M  V30 14 1 14 15
M  V30 15 2 15 16
M  V30 16 1 16 17
M  V30 17 2 17 18
M  V30 18 1 18 19
M  V30 19 2 19 20
M  V30 20 1 20 5
M  V30 21 1 13 8
M  V30 22 1 20 15
M  V30 23 1 1 21
M  V30 24 1 1 22
M  V30 25 1 2 23
M  V30 26 1 2 24
M  V30 27 1 3 25
M  V30 28 1 3 26
M  V30 29 1 4 27
M  V30 30 1 6 28
M  V30 31 1 9 29
M  V30 32 1 10 30
M  V30 33 1 11 31
M  V30 34 1 12 32
M  V30 35 1 13 33
M  V30 36 1 14 34
M  V30 37 1 16 35
M  V30 38 1 18 36
M  V30 39 1 19 37
M  V30 END BOND
M  V30 END CTAB
M  END
>  <Dataset>  (628) 
ChEMBL_Kinases

>  <Ligand_Instance>  (628) 
nan

>  <PDB_ID>  (628) 
nan

>  <Standardized_SMILES>  (628) 
NCCNc1cc(-c2ccccc2)cc2cnccc12

>  <Name>  (628) 
nan

>  <Pocket>  (628) 
nan

>  <ATP_Site>  (628) 
nan

>  <Peripheral>  (628) 
nan

>  <Num_H_Atoms_ProtBoundConf>  (628) 
nan

>  <Num_Resolved_Atoms>  (628) 
nan

>  <Num_Not_Resolved_Atoms>  (628) 
nan

$$$$
CHEMBL1235529
     RDKit          3D

  0  0  0  0  0  0  0  0  0  0999 V3000
M  V30 BEGIN CTAB
M  V30 COUNTS 36 38 0 0 0
M  V30 BEGIN ATOM
M  V30 1 O -1.320808 -3.232610 2.964363 0
M  V30 2 S -1.183547 -3.368474 1.475031 0
M  V30 3 O -1.742338 -4.621868 0.925685 0
M  V30 4 N 0.503555 -3.189633 1.104012 0
M  V30 5 C 1.040719 -1.987899 1.738240 0
M  V30 6 C 2.471837 -1.892492 1.336277 0
M  V30 7 C 3.201464 -0.664436 1.783768 0
M  V30 8 N 2.547013 0.548432 1.304071 0
M  V30 9 C 1.983649 1.220014 0.192049 0
M  V30 10 N 0.802304 0.795832 -0.276373 0
M  V30 11 C 0.126105 1.297814 -1.306208 0
M  V30 12 N 0.702000 2.336530 -1.931104 0
M  V30 13 C 1.883893 2.847128 -1.551284 0
M  V30 14 C 2.556577 2.291068 -0.465822 0
M  V30 15 Br 4.205453 2.764336 0.364142 0
M  V30 16 N -1.133544 0.775245 -1.696612 0
M  V30 17 C -1.796371 -0.050689 -0.746584 0
M  V30 18 C -3.050223 0.400593 -0.401813 0
M  V30 19 C -3.752346 -0.340915 0.553747 0
M  V30 20 C -3.208090 -1.477338 1.125240 0
M  V30 21 C -1.952390 -1.926463 0.777070 0
M  V30 22 C -1.276326 -1.180919 -0.168624 0
M  V30 23 H 1.047294 -4.024108 1.335339 0
M  V30 24 H 1.030291 -2.179350 2.871434 0
M  V30 25 H 0.433250 -1.104608 1.623389 0
M  V30 26 H 2.522143 -1.893492 0.211776 0
M  V30 27 H 3.062933 -2.761125 1.715460 0
M  V30 28 H 3.240050 -0.627167 2.897959 0
M  V30 29 H 4.211082 -0.704697 1.368356 0
M  V30 30 H 2.393349 1.356263 1.981430 0
M  V30 31 H 2.440701 3.663823 -1.963131 0
M  V30 32 H -1.562601 0.987049 -2.615782 0
M  V30 33 H -3.447040 1.298410 -0.878311 0
M  V30 34 H -4.741956 -0.010605 0.845255 0
M  V30 35 H -3.749176 -2.053285 1.865655 0
M  V30 36 H -0.275241 -1.417235 -0.563115 0
M  V30 END ATOM
M  V30 BEGIN BOND
M  V30 1 2 1 2
M  V30 2 2 2 3
M  V30 3 1 2 4
M  V30 4 1 4 5
M  V30 5 1 5 6
M  V30 6 1 6 7
M  V30 7 1 7 8
M  V30 8 1 8 9
M  V30 9 2 9 10
M  V30 10 1 10 11
M  V30 11 2 11 12
M  V30 12 1 12 13
M  V30 13 2 13 14
M  V30 14 1 14 15
M  V30 15 1 11 16
M  V30 16 1 16 17
M  V30 17 2 17 18
M  V30 18 1 18 19
M  V30 19 2 19 20
M  V30 20 1 20 21
M  V30 21 2 21 22
M  V30 22 1 21 2
M  V30 23 1 14 9
M  V30 24 1 22 17
M  V30 25 1 4 23
M  V30 26 1 5 24
M  V30 27 1 5 25
M  V30 28 1 6 26
M  V30 29 1 6 27
M  V30 30 1 7 28
M  V30 31 1 7 29
M  V30 32 1 8 30
M  V30 33 1 13 31
M  V30 34 1 16 32
M  V30 35 1 18 33
M  V30 36 1 19 34
M  V30 37 1 20 35
M  V30 38 1 22 36
M  V30 END BOND
M  V30 END CTAB
M  END
>  <Dataset>  (629) 
ChEMBL_Kinases

>  <Ligand_Instance>  (629) 
nan

>  <PDB_ID>  (629) 
nan

>  <Standardized_SMILES>  (629) 
O=S1(=O)NCCCNc2nc(ncc2Br)Nc2cccc1c2

>  <Name>  (629) 
nan

>  <Pocket>  (629) 
nan

>  <ATP_Site>  (629) 
nan

>  <Peripheral>  (629) 
nan

>  <Num_H_Atoms_ProtBoundConf>  (629) 
nan

>  <Num_Resolved_Atoms>  (629) 
nan

>  <Num_Not_Resolved_Atoms>  (629) 
nan

$$$$
CHEMBL212264
     RDKit          3D

  0  0  0  0  0  0  0  0  0  0999 V3000
M  V30 BEGIN CTAB
M  V30 COUNTS 50 52 0 0 0
M  V30 BEGIN ATOM
M  V30 1 N 1.293397 -6.064572 3.867671 0
M  V30 2 C 1.262373 -4.871439 3.087008 0
M  V30 3 N 1.553955 -3.722573 3.657678 0
M  V30 4 C 1.464759 -2.738968 2.752419 0
M  V30 5 N 1.721715 -1.381712 3.067055 0
M  V30 6 C 1.665283 -0.249057 2.212541 0
M  V30 7 C 1.944375 1.044635 2.659498 0
M  V30 8 C 1.883228 2.123723 1.814630 0
M  V30 9 C 1.545484 1.992914 0.487208 0
M  V30 10 S 1.469805 3.374442 -0.583461 0
M  V30 11 O 2.460044 4.425008 -0.136209 0
M  V30 12 O 1.814736 2.953230 -1.979518 0
M  V30 13 N -0.131956 4.054835 -0.568768 0
M  V30 14 C -0.578769 5.073461 0.318725 0
M  V30 15 O 0.132438 5.605694 1.201466 0
M  V30 16 C -1.972236 5.529330 0.186497 0 CFG=2
M  V30 17 N -2.238744 6.562122 1.168679 0
M  V30 18 C -2.946288 4.391527 0.485546 0
M  V30 19 O -4.222186 4.937290 0.356668 0
M  V30 20 C 1.260988 0.738506 -0.003673 0
M  V30 21 C 1.335504 -0.312766 0.881322 0
M  V30 22 N 1.112206 -3.363880 1.644212 0
M  V30 23 N 0.969635 -4.661202 1.767761 0
M  V30 24 C 0.624505 -5.771491 0.956198 0
M  V30 25 O 0.590009 -6.943158 1.454227 0
M  V30 26 C 0.282020 -5.799801 -0.435341 0
M  V30 27 C -0.022921 -6.989856 -1.046485 0
M  V30 28 F -0.022981 -8.170353 -0.411078 0
M  V30 29 C -0.366140 -7.095479 -2.398819 0
M  V30 30 C -0.414999 -5.978513 -3.200985 0
M  V30 31 C -0.118447 -4.765908 -2.636434 0
M  V30 32 C 0.211012 -4.733396 -1.301237 0
M  V30 33 F 0.486273 -3.496671 -0.836607 0
M  V30 34 H 2.036738 -6.796885 4.003400 0
M  V30 35 H 0.465738 -6.365279 4.460543 0
M  V30 36 H 1.997389 -1.127877 4.064730 0
M  V30 37 H 2.214457 1.185392 3.701158 0
M  V30 38 H 2.114930 3.101239 2.238584 0
M  V30 39 H -0.801167 3.658843 -1.287668 0
M  V30 40 H -2.219091 5.862473 -0.842687 0
M  V30 41 H -3.246328 6.726042 1.289654 0
M  V30 42 H -1.844597 6.230847 2.076800 0
M  V30 43 H -2.786128 3.517835 -0.169584 0
M  V30 44 H -2.793526 4.042303 1.520822 0
M  V30 45 H -4.947043 4.314062 0.555036 0
M  V30 46 H 0.991037 0.592577 -1.041961 0
M  V30 47 H 1.111731 -1.286961 0.488142 0
M  V30 48 H -0.605326 -8.035795 -2.874420 0
M  V30 49 H -0.679392 -6.063538 -4.240797 0
M  V30 50 H -0.155982 -3.892641 -3.260881 0
M  V30 END ATOM
M  V30 BEGIN BOND
M  V30 1 1 1 2
M  V30 2 2 2 3
M  V30 3 1 3 4
M  V30 4 1 4 5
M  V30 5 1 5 6
M  V30 6 2 6 7
M  V30 7 1 7 8
M  V30 8 2 8 9
M  V30 9 1 9 10
M  V30 10 2 10 11
M  V30 11 2 10 12
M  V30 12 1 10 13
M  V30 13 1 13 14
M  V30 14 2 14 15
M  V30 15 1 14 16
M  V30 16 1 16 17
M  V30 17 1 16 18
M  V30 18 1 18 19
M  V30 19 1 9 20
M  V30 20 2 20 21
M  V30 21 2 4 22
M  V30 22 1 22 23
M  V30 23 1 23 24
M  V30 24 2 24 25
M  V30 25 1 24 26
M  V30 26 2 26 27
M  V30 27 1 27 28
M  V30 28 1 27 29
M  V30 29 2 29 30
M  V30 30 1 30 31
M  V30 31 2 31 32
M  V30 32 1 32 33
M  V30 33 1 23 2
M  V30 34 1 32 26
M  V30 35 1 21 6
M  V30 36 1 1 34
M  V30 37 1 1 35
M  V30 38 1 5 36
M  V30 39 1 7 37
M  V30 40 1 8 38
M  V30 41 1 13 39
M  V30 42 1 16 40 CFG=3
M  V30 43 1 17 41
M  V30 44 1 17 42
M  V30 45 1 18 43
M  V30 46 1 18 44
M  V30 47 1 19 45
M  V30 48 1 20 46
M  V30 49 1 21 47
M  V30 50 1 29 48
M  V30 51 1 30 49
M  V30 52 1 31 50
M  V30 END BOND
M  V30 END CTAB
M  END
>  <Dataset>  (630) 
ChEMBL_Kinases

>  <Ligand_Instance>  (630) 
nan

>  <PDB_ID>  (630) 
nan

>  <Standardized_SMILES>  (630) 
Nc1nc(Nc2ccc(S(=O)(=O)NC(=O)[C@H](N)CO)cc2)nn1C(=O)c1c(F)cccc1F

>  <Name>  (630) 
nan

>  <Pocket>  (630) 
nan

>  <ATP_Site>  (630) 
nan

>  <Peripheral>  (630) 
nan

>  <Num_H_Atoms_ProtBoundConf>  (630) 
nan

>  <Num_Resolved_Atoms>  (630) 
nan

>  <Num_Not_Resolved_Atoms>  (630) 
nan

$$$$
CHEMBL573011
     RDKit          3D

  0  0  0  0  0  0  0  0  0  0999 V3000
M  V30 BEGIN CTAB
M  V30 COUNTS 46 50 0 0 0
M  V30 BEGIN ATOM
M  V30 1 O -0.665270 3.037846 4.742391 0
M  V30 2 C -0.479715 2.374788 3.693656 0
M  V30 3 N 0.253227 2.795157 2.650747 0
M  V30 4 C 0.346739 1.956644 1.607941 0
M  V30 5 C 1.150384 2.351240 0.393141 0
M  V30 6 N 2.510994 1.904018 0.584802 0
M  V30 7 C 3.569512 2.098720 -0.367648 0
M  V30 8 C 4.880067 1.682951 -0.209772 0
M  V30 9 C 5.759609 1.950382 -1.218044 0
M  V30 10 C 5.401601 2.606276 -2.367033 0
M  V30 11 C 4.088616 3.028074 -2.535959 0
M  V30 12 O 3.767235 3.692557 -3.721759 0
M  V30 13 C 3.202182 2.760172 -1.522976 0
M  V30 14 N -0.228245 0.751246 1.533271 0
M  V30 15 C -0.981531 0.232078 2.516293 0
M  V30 16 C -1.058655 1.138314 3.595227 0
M  V30 17 S -2.116678 0.263315 4.826783 0
M  V30 18 C -2.348209 -1.192060 3.807395 0
M  V30 19 C -3.054936 -2.311243 4.084618 0
M  V30 20 C -3.121688 -3.339484 3.170063 0
M  V30 21 C -2.420621 -3.096674 2.010519 0
M  V30 22 C -2.467657 -4.178892 0.999377 0
M  V30 23 C -1.370239 -4.339308 0.186600 0
M  V30 24 C -1.358459 -5.341429 -0.784714 0
M  V30 25 C -2.493959 -6.152000 -0.883353 0
M  V30 26 C -3.608493 -5.988601 -0.057412 0
M  V30 27 C -3.585979 -4.976590 0.902846 0
M  V30 28 C -1.702782 -1.963071 1.725635 0
M  V30 29 C -1.653231 -0.949846 2.659358 0
M  V30 30 H 0.710527 3.726380 2.682163 0
M  V30 31 H 1.166709 3.460012 0.373373 0
M  V30 32 H 0.691970 1.958339 -0.530370 0
M  V30 33 H 2.808966 1.392490 1.466145 0
M  V30 34 H 5.061055 1.179162 0.722410 0
M  V30 35 H 6.772500 1.600629 -1.037816 0
M  V30 36 H 6.185780 2.767751 -3.109032 0
M  V30 37 H 3.847463 3.190388 -4.606532 0
M  V30 38 H 2.194105 3.109931 -1.705905 0
M  V30 39 H -3.560928 -2.371868 5.038619 0
M  V30 40 H -3.675449 -4.245782 3.357382 0
M  V30 41 H -0.468983 -3.749860 0.213610 0
M  V30 42 H -0.515036 -5.504090 -1.447333 0
M  V30 43 H -2.452089 -6.926310 -1.653402 0
M  V30 44 H -4.443697 -6.657650 -0.200207 0
M  V30 45 H -4.446887 -4.842253 1.548757 0
M  V30 46 H -1.201530 -1.928317 0.754046 0
M  V30 END ATOM
M  V30 BEGIN BOND
M  V30 1 2 1 2
M  V30 2 1 2 3
M  V30 3 1 3 4
M  V30 4 1 4 5
M  V30 5 1 5 6
M  V30 6 1 6 7
M  V30 7 2 7 8
M  V30 8 1 8 9
M  V30 9 2 9 10
M  V30 10 1 10 11
M  V30 11 1 11 12
M  V30 12 2 11 13
M  V30 13 2 4 14
M  V30 14 1 14 15
M  V30 15 2 15 16
M  V30 16 1 16 17
M  V30 17 1 17 18
M  V30 18 2 18 19
M  V30 19 1 19 20
M  V30 20 2 20 21
M  V30 21 1 21 22
M  V30 22 2 22 23
M  V30 23 1 23 24
M  V30 24 2 24 25
M  V30 25 1 25 26
M  V30 26 2 26 27
M  V30 27 1 21 28
M  V30 28 2 28 29
M  V30 29 1 16 2
M  V30 30 1 29 18
M  V30 31 1 13 7
M  V30 32 1 29 15
M  V30 33 1 27 22
M  V30 34 1 3 30
M  V30 35 1 5 31
M  V30 36 1 5 32
M  V30 37 1 6 33
M  V30 38 1 8 34
M  V30 39 1 9 35
M  V30 40 1 10 36
M  V30 41 1 12 37
M  V30 42 1 13 38
M  V30 43 1 19 39
M  V30 44 1 20 40
M  V30 45 1 23 41
M  V30 46 1 24 42
M  V30 47 1 25 43
M  V30 48 1 26 44
M  V30 49 1 27 45
M  V30 50 1 28 46
M  V30 END BOND
M  V30 END CTAB
M  END
>  <Dataset>  (631) 
ChEMBL_Kinases

>  <Ligand_Instance>  (631) 
nan

>  <PDB_ID>  (631) 
nan

>  <Standardized_SMILES>  (631) 
O=c1[nH]c(CNc2cccc(O)c2)nc2c1sc1ccc(-c3ccccc3)cc12

>  <Name>  (631) 
nan

>  <Pocket>  (631) 
nan

>  <ATP_Site>  (631) 
nan

>  <Peripheral>  (631) 
nan

>  <Num_H_Atoms_ProtBoundConf>  (631) 
nan

>  <Num_Resolved_Atoms>  (631) 
nan

>  <Num_Not_Resolved_Atoms>  (631) 
nan

$$$$
CHEMBL573012
     RDKit          3D

  0  0  0  0  0  0  0  0  0  0999 V3000
M  V30 BEGIN CTAB
M  V30 COUNTS 43 47 0 0 0
M  V30 BEGIN ATOM
M  V30 1 O 1.855952 2.934040 4.176558 0
M  V30 2 C 1.773538 1.986479 3.367544 0
M  V30 3 N 2.734898 1.605452 2.530708 0
M  V30 4 C 2.426732 0.561041 1.750863 0
M  V30 5 C 3.485685 0.085756 0.785638 0
M  V30 6 N 3.368716 0.780586 -0.474334 0
M  V30 7 C 2.063389 0.536778 -1.055592 0
M  V30 8 C 2.184393 0.817460 -2.538664 0
M  V30 9 C 3.685176 0.751977 -2.773632 0 CFG=2
M  V30 10 O 3.935585 -0.084855 -3.850961 0
M  V30 11 C 4.239692 0.186336 -1.464503 0
M  V30 12 N 1.281097 -0.081948 1.762275 0
M  V30 13 C 0.249565 0.218689 2.563168 0
M  V30 14 C 0.587305 1.301775 3.362578 0
M  V30 15 S -0.896956 1.567147 4.368299 0
M  V30 16 C -1.868848 0.141067 3.588413 0
M  V30 17 C -3.158350 -0.255709 3.901135 0
M  V30 18 C -3.608414 -1.329816 3.171855 0
M  V30 19 C -2.757010 -1.877306 2.239527 0
M  V30 20 C -3.231760 -3.040933 1.458895 0
M  V30 21 C -4.078192 -3.917278 2.025940 0
M  V30 22 C -4.557299 -5.015644 1.357799 0
M  V30 23 S -3.734379 -4.860527 -0.338043 0
M  V30 24 C -2.831736 -3.285164 0.109429 0
M  V30 25 C -1.485132 -1.445696 1.966849 0
M  V30 26 C -0.966868 -0.378450 2.655066 0
M  V30 27 H 3.630807 2.132275 2.542823 0
M  V30 28 H 4.482206 0.202961 1.207946 0
M  V30 29 H 3.352274 -1.005518 0.565004 0
M  V30 30 H 1.289922 1.193589 -0.602051 0
M  V30 31 H 1.766796 -0.512735 -0.921321 0
M  V30 32 H 1.655387 0.053757 -3.136828 0
M  V30 33 H 1.782220 1.837465 -2.709698 0
M  V30 34 H 4.131732 1.753168 -2.926757 0
M  V30 35 H 4.790773 0.120705 -4.319809 0
M  V30 36 H 5.291612 0.502251 -1.386629 0
M  V30 37 H 4.085363 -0.912940 -1.423566 0
M  V30 38 H -3.677531 0.297446 4.665249 0
M  V30 39 H -4.607664 -1.674335 3.380917 0
M  V30 40 H -4.491595 -3.908533 3.019003 0
M  V30 41 H -5.189576 -5.851043 1.485345 0
M  V30 42 H -2.107881 -2.553277 -0.407254 0
M  V30 43 H -0.906656 -1.955876 1.209605 0
M  V30 END ATOM
M  V30 BEGIN BOND
M  V30 1 2 1 2
M  V30 2 1 2 3
M  V30 3 1 3 4
M  V30 4 1 4 5
M  V30 5 1 5 6
M  V30 6 1 6 7
M  V30 7 1 7 8
M  V30 8 1 8 9
M  V30 9 1 9 10
M  V30 10 1 9 11
M  V30 11 2 4 12
M  V30 12 1 12 13
M  V30 13 2 13 14
M  V30 14 1 14 15
M  V30 15 1 15 16
M  V30 16 2 16 17
M  V30 17 1 17 18
M  V30 18 2 18 19
M  V30 19 1 19 20
M  V30 20 1 20 21
M  V30 21 2 21 22
M  V30 22 1 22 23
M  V30 23 1 23 24
M  V30 24 1 19 25
M  V30 25 2 25 26
M  V30 26 1 14 2
M  V30 27 1 26 16
M  V30 28 1 11 6
M  V30 29 1 26 13
M  V30 30 2 24 20
M  V30 31 1 3 27
M  V30 32 1 5 28
M  V30 33 1 5 29
M  V30 34 1 7 30
M  V30 35 1 7 31
M  V30 36 1 8 32
M  V30 37 1 8 33
M  V30 38 1 9 34 CFG=3
M  V30 39 1 10 35
M  V30 40 1 11 36
M  V30 41 1 11 37
M  V30 42 1 17 38
M  V30 43 1 18 39
M  V30 44 1 21 40
M  V30 45 1 22 41
M  V30 46 1 24 42
M  V30 47 1 25 43
M  V30 END BOND
M  V30 END CTAB
M  END
>  <Dataset>  (632) 
ChEMBL_Kinases

>  <Ligand_Instance>  (632) 
nan

>  <PDB_ID>  (632) 
nan

>  <Standardized_SMILES>  (632) 
O=c1[nH]c(CN2CC[C@H](O)C2)nc2c1sc1ccc(-c3ccsc3)cc12

>  <Name>  (632) 
nan

>  <Pocket>  (632) 
nan

>  <ATP_Site>  (632) 
nan

>  <Peripheral>  (632) 
nan

>  <Num_H_Atoms_ProtBoundConf>  (632) 
nan

>  <Num_Resolved_Atoms>  (632) 
nan

>  <Num_Not_Resolved_Atoms>  (632) 
nan

$$$$
CHEMBL573036
     RDKit          3D

  0  0  0  0  0  0  0  0  0  0999 V3000
M  V30 BEGIN CTAB
M  V30 COUNTS 39 42 0 0 0
M  V30 BEGIN ATOM
M  V30 1 C 0.900729 -4.132266 1.115448 0
M  V30 2 N 0.860728 -4.255796 2.531675 0
M  V30 3 C -0.043896 -5.225342 3.056571 0
M  V30 4 C 0.984409 -3.069556 3.295770 0
M  V30 5 C -0.082019 -2.046625 3.037265 0
M  V30 6 N 0.127222 -1.134800 2.080886 0
M  V30 7 C -0.795596 -0.161311 1.777600 0
M  V30 8 C -1.856613 -0.252967 2.524979 0
M  V30 9 S -2.922501 1.102267 1.966055 0
M  V30 10 C -1.750436 1.642718 0.742985 0
M  V30 11 C -1.868167 2.723264 -0.161241 0
M  V30 12 C -0.840119 2.977665 -1.035433 0
M  V30 13 C 0.222058 2.136381 -0.939255 0
M  V30 14 C 1.337790 2.406866 -1.883043 0
M  V30 15 C 2.618284 2.100558 -1.469252 0
M  V30 16 N 3.630874 2.355736 -2.349488 0
M  V30 17 C 3.372356 2.881616 -3.559464 0
M  V30 18 N 2.114427 3.188731 -3.981000 0
M  V30 19 C 1.077414 2.946701 -3.126424 0
M  V30 20 C 0.328844 1.087842 -0.057106 0
M  V30 21 C -0.715409 0.810236 0.848190 0
M  V30 22 C -2.126222 -1.203317 3.553949 0
M  V30 23 O -3.202093 -1.140859 4.171055 0
M  V30 24 N -1.184034 -2.125955 3.799100 0
M  V30 25 H -0.029931 -3.698068 0.702697 0
M  V30 26 H 1.821790 -3.624760 0.805686 0
M  V30 27 H 1.015430 -5.183013 0.714815 0
M  V30 28 H 0.174999 -5.284128 4.163298 0
M  V30 29 H -1.103709 -4.981211 2.898254 0
M  V30 30 H 0.153814 -6.239536 2.650158 0
M  V30 31 H 1.964281 -2.605009 3.022449 0
M  V30 32 H 1.037198 -3.340592 4.357651 0
M  V30 33 H -2.774432 3.310025 -0.124621 0
M  V30 34 H -0.988956 3.808418 -1.694222 0
M  V30 35 H 2.878557 1.680829 -0.517529 0
M  V30 36 H 4.286063 3.029432 -4.153540 0
M  V30 37 H 0.084384 3.186700 -3.453142 0
M  V30 38 H 1.261918 0.504563 -0.113707 0
M  V30 39 H -1.382473 -2.816244 4.548046 0
M  V30 END ATOM
M  V30 BEGIN BOND
M  V30 1 1 1 2
M  V30 2 1 2 3
M  V30 3 1 2 4
M  V30 4 1 4 5
M  V30 5 2 5 6
M  V30 6 1 6 7
M  V30 7 2 7 8
M  V30 8 1 8 9
M  V30 9 1 9 10
M  V30 10 2 10 11
M  V30 11 1 11 12
M  V30 12 2 12 13
M  V30 13 1 13 14
M  V30 14 2 14 15
M  V30 15 1 15 16
M  V30 16 2 16 17
M  V30 17 1 17 18
M  V30 18 2 18 19
M  V30 19 1 13 20
M  V30 20 2 20 21
M  V30 21 1 8 22
M  V30 22 2 22 23
M  V30 23 1 22 24
M  V30 24 1 24 5
M  V30 25 1 21 7
M  V30 26 1 21 10
M  V30 27 1 19 14
M  V30 28 1 1 25
M  V30 29 1 1 26
M  V30 30 1 1 27
M  V30 31 1 3 28
M  V30 32 1 3 29
M  V30 33 1 3 30
M  V30 34 1 4 31
M  V30 35 1 4 32
M  V30 36 1 11 33
M  V30 37 1 12 34
M  V30 38 1 15 35
M  V30 39 1 17 36
M  V30 40 1 19 37
M  V30 41 1 20 38
M  V30 42 1 24 39
M  V30 END BOND
M  V30 END CTAB
M  END
>  <Dataset>  (633) 
ChEMBL_Kinases

>  <Ligand_Instance>  (633) 
nan

>  <PDB_ID>  (633) 
nan

>  <Standardized_SMILES>  (633) 
CN(C)Cc1nc2c(sc3ccc(-c4cncnc4)cc32)c(=O)[nH]1

>  <Name>  (633) 
nan

>  <Pocket>  (633) 
nan

>  <ATP_Site>  (633) 
nan

>  <Peripheral>  (633) 
nan

>  <Num_H_Atoms_ProtBoundConf>  (633) 
nan

>  <Num_Resolved_Atoms>  (633) 
nan

>  <Num_Not_Resolved_Atoms>  (633) 
nan

$$$$
CHEMBL1234354
     RDKit          3D

  0  0  0  0  0  0  0  0  0  0999 V3000
M  V30 BEGIN CTAB
M  V30 COUNTS 58 61 0 0 0
M  V30 BEGIN ATOM
M  V30 1 C -0.491888 -4.037165 6.998033 0
M  V30 2 O 0.752843 -3.506619 6.609778 0
M  V30 3 C 0.859219 -2.667612 5.494577 0
M  V30 4 C 2.131174 -2.190280 5.186086 0
M  V30 5 C 2.181477 -1.358285 4.065366 0
M  V30 6 C 1.052663 -1.045375 3.335014 0
M  V30 7 C 1.081048 -0.179514 2.162398 0
M  V30 8 C 1.767878 1.015271 2.105731 0
M  V30 9 C 1.718813 1.744763 0.942021 0
M  V30 10 C 2.427791 2.927329 0.956244 0
M  V30 11 C 3.191527 3.374689 2.155982 0
M  V30 12 N 2.399020 3.675415 -0.185196 0
M  V30 13 C 1.694047 3.230048 -1.246246 0
M  V30 14 N 1.672991 4.030191 -2.443865 0
M  V30 15 N 1.010115 2.071274 -1.234223 0
M  V30 16 C 1.001707 1.297001 -0.144906 0
M  V30 17 N 0.308362 0.132272 -0.147020 0
M  V30 18 C -0.432336 -0.333621 -1.264584 0 CFG=1
M  V30 19 C -1.633664 0.498003 -1.642063 0
M  V30 20 C -2.575294 -0.392723 -2.391867 0
M  V30 21 C -1.921515 -1.518408 -3.140303 0 CFG=2
M  V30 22 O -2.093557 -2.680408 -2.426599 0
M  V30 23 C -2.896107 -3.638484 -2.961997 0
M  V30 24 C -2.918603 -4.812168 -1.983644 0
M  V30 25 O -3.402887 -4.470559 -0.743812 0
M  V30 26 C -0.526227 -1.219353 -3.547388 0
M  V30 27 C 0.340470 -0.569348 -2.513105 0
M  V30 28 C 0.397019 -0.544840 1.037072 0
M  V30 29 O -0.247458 -1.645413 1.060825 0
M  V30 30 C -0.192501 -1.554742 3.694394 0
M  V30 31 N -0.245863 -2.367150 4.787611 0
M  V30 32 H -0.662207 -5.055597 6.568974 0
M  V30 33 H -0.571617 -4.146864 8.082694 0
M  V30 34 H -1.331012 -3.363398 6.682701 0
M  V30 35 H 2.996458 -2.447429 5.769607 0
M  V30 36 H 3.135669 -0.948632 3.763519 0
M  V30 37 H 2.316235 1.338910 2.963642 0
M  V30 38 H 4.058679 2.704367 2.366370 0
M  V30 39 H 2.502966 3.435552 3.016324 0
M  V30 40 H 3.551401 4.403841 1.949130 0
M  V30 41 H 1.503058 3.548179 -3.373388 0
M  V30 42 H 1.816699 5.068555 -2.451409 0
M  V30 43 H -0.860458 -1.334409 -0.967839 0
M  V30 44 H -2.145495 0.948073 -0.762155 0
M  V30 45 H -1.266072 1.276867 -2.366515 0
M  V30 46 H -3.328600 -0.785850 -1.648122 0
M  V30 47 H -3.198390 0.268040 -3.061652 0
M  V30 48 H -2.532493 -1.641826 -4.072693 0
M  V30 49 H -3.967022 -3.289961 -3.002179 0
M  V30 50 H -2.571831 -4.076243 -3.915920 0
M  V30 51 H -1.844247 -5.127536 -1.858730 0
M  V30 52 H -3.408219 -5.691628 -2.436128 0
M  V30 53 H -3.121263 -3.558453 -0.524858 0
M  V30 54 H -0.001378 -2.152173 -3.847523 0
M  V30 55 H -0.566529 -0.629257 -4.494348 0
M  V30 56 H 1.316095 -1.093210 -2.353367 0
M  V30 57 H 0.648696 0.431258 -2.920241 0
M  V30 58 H -1.134779 -1.383215 3.207052 0
M  V30 END ATOM
M  V30 BEGIN BOND
M  V30 1 1 1 2
M  V30 2 1 2 3
M  V30 3 2 3 4
M  V30 4 1 4 5
M  V30 5 2 5 6
M  V30 6 1 6 7
M  V30 7 2 7 8
M  V30 8 1 8 9
M  V30 9 2 9 10
M  V30 10 1 10 11
M  V30 11 1 10 12
M  V30 12 2 12 13
M  V30 13 1 13 14
M  V30 14 1 13 15
M  V30 15 2 15 16
M  V30 16 1 16 17
M  V30 17 1 17 18
M  V30 18 1 18 19
M  V30 19 1 19 20
M  V30 20 1 20 21
M  V30 21 1 21 22
M  V30 22 1 22 23
M  V30 23 1 23 24
M  V30 24 1 24 25
M  V30 25 1 21 26
M  V30 26 1 26 27
M  V30 27 1 17 28
M  V30 28 2 28 29
M  V30 29 1 6 30
M  V30 30 2 30 31
M  V30 31 1 31 3
M  V30 32 1 28 7
M  V30 33 1 16 9
M  V30 34 1 27 18
M  V30 35 1 1 32
M  V30 36 1 1 33
M  V30 37 1 1 34
M  V30 38 1 4 35
M  V30 39 1 5 36
M  V30 40 1 8 37
M  V30 41 1 11 38
M  V30 42 1 11 39
M  V30 43 1 11 40
M  V30 44 1 14 41
M  V30 45 1 14 42
M  V30 46 1 18 43 CFG=1
M  V30 47 1 19 44
M  V30 48 1 19 45
M  V30 49 1 20 46
M  V30 50 1 20 47
M  V30 51 1 21 48 CFG=3
M  V30 52 1 23 49
M  V30 53 1 23 50
M  V30 54 1 24 51
M  V30 55 1 24 52
M  V30 56 1 25 53
M  V30 57 1 26 54
M  V30 58 1 26 55
M  V30 59 1 27 56
M  V30 60 1 27 57
M  V30 61 1 30 58
M  V30 END BOND
M  V30 END CTAB
M  END
>  <Dataset>  (634) 
ChEMBL_Kinases

>  <Ligand_Instance>  (634) 
nan

>  <PDB_ID>  (634) 
nan

>  <Standardized_SMILES>  (634) 
COc1ccc(-c2cc3c(C)nc(N)nc3n([C@H]3CC[C@H](OCCO)CC3)c2=O)cn1

>  <Name>  (634) 
PF-04691502

>  <Pocket>  (634) 
nan

>  <ATP_Site>  (634) 
nan

>  <Peripheral>  (634) 
nan

>  <Num_H_Atoms_ProtBoundConf>  (634) 
nan

>  <Num_Resolved_Atoms>  (634) 
nan

>  <Num_Not_Resolved_Atoms>  (634) 
nan

$$$$
CHEMBL573037
     RDKit          3D

  0  0  0  0  0  0  0  0  0  0999 V3000
M  V30 BEGIN CTAB
M  V30 COUNTS 37 39 0 0 0
M  V30 BEGIN ATOM
M  V30 1 C -0.172945 -4.285717 4.134900 0
M  V30 2 N -0.593834 -3.467520 2.954418 0
M  V30 3 C -1.427322 -4.334215 2.121885 0
M  V30 4 C 0.599556 -3.100920 2.246830 0
M  V30 5 C 0.393886 -2.055676 1.232923 0
M  V30 6 C -0.513047 -2.283889 0.090526 0
M  V30 7 C -0.515324 -1.003319 -0.751208 0
M  V30 8 N 0.250935 -0.021397 -0.306541 0
M  V30 9 C 0.375906 1.185464 -0.888840 0
M  V30 10 C -0.434810 1.216284 -2.030043 0
M  V30 11 S -0.147046 2.923837 -2.690671 0
M  V30 12 C 0.971330 3.387878 -1.428071 0
M  V30 13 C 1.651316 4.550347 -1.204063 0
M  V30 14 C 2.504042 4.749613 -0.146127 0
M  V30 15 C 2.593649 3.629428 0.671218 0
M  V30 16 Cl 3.679309 3.805033 2.061162 0
M  V30 17 C 1.943372 2.429842 0.513182 0
M  V30 18 C 1.091916 2.308937 -0.592643 0
M  V30 19 C -1.253674 0.216358 -2.537208 0
M  V30 20 O -1.907872 0.439268 -3.580425 0
M  V30 21 N -1.272964 -0.928242 -1.847077 0
M  V30 22 H 0.753811 -4.841762 3.914632 0
M  V30 23 H -1.039107 -4.903857 4.417970 0
M  V30 24 H -0.017618 -3.557928 4.939178 0
M  V30 25 H -2.418666 -3.878272 1.948811 0
M  V30 26 H -0.958673 -4.533462 1.148869 0
M  V30 27 H -1.550777 -5.327184 2.656934 0
M  V30 28 H 1.420783 -2.837806 2.976219 0
M  V30 29 H 1.021428 -4.017892 1.726636 0
M  V30 30 H 1.431852 -1.796834 0.822849 0
M  V30 31 H 0.135395 -1.070524 1.760210 0
M  V30 32 H -1.561650 -2.356163 0.429507 0
M  V30 33 H -0.252531 -3.127197 -0.557534 0
M  V30 34 H 1.495490 5.353113 -1.916158 0
M  V30 35 H 3.051927 5.654246 0.052388 0
M  V30 36 H 2.124219 1.654191 1.243943 0
M  V30 37 H -1.854616 -1.730486 -2.145614 0
M  V30 END ATOM
M  V30 BEGIN BOND
M  V30 1 1 1 2
M  V30 2 1 2 3
M  V30 3 1 2 4
M  V30 4 1 4 5
M  V30 5 1 5 6
M  V30 6 1 6 7
M  V30 7 2 7 8
M  V30 8 1 8 9
M  V30 9 2 9 10
M  V30 10 1 10 11
M  V30 11 1 11 12
M  V30 12 2 12 13
M  V30 13 1 13 14
M  V30 14 2 14 15
M  V30 15 1 15 16
M  V30 16 1 15 17
M  V30 17 2 17 18
M  V30 18 1 10 19
M  V30 19 2 19 20
M  V30 20 1 19 21
M  V30 21 1 21 7
M  V30 22 1 18 9
M  V30 23 1 18 12
M  V30 24 1 1 22
M  V30 25 1 1 23
M  V30 26 1 1 24
M  V30 27 1 3 25
M  V30 28 1 3 26
M  V30 29 1 3 27
M  V30 30 1 4 28
M  V30 31 1 4 29
M  V30 32 1 5 30
M  V30 33 1 5 31
M  V30 34 1 6 32
M  V30 35 1 6 33
M  V30 36 1 13 34
M  V30 37 1 14 35
M  V30 38 1 17 36
M  V30 39 1 21 37
M  V30 END BOND
M  V30 END CTAB
M  END
>  <Dataset>  (635) 
ChEMBL_Kinases

>  <Ligand_Instance>  (635) 
nan

>  <PDB_ID>  (635) 
nan

>  <Standardized_SMILES>  (635) 
CN(C)CCCc1nc2c(sc3ccc(Cl)cc32)c(=O)[nH]1

>  <Name>  (635) 
nan

>  <Pocket>  (635) 
nan

>  <ATP_Site>  (635) 
nan

>  <Peripheral>  (635) 
nan

>  <Num_H_Atoms_ProtBoundConf>  (635) 
nan

>  <Num_Resolved_Atoms>  (635) 
nan

>  <Num_Not_Resolved_Atoms>  (635) 
nan

$$$$
CHEMBL573038
     RDKit          3D

  0  0  0  0  0  0  0  0  0  0999 V3000
M  V30 BEGIN CTAB
M  V30 COUNTS 31 33 0 0 0
M  V30 BEGIN ATOM
M  V30 1 C -1.456954 -1.352957 2.946984 0
M  V30 2 N -0.630340 -2.497022 3.175821 0
M  V30 3 C -1.225224 -3.546936 3.943557 0
M  V30 4 C -0.001338 -2.973662 1.970789 0
M  V30 5 C 0.874134 -1.930372 1.355472 0
M  V30 6 N 0.288491 -1.133631 0.479836 0
M  V30 7 C 0.904175 -0.137909 -0.179147 0
M  V30 8 C 2.259324 -0.082575 0.210976 0
M  V30 9 S 2.929987 1.315209 -0.776967 0
M  V30 10 C 1.400966 1.683130 -1.588030 0
M  V30 11 C 1.127303 2.646042 -2.506296 0
M  V30 12 C -0.138836 2.782237 -3.032726 0
M  V30 13 C -1.042490 1.868479 -2.537184 0
M  V30 14 C -0.784486 0.889154 -1.609832 0
M  V30 15 C 0.494405 0.781777 -1.104119 0
M  V30 16 C 2.897618 -0.898848 1.120472 0
M  V30 17 O 4.100079 -0.702947 1.340174 0
M  V30 18 N 2.166767 -1.857444 1.710253 0
M  V30 19 H -1.651741 -1.277753 1.850628 0
M  V30 20 H -2.455566 -1.514875 3.417673 0
M  V30 21 H -0.956501 -0.442968 3.340951 0
M  V30 22 H -1.433345 -3.236773 4.972509 0
M  V30 23 H -2.174137 -3.877801 3.464331 0
M  V30 24 H -0.529967 -4.415556 3.895728 0
M  V30 25 H 0.588005 -3.862253 2.197794 0
M  V30 26 H -0.834964 -3.277186 1.291890 0
M  V30 27 H 1.932228 3.299735 -2.809607 0
M  V30 28 H -0.390611 3.534913 -3.762736 0
M  V30 29 H -2.069448 1.944054 -2.934099 0
M  V30 30 H -1.624464 0.238781 -1.320703 0
M  V30 31 H 2.591567 -2.488356 2.391069 0
M  V30 END ATOM
M  V30 BEGIN BOND
M  V30 1 1 1 2
M  V30 2 1 2 3
M  V30 3 1 2 4
M  V30 4 1 4 5
M  V30 5 2 5 6
M  V30 6 1 6 7
M  V30 7 2 7 8
M  V30 8 1 8 9
M  V30 9 1 9 10
M  V30 10 2 10 11
M  V30 11 1 11 12
M  V30 12 2 12 13
M  V30 13 1 13 14
M  V30 14 2 14 15
M  V30 15 1 8 16
M  V30 16 2 16 17
M  V30 17 1 16 18
M  V30 18 1 18 5
M  V30 19 1 15 7
M  V30 20 1 15 10
M  V30 21 1 1 19
M  V30 22 1 1 20
M  V30 23 1 1 21
M  V30 24 1 3 22
M  V30 25 1 3 23
M  V30 26 1 3 24
M  V30 27 1 4 25
M  V30 28 1 4 26
M  V30 29 1 11 27
M  V30 30 1 12 28
M  V30 31 1 13 29
M  V30 32 1 14 30
M  V30 33 1 18 31
M  V30 END BOND
M  V30 END CTAB
M  END
>  <Dataset>  (636) 
ChEMBL_Kinases

>  <Ligand_Instance>  (636) 
nan

>  <PDB_ID>  (636) 
nan

>  <Standardized_SMILES>  (636) 
CN(C)Cc1nc2c(sc3ccccc32)c(=O)[nH]1

>  <Name>  (636) 
nan

>  <Pocket>  (636) 
nan

>  <ATP_Site>  (636) 
nan

>  <Peripheral>  (636) 
nan

>  <Num_H_Atoms_ProtBoundConf>  (636) 
nan

>  <Num_Resolved_Atoms>  (636) 
nan

>  <Num_Not_Resolved_Atoms>  (636) 
nan

$$$$
CHEMBL2069623
     RDKit          3D

  0  0  0  0  0  0  0  0  0  0999 V3000
M  V30 BEGIN CTAB
M  V30 COUNTS 43 46 0 0 0
M  V30 BEGIN ATOM
M  V30 1 N 1.115077 -3.123714 -2.146290 0
M  V30 2 C 1.443301 -3.088372 -0.773049 0
M  V30 3 N 2.523058 -3.751261 -0.322917 0
M  V30 4 C 2.865606 -3.740118 0.980462 0
M  V30 5 N 2.058793 -3.031297 1.765214 0
M  V30 6 C 0.971961 -2.352199 1.375560 0
M  V30 7 C 0.615554 -2.358679 0.044045 0
M  V30 8 C -0.538365 -1.586061 -0.106439 0
M  V30 9 C -1.151248 -1.418826 -1.448258 0
M  V30 10 O -0.484078 -0.546866 -2.296981 0
M  V30 11 C -0.216116 0.779453 -2.144138 0
M  V30 12 C -0.520711 1.652321 -1.122415 0
M  V30 13 C -0.166832 2.977401 -1.134960 0
M  V30 14 C 0.526040 3.451643 -2.223933 0
M  V30 15 C 0.873074 2.647004 -3.292118 0
M  V30 16 Cl 1.749515 3.370046 -4.604207 0
M  V30 17 C 0.482236 1.328842 -3.205185 0
M  V30 18 N -0.810427 -1.161205 1.131564 0
M  V30 19 N 0.063908 -1.599203 2.019822 0
M  V30 20 C 0.015388 -1.292874 3.445313 0
M  V30 21 C 1.381247 -0.984490 4.001824 0
M  V30 22 C 1.168473 -0.176749 5.265875 0
M  V30 23 O -0.033015 -0.505258 5.896205 0
M  V30 24 C -1.133212 -0.027218 5.183462 0
M  V30 25 C -0.860159 -0.083007 3.710823 0
M  V30 26 H 1.407532 -3.636682 -3.003754 0
M  V30 27 H 0.996098 -3.270228 -3.155466 0
M  V30 28 H 3.734544 -4.287010 1.267083 0
M  V30 29 H -2.219348 -1.113093 -1.325892 0
M  V30 30 H -1.148448 -2.430961 -1.942850 0
M  V30 31 H -1.066908 1.201102 -0.309192 0
M  V30 32 H -0.464123 3.566642 -0.269383 0
M  V30 33 H 0.780108 4.519152 -2.174732 0
M  V30 34 H 0.795965 0.755324 -4.093947 0
M  V30 35 H -0.388451 -2.141126 4.050731 0
M  V30 36 H 2.031750 -0.447392 3.286745 0
M  V30 37 H 1.856207 -1.976052 4.226507 0
M  V30 38 H 1.183298 0.904541 5.020256 0
M  V30 39 H 1.971568 -0.337272 6.014638 0
M  V30 40 H -1.401909 1.015918 5.464243 0
M  V30 41 H -1.993914 -0.689907 5.408093 0
M  V30 42 H -0.270428 0.805051 3.346166 0
M  V30 43 H -1.767645 -0.196701 3.080264 0
M  V30 END ATOM
M  V30 BEGIN BOND
M  V30 1 1 1 2
M  V30 2 2 2 3
M  V30 3 1 3 4
M  V30 4 2 4 5
M  V30 5 1 5 6
M  V30 6 2 6 7
M  V30 7 1 7 8
M  V30 8 1 8 9
M  V30 9 1 9 10
M  V30 10 1 10 11
M  V30 11 2 11 12
M  V30 12 1 12 13
M  V30 13 2 13 14
M  V30 14 1 14 15
M  V30 15 1 15 16
M  V30 16 2 15 17
M  V30 17 2 8 18
M  V30 18 1 18 19
M  V30 19 1 19 20
M  V30 20 1 20 21
M  V30 21 1 21 22
M  V30 22 1 22 23
M  V30 23 1 23 24
M  V30 24 1 24 25
M  V30 25 1 7 2
M  V30 26 1 17 11
M  V30 27 1 25 20
M  V30 28 1 19 6
M  V30 29 1 1 26
M  V30 30 1 1 27
M  V30 31 1 4 28
M  V30 32 1 9 29
M  V30 33 1 9 30
M  V30 34 1 12 31
M  V30 35 1 13 32
M  V30 36 1 14 33
M  V30 37 1 17 34
M  V30 38 1 20 35
M  V30 39 1 21 36
M  V30 40 1 21 37
M  V30 41 1 22 38
M  V30 42 1 22 39
M  V30 43 1 24 40
M  V30 44 1 24 41
M  V30 45 1 25 42
M  V30 46 1 25 43
M  V30 END BOND
M  V30 END CTAB
M  END
>  <Dataset>  (637) 
ChEMBL_Kinases

>  <Ligand_Instance>  (637) 
nan

>  <PDB_ID>  (637) 
nan

>  <Standardized_SMILES>  (637) 
Nc1ncnc2c1c(COc1cccc(Cl)c1)nn2C1CCOCC1

>  <Name>  (637) 
nan

>  <Pocket>  (637) 
nan

>  <ATP_Site>  (637) 
nan

>  <Peripheral>  (637) 
nan

>  <Num_H_Atoms_ProtBoundConf>  (637) 
nan

>  <Num_Resolved_Atoms>  (637) 
nan

>  <Num_Not_Resolved_Atoms>  (637) 
nan

$$$$
CHEMBL1094507
     RDKit          3D

  0  0  0  0  0  0  0  0  0  0999 V3000
M  V30 BEGIN CTAB
M  V30 COUNTS 66 71 0 0 0
M  V30 BEGIN ATOM
M  V30 1 O 3.311026 -0.878222 3.271286 0
M  V30 2 C 2.873794 -0.689411 4.458244 0
M  V30 3 N 3.649608 -0.853701 5.639783 0
M  V30 4 C 5.024272 -1.261935 5.486978 0
M  V30 5 C 6.093266 -0.402141 5.344927 0
M  V30 6 C 7.362311 -0.975713 5.208298 0
M  V30 7 C 7.472097 -2.345894 5.222915 0
M  V30 8 C 6.402390 -3.206932 5.364987 0
M  V30 9 C 5.154136 -2.655163 5.499653 0
M  V30 10 N 1.507733 -0.293002 4.444089 0
M  V30 11 C 0.926653 -0.192213 3.129208 0
M  V30 12 C 0.301440 -1.269503 2.515970 0
M  V30 13 C -0.254428 -1.149305 1.242164 0
M  V30 14 C -0.164665 0.078988 0.604791 0
M  V30 15 C -0.760504 0.150907 -0.727152 0
M  V30 16 N -0.255563 -0.659847 -1.697497 0
M  V30 17 N -0.895228 -0.479203 -2.840786 0
M  V30 18 C -0.605567 -1.184631 -4.088690 0
M  V30 19 C -1.371461 -2.418313 -4.236547 0
M  V30 20 O -0.976080 -2.875925 -5.344958 0
M  V30 21 N -2.350927 -3.133399 -3.492127 0
M  V30 22 C -2.946813 -2.791526 -2.205183 0
M  V30 23 C -3.915901 -3.906859 -1.860860 0
M  V30 24 O -3.262005 -5.129759 -1.795510 0
M  V30 25 C -2.727728 -5.494119 -3.031029 0
M  V30 26 C -2.854963 -4.370260 -4.039374 0
M  V30 27 C -1.834933 0.459117 -2.634069 0
M  V30 28 C -1.774043 0.871695 -1.320783 0
M  V30 29 C -2.524485 1.843687 -0.535321 0
M  V30 30 C -3.269342 1.441457 0.564146 0
M  V30 31 C -3.988365 2.341171 1.322392 0
M  V30 32 N -3.977616 3.652742 0.999402 0
M  V30 33 C -3.268432 4.069189 -0.055254 0
M  V30 34 N -3.122987 5.331319 -0.549051 0
M  V30 35 C -2.315601 5.243746 -1.618094 0
M  V30 36 C -1.922217 3.924254 -1.838019 0
M  V30 37 C -2.538740 3.199619 -0.835026 0
M  V30 38 C 0.451286 1.166486 1.191314 0
M  V30 39 C 0.998999 1.024965 2.461930 0
M  V30 40 H 3.132276 -0.657301 6.513966 0
M  V30 41 H 5.880296 0.654872 5.348348 0
M  V30 42 H 8.201706 -0.299751 5.096736 0
M  V30 43 H 8.506324 -2.686736 5.108990 0
M  V30 44 H 6.595125 -4.274462 5.363906 0
M  V30 45 H 4.344271 -3.345453 5.608245 0
M  V30 46 H 1.032774 -0.107337 5.371640 0
M  V30 47 H 0.286422 -2.192857 3.107901 0
M  V30 48 H -0.730817 -2.017452 0.806617 0
M  V30 49 H 0.506818 -1.388242 -4.070675 0
M  V30 50 H -0.726937 -0.461142 -4.948432 0
M  V30 51 H -2.211446 -2.626136 -1.407454 0
M  V30 52 H -3.545620 -1.847587 -2.330738 0
M  V30 53 H -4.731237 -3.894096 -2.605447 0
M  V30 54 H -4.293770 -3.708196 -0.828877 0
M  V30 55 H -1.649605 -5.759020 -2.968247 0
M  V30 56 H -3.254343 -6.372534 -3.456917 0
M  V30 57 H -3.878780 -4.224809 -4.418777 0
M  V30 58 H -2.252108 -4.680516 -4.917592 0
M  V30 59 H -2.536906 0.859787 -3.321189 0
M  V30 60 H -3.324364 0.417975 0.879418 0
M  V30 61 H -4.587827 2.093879 2.188958 0
M  V30 62 H -3.554407 6.185145 -0.168114 0
M  V30 63 H -1.994583 6.065169 -2.245028 0
M  V30 64 H -1.294109 3.483724 -2.582084 0
M  V30 65 H 0.509907 2.114460 0.676132 0
M  V30 66 H 1.477305 1.911950 2.888802 0
M  V30 END ATOM
M  V30 BEGIN BOND
M  V30 1 2 1 2
M  V30 2 1 2 3
M  V30 3 1 3 4
M  V30 4 2 4 5
M  V30 5 1 5 6
M  V30 6 2 6 7
M  V30 7 1 7 8
M  V30 8 2 8 9
M  V30 9 1 2 10
M  V30 10 1 10 11
M  V30 11 2 11 12
M  V30 12 1 12 13
M  V30 13 2 13 14
M  V30 14 1 14 15
M  V30 15 2 15 16
M  V30 16 1 16 17
M  V30 17 1 17 18
M  V30 18 1 18 19
M  V30 19 2 19 20
M  V30 20 1 19 21
M  V30 21 1 21 22
M  V30 22 1 22 23
M  V30 23 1 23 24
M  V30 24 1 24 25
M  V30 25 1 25 26
M  V30 26 1 17 27
M  V30 27 2 27 28
M  V30 28 1 28 29
M  V30 29 2 29 30
M  V30 30 1 30 31
M  V30 31 2 31 32
M  V30 32 1 32 33
M  V30 33 1 33 34
M  V30 34 1 34 35
M  V30 35 2 35 36
M  V30 36 1 36 37
M  V30 37 1 14 38
M  V30 38 2 38 39
M  V30 39 1 9 4
M  V30 40 1 39 11
M  V30 41 1 28 15
M  V30 42 1 37 29
M  V30 43 1 26 21
M  V30 44 2 37 33
M  V30 45 1 3 40
M  V30 46 1 5 41
M  V30 47 1 6 42
M  V30 48 1 7 43
M  V30 49 1 8 44
M  V30 50 1 9 45
M  V30 51 1 10 46
M  V30 52 1 12 47
M  V30 53 1 13 48
M  V30 54 1 18 49
M  V30 55 1 18 50
M  V30 56 1 22 51
M  V30 57 1 22 52
M  V30 58 1 23 53
M  V30 59 1 23 54
M  V30 60 1 25 55
M  V30 61 1 25 56
M  V30 62 1 26 57
M  V30 63 1 26 58
M  V30 64 1 27 59
M  V30 65 1 30 60
M  V30 66 1 31 61
M  V30 67 1 34 62
M  V30 68 1 35 63
M  V30 69 1 36 64
M  V30 70 1 38 65
M  V30 71 1 39 66
M  V30 END BOND
M  V30 END CTAB
M  END
>  <Dataset>  (638) 
ChEMBL_Kinases

>  <Ligand_Instance>  (638) 
nan

>  <PDB_ID>  (638) 
nan

>  <Standardized_SMILES>  (638) 
O=C(Nc1ccccc1)Nc1ccc(-c2nn(CC(=O)N3CCOCC3)cc2-c2ccnc3[nH]ccc23)cc1

>  <Name>  (638) 
nan

>  <Pocket>  (638) 
nan

>  <ATP_Site>  (638) 
nan

>  <Peripheral>  (638) 
nan

>  <Num_H_Atoms_ProtBoundConf>  (638) 
nan

>  <Num_Resolved_Atoms>  (638) 
nan

>  <Num_Not_Resolved_Atoms>  (638) 
nan

$$$$
CHEMBL2087011
     RDKit          3D

  0  0  0  0  0  0  0  0  0  0999 V3000
M  V30 BEGIN CTAB
M  V30 COUNTS 28 29 0 0 0
M  V30 BEGIN ATOM
M  V30 1 O -1.030127 -2.608653 3.846852 0
M  V30 2 C -0.059483 -2.735853 4.641348 0
M  V30 3 C -0.117015 -3.415679 5.962218 0
M  V30 4 O -1.386613 -3.908197 6.234297 0
M  V30 5 N 1.240250 -2.217505 4.334600 0
M  V30 6 C 1.487976 -1.516902 3.078413 0
M  V30 7 N 2.372173 -0.972888 2.488586 0
M  V30 8 N 2.239077 -0.428288 1.330596 0
M  V30 9 C 1.295537 -0.364164 0.677116 0
M  V30 10 C 0.658783 0.091752 -0.585149 0
M  V30 11 C -0.630251 -0.070330 -0.980732 0
M  V30 12 C -1.007490 0.442014 -2.210878 0
M  V30 13 C -0.073162 1.094306 -2.988833 0
M  V30 14 C -0.513055 1.618284 -4.277105 0
M  V30 15 O -1.716087 1.446820 -4.606082 0
M  V30 16 O 0.301984 2.289357 -5.158956 0
M  V30 17 C 1.259282 1.270429 -2.597022 0
M  V30 18 C 1.606998 0.740505 -1.348317 0
M  V30 19 S 0.139136 -1.285867 1.866889 0
M  V30 20 H 0.117350 -2.626897 6.720478 0
M  V30 21 H 0.659868 -4.208024 6.052395 0
M  V30 22 H -1.992212 -3.174921 6.503838 0
M  V30 23 H 2.096363 -2.256888 4.890453 0
M  V30 24 H -1.249040 -0.594765 -0.281458 0
M  V30 25 H -2.028630 0.303418 -2.503932 0
M  V30 26 H -0.056954 3.131045 -5.621063 0
M  V30 27 H 1.943644 1.790153 -3.250371 0
M  V30 28 H 2.647300 0.914752 -1.115570 0
M  V30 END ATOM
M  V30 BEGIN BOND
M  V30 1 2 1 2
M  V30 2 1 2 3
M  V30 3 1 3 4
M  V30 4 1 2 5
M  V30 5 1 5 6
M  V30 6 2 6 7
M  V30 7 1 7 8
M  V30 8 2 8 9
M  V30 9 1 9 10
M  V30 10 2 10 11
M  V30 11 1 11 12
M  V30 12 2 12 13
M  V30 13 1 13 14
M  V30 14 2 14 15
M  V30 15 1 14 16
M  V30 16 1 13 17
M  V30 17 2 17 18
M  V30 18 1 9 19
M  V30 19 1 19 6
M  V30 20 1 18 10
M  V30 21 1 3 20
M  V30 22 1 3 21
M  V30 23 1 4 22
M  V30 24 1 5 23
M  V30 25 1 11 24
M  V30 26 1 12 25
M  V30 27 1 16 26
M  V30 28 1 17 27
M  V30 29 1 18 28
M  V30 END BOND
M  V30 END CTAB
M  END
>  <Dataset>  (639) 
ChEMBL_Kinases

>  <Ligand_Instance>  (639) 
nan

>  <PDB_ID>  (639) 
nan

>  <Standardized_SMILES>  (639) 
O=C(CO)Nc1nnc(-c2ccc(C(=O)O)cc2)s1

>  <Name>  (639) 
nan

>  <Pocket>  (639) 
nan

>  <ATP_Site>  (639) 
nan

>  <Peripheral>  (639) 
nan

>  <Num_H_Atoms_ProtBoundConf>  (639) 
nan

>  <Num_Resolved_Atoms>  (639) 
nan

>  <Num_Not_Resolved_Atoms>  (639) 
nan

$$$$
CHEMBL585697
     RDKit          3D

  0  0  0  0  0  0  0  0  0  0999 V3000
M  V30 BEGIN CTAB
M  V30 COUNTS 52 55 0 0 0
M  V30 BEGIN ATOM
M  V30 1 C 0.298956 -1.822546 0.854622 0
M  V30 2 C 0.121638 -2.567070 -0.416444 0
M  V30 3 C 0.438248 -1.814483 -1.524557 0
M  V30 4 N 0.895946 -0.488226 -1.697753 0
M  V30 5 C 1.921246 0.383281 -1.370974 0
M  V30 6 C 3.042088 0.275811 -2.174993 0
M  V30 7 C 3.146629 -0.661774 -3.264174 0
M  V30 8 N 3.238624 -1.437097 -4.135534 0
M  V30 9 C 4.157779 1.067379 -1.991772 0
M  V30 10 N 4.149346 1.971005 -0.997490 0
M  V30 11 C 3.066524 2.085685 -0.209328 0
M  V30 12 C 1.930441 1.315027 -0.357621 0
M  V30 13 C 0.782099 1.493416 0.516599 0
M  V30 14 C 1.210569 1.521326 1.851899 0
M  V30 15 C 0.310129 1.687371 2.899626 0
M  V30 16 C -1.059074 1.832606 2.653207 0
M  V30 17 C -2.015620 2.008200 3.754542 0
M  V30 18 N -2.564469 0.803224 4.289233 0
M  V30 19 C -1.578111 -0.091274 4.827707 0
M  V30 20 C -3.571603 0.175645 3.493049 0
M  V30 21 C -1.431989 1.798656 1.323875 0
M  V30 22 C -0.543176 1.634338 0.281258 0
M  V30 23 C 0.314572 -2.415361 -2.787173 0
M  V30 24 C -0.114687 -3.733757 -2.931936 0
M  V30 25 C -0.411652 -4.417769 -1.773702 0
M  V30 26 N -0.845021 -5.680492 -1.544512 0
M  V30 27 C -1.001406 -5.909638 -0.211391 0
M  V30 28 C -0.656779 -4.746283 0.485217 0
M  V30 29 C -0.305232 -3.869943 -0.517549 0
M  V30 30 H 1.289107 -1.330747 0.865829 0
M  V30 31 H -0.547688 -1.144067 1.079965 0
M  V30 32 H 0.286436 -2.590447 1.667108 0
M  V30 33 H 0.318002 0.170767 -2.282452 0
M  V30 34 H 5.054743 1.005583 -2.608698 0
M  V30 35 H 3.118711 2.843590 0.588302 0
M  V30 36 H 2.240106 1.423190 2.226918 0
M  V30 37 H 0.588774 1.715531 3.939671 0
M  V30 38 H -1.518683 2.543058 4.611276 0
M  V30 39 H -2.879302 2.673277 3.488282 0
M  V30 40 H -1.096291 0.352280 5.723285 0
M  V30 41 H -0.799555 -0.374268 4.096234 0
M  V30 42 H -2.078003 -1.029534 5.136079 0
M  V30 43 H -3.196917 -0.833823 3.165262 0
M  V30 44 H -4.463245 -0.041503 4.146040 0
M  V30 45 H -3.885379 0.796566 2.640853 0
M  V30 46 H -2.471208 1.903756 1.048712 0
M  V30 47 H -0.787047 1.605542 -0.756310 0
M  V30 48 H 0.520823 -1.969034 -3.772608 0
M  V30 49 H -0.226455 -4.241683 -3.878048 0
M  V30 50 H -1.040142 -6.399772 -2.273437 0
M  V30 51 H -1.334193 -6.826454 0.256178 0
M  V30 52 H -0.654269 -4.545604 1.551317 0
M  V30 END ATOM
M  V30 BEGIN BOND
M  V30 1 1 1 2
M  V30 2 2 2 3
M  V30 3 1 3 4
M  V30 4 1 4 5
M  V30 5 2 5 6
M  V30 6 1 6 7
M  V30 7 3 7 8
M  V30 8 1 6 9
M  V30 9 2 9 10
M  V30 10 1 10 11
M  V30 11 2 11 12
M  V30 12 1 12 13
M  V30 13 2 13 14
M  V30 14 1 14 15
M  V30 15 2 15 16
M  V30 16 1 16 17
M  V30 17 1 17 18
M  V30 18 1 18 19
M  V30 19 1 18 20
M  V30 20 1 16 21
M  V30 21 2 21 22
M  V30 22 1 3 23
M  V30 23 2 23 24
M  V30 24 1 24 25
M  V30 25 1 25 26
M  V30 26 1 26 27
M  V30 27 2 27 28
M  V30 28 1 28 29
M  V30 29 1 29 2
M  V30 30 1 12 5
M  V30 31 1 22 13
M  V30 32 2 29 25
M  V30 33 1 1 30
M  V30 34 1 1 31
M  V30 35 1 1 32
M  V30 36 1 4 33
M  V30 37 1 9 34
M  V30 38 1 11 35
M  V30 39 1 14 36
M  V30 40 1 15 37
M  V30 41 1 17 38
M  V30 42 1 17 39
M  V30 43 1 19 40
M  V30 44 1 19 41
M  V30 45 1 19 42
M  V30 46 1 20 43
M  V30 47 1 20 44
M  V30 48 1 20 45
M  V30 49 1 21 46
M  V30 50 1 22 47
M  V30 51 1 23 48
M  V30 52 1 24 49
M  V30 53 1 26 50
M  V30 54 1 27 51
M  V30 55 1 28 52
M  V30 END BOND
M  V30 END CTAB
M  END
>  <Dataset>  (640) 
ChEMBL_Kinases

>  <Ligand_Instance>  (640) 
nan

>  <PDB_ID>  (640) 
nan

>  <Standardized_SMILES>  (640) 
Cc1c(Nc2c(C#N)cncc2-c2ccc(CN(C)C)cc2)ccc2[nH]ccc12

>  <Name>  (640) 
nan

>  <Pocket>  (640) 
nan

>  <ATP_Site>  (640) 
nan

>  <Peripheral>  (640) 
nan

>  <Num_H_Atoms_ProtBoundConf>  (640) 
nan

>  <Num_Resolved_Atoms>  (640) 
nan

>  <Num_Not_Resolved_Atoms>  (640) 
nan

$$$$
CHEMBL1094506
     RDKit          3D

  0  0  0  0  0  0  0  0  0  0999 V3000
M  V30 BEGIN CTAB
M  V30 COUNTS 61 65 0 0 0
M  V30 BEGIN ATOM
M  V30 1 C 1.722951 -0.391361 7.011913 0
M  V30 2 C 3.037537 -0.971612 6.537357 0
M  V30 3 N 3.245530 -0.662982 5.149988 0
M  V30 4 C 3.310363 0.708303 4.714758 0
M  V30 5 O 3.182075 1.637188 5.568053 0
M  V30 6 C 3.527334 0.966293 3.267618 0
M  V30 7 N 2.267580 1.059608 2.540388 0
M  V30 8 C 1.594212 2.233234 2.365223 0
M  V30 9 C 0.465348 1.907173 1.635702 0
M  V30 10 C -0.637557 2.705062 1.135114 0
M  V30 11 C -1.966412 2.526537 1.534410 0
M  V30 12 C -3.004929 3.294429 1.048461 0
M  V30 13 N -2.755253 4.276602 0.139185 0
M  V30 14 C -1.487682 4.486147 -0.276215 0
M  V30 15 N -1.017673 5.400407 -1.165939 0
M  V30 16 C 0.325895 5.235116 -1.265555 0
M  V30 17 C 0.723323 4.195298 -0.423575 0
M  V30 18 C -0.434767 3.725361 0.200859 0
M  V30 19 C 0.489591 0.560750 1.394164 0
M  V30 20 C -0.369943 -0.396088 0.704104 0
M  V30 21 C -1.028791 -1.499723 1.207820 0
M  V30 22 C -1.796437 -2.268828 0.353462 0
M  V30 23 C -1.909805 -1.947611 -0.985338 0
M  V30 24 N -2.724302 -2.786547 -1.828072 0
M  V30 25 C -1.967520 -3.841783 -2.403174 0
M  V30 26 O -0.750110 -4.145453 -2.296571 0
M  V30 27 N -2.640771 -4.773924 -3.276422 0
M  V30 28 C -1.894398 -5.845615 -3.866559 0
M  V30 29 C -1.302305 -5.605198 -5.091394 0
M  V30 30 C -0.575397 -6.657462 -5.660240 0
M  V30 31 C -0.454468 -7.884569 -5.024934 0
M  V30 32 C -1.078570 -8.054648 -3.791707 0
M  V30 33 C -1.796618 -7.053109 -3.203500 0
M  V30 34 C -1.256752 -0.847254 -1.502552 0
M  V30 35 C -0.479213 -0.067250 -0.639941 0
M  V30 36 N 1.622494 0.067375 1.970349 0
M  V30 37 H 1.807905 0.168960 7.960277 0
M  V30 38 H 0.971135 -1.194116 7.207731 0
M  V30 39 H 1.371133 0.327205 6.253662 0
M  V30 40 H 2.989154 -2.071842 6.653005 0
M  V30 41 H 3.824659 -0.538871 7.188262 0
M  V30 42 H 3.353789 -1.415315 4.429910 0
M  V30 43 H 4.096941 1.907279 3.112295 0
M  V30 44 H 4.159190 0.136458 2.879541 0
M  V30 45 H 1.810424 3.234813 2.683418 0
M  V30 46 H -2.112751 1.729781 2.261773 0
M  V30 47 H -3.984009 3.046735 1.444805 0
M  V30 48 H -1.616836 6.094194 -1.666826 0
M  V30 49 H 0.944392 5.842093 -1.912124 0
M  V30 50 H 1.721341 3.828423 -0.282904 0
M  V30 51 H -0.861376 -1.644434 2.265491 0
M  V30 52 H -2.285001 -3.118154 0.813237 0
M  V30 53 H -3.739877 -2.733337 -2.065153 0
M  V30 54 H -3.673241 -4.664182 -3.476214 0
M  V30 55 H -1.396876 -4.641842 -5.590791 0
M  V30 56 H -0.132994 -6.400571 -6.629021 0
M  V30 57 H 0.126549 -8.649406 -5.532504 0
M  V30 58 H -0.920119 -9.052205 -3.382715 0
M  V30 59 H -2.259280 -7.246740 -2.242414 0
M  V30 60 H -1.388350 -0.653340 -2.557514 0
M  V30 61 H -0.018275 0.763933 -1.157034 0
M  V30 END ATOM
M  V30 BEGIN BOND
M  V30 1 1 1 2
M  V30 2 1 2 3
M  V30 3 1 3 4
M  V30 4 2 4 5
M  V30 5 1 4 6
M  V30 6 1 6 7
M  V30 7 1 7 8
M  V30 8 2 8 9
M  V30 9 1 9 10
M  V30 10 2 10 11
M  V30 11 1 11 12
M  V30 12 2 12 13
M  V30 13 1 13 14
M  V30 14 1 14 15
M  V30 15 1 15 16
M  V30 16 2 16 17
M  V30 17 1 17 18
M  V30 18 1 9 19
M  V30 19 1 19 20
M  V30 20 2 20 21
M  V30 21 1 21 22
M  V30 22 2 22 23
M  V30 23 1 23 24
M  V30 24 1 24 25
M  V30 25 2 25 26
M  V30 26 1 25 27
M  V30 27 1 27 28
M  V30 28 2 28 29
M  V30 29 1 29 30
M  V30 30 2 30 31
M  V30 31 1 31 32
M  V30 32 2 32 33
M  V30 33 1 23 34
M  V30 34 2 34 35
M  V30 35 2 19 36
M  V30 36 1 36 7
M  V30 37 1 18 10
M  V30 38 1 35 20
M  V30 39 2 18 14
M  V30 40 1 33 28
M  V30 41 1 1 37
M  V30 42 1 1 38
M  V30 43 1 1 39
M  V30 44 1 2 40
M  V30 45 1 2 41
M  V30 46 1 3 42
M  V30 47 1 6 43
M  V30 48 1 6 44
M  V30 49 1 8 45
M  V30 50 1 11 46
M  V30 51 1 12 47
M  V30 52 1 15 48
M  V30 53 1 16 49
M  V30 54 1 17 50
M  V30 55 1 21 51
M  V30 56 1 22 52
M  V30 57 1 24 53
M  V30 58 1 27 54
M  V30 59 1 29 55
M  V30 60 1 30 56
M  V30 61 1 31 57
M  V30 62 1 32 58
M  V30 63 1 33 59
M  V30 64 1 34 60
M  V30 65 1 35 61
M  V30 END BOND
M  V30 END CTAB
M  END
>  <Dataset>  (641) 
ChEMBL_Kinases

>  <Ligand_Instance>  (641) 
nan

>  <PDB_ID>  (641) 
nan

>  <Standardized_SMILES>  (641) 
CCNC(=O)Cn1cc(-c2ccnc3[nH]ccc23)c(-c2ccc(NC(=O)Nc3ccccc3)cc2)n1

>  <Name>  (641) 
nan

>  <Pocket>  (641) 
nan

>  <ATP_Site>  (641) 
nan

>  <Peripheral>  (641) 
nan

>  <Num_H_Atoms_ProtBoundConf>  (641) 
nan

>  <Num_Resolved_Atoms>  (641) 
nan

>  <Num_Not_Resolved_Atoms>  (641) 
nan

$$$$
CHEMBL2087012
     RDKit          3D

  0  0  0  0  0  0  0  0  0  0999 V3000
M  V30 BEGIN CTAB
M  V30 COUNTS 31 32 0 0 0
M  V30 BEGIN ATOM
M  V30 1 C 1.027812 -5.343578 4.663202 0
M  V30 2 O 1.464004 -6.131027 3.627667 0
M  V30 3 C 0.806035 -5.861722 2.424562 0
M  V30 4 C 1.046414 -4.462998 2.061513 0
M  V30 5 O 1.629111 -3.415484 2.437134 0
M  V30 6 N 0.393823 -4.132978 0.835283 0
M  V30 7 C 0.511005 -2.772426 0.294593 0
M  V30 8 N 1.211608 -2.193113 -0.412831 0
M  V30 9 N 1.126172 -0.958230 -0.762890 0
M  V30 10 C 0.239555 -0.219945 -0.359409 0
M  V30 11 C -0.058849 1.249491 -0.631697 0
M  V30 12 C 0.826101 1.872939 -1.489006 0
M  V30 13 C 0.529085 3.201573 -1.715211 0
M  V30 14 C -0.547450 3.846032 -1.141131 0
M  V30 15 C -0.750092 5.242999 -1.459354 0
M  V30 16 O 0.041069 5.827951 -2.234963 0
M  V30 17 O -1.791396 6.003070 -0.949778 0
M  V30 18 C -1.394640 3.165101 -0.292306 0
M  V30 19 C -1.140629 1.824211 -0.030467 0
M  V30 20 S -0.705743 -1.335626 0.706731 0
M  V30 21 H 1.616983 -5.639220 5.579601 0
M  V30 22 H -0.026744 -5.582427 4.908587 0
M  V30 23 H 1.163123 -4.268943 4.556115 0
M  V30 24 H 1.153772 -6.576597 1.645407 0
M  V30 25 H -0.262525 -6.092853 2.610539 0
M  V30 26 H -0.212681 -4.658917 0.141868 0
M  V30 27 H 1.654465 1.333698 -1.916258 0
M  V30 28 H 1.207541 3.738958 -2.392324 0
M  V30 29 H -1.607280 6.947997 -0.578023 0
M  V30 30 H -2.233445 3.637735 0.164856 0
M  V30 31 H -1.761569 1.230013 0.623456 0
M  V30 END ATOM
M  V30 BEGIN BOND
M  V30 1 1 1 2
M  V30 2 1 2 3
M  V30 3 1 3 4
M  V30 4 2 4 5
M  V30 5 1 4 6
M  V30 6 1 6 7
M  V30 7 2 7 8
M  V30 8 1 8 9
M  V30 9 2 9 10
M  V30 10 1 10 11
M  V30 11 2 11 12
M  V30 12 1 12 13
M  V30 13 2 13 14
M  V30 14 1 14 15
M  V30 15 2 15 16
M  V30 16 1 15 17
M  V30 17 1 14 18
M  V30 18 2 18 19
M  V30 19 1 10 20
M  V30 20 1 20 7
M  V30 21 1 19 11
M  V30 22 1 1 21
M  V30 23 1 1 22
M  V30 24 1 1 23
M  V30 25 1 3 24
M  V30 26 1 3 25
M  V30 27 1 6 26
M  V30 28 1 12 27
M  V30 29 1 13 28
M  V30 30 1 17 29
M  V30 31 1 18 30
M  V30 32 1 19 31
M  V30 END BOND
M  V30 END CTAB
M  END
>  <Dataset>  (642) 
ChEMBL_Kinases

>  <Ligand_Instance>  (642) 
nan

>  <PDB_ID>  (642) 
nan

>  <Standardized_SMILES>  (642) 
COCC(=O)Nc1nnc(-c2ccc(C(=O)O)cc2)s1

>  <Name>  (642) 
nan

>  <Pocket>  (642) 
nan

>  <ATP_Site>  (642) 
nan

>  <Peripheral>  (642) 
nan

>  <Num_H_Atoms_ProtBoundConf>  (642) 
nan

>  <Num_Resolved_Atoms>  (642) 
nan

>  <Num_Not_Resolved_Atoms>  (642) 
nan

$$$$
CHEMBL2087013
     RDKit          3D

  0  0  0  0  0  0  0  0  0  0999 V3000
M  V30 BEGIN CTAB
M  V30 COUNTS 31 33 0 0 0
M  V30 BEGIN ATOM
M  V30 1 O 0.330535 -7.660065 1.452950 0
M  V30 2 C 0.024039 -7.089466 0.375137 0
M  V30 3 O -0.434797 -7.891360 -0.661622 0
M  V30 4 C 0.162260 -5.641964 0.267690 0
M  V30 5 C 0.630642 -4.968139 1.376758 0
M  V30 6 C 0.779241 -3.578670 1.319125 0
M  V30 7 C 0.446426 -2.965095 0.150503 0
M  V30 8 C 0.550118 -1.477808 -0.068676 0
M  V30 9 N 0.370134 -0.604333 -0.891185 0
M  V30 10 N 0.606406 0.640905 -0.642943 0
M  V30 11 C 0.995781 1.119047 0.313482 0
M  V30 12 N 1.282753 2.543592 0.644696 0
M  V30 13 C 0.196816 3.267781 1.189543 0
M  V30 14 O -0.850274 2.547628 1.297227 0
M  V30 15 C 0.271230 4.677643 1.581818 0
M  V30 16 C -0.898183 5.591336 1.162518 0
M  V30 17 C -0.577709 5.306020 2.593892 0
M  V30 18 S 1.163525 -0.468183 1.348775 0
M  V30 19 C -0.024982 -3.588665 -0.984798 0
M  V30 20 C -0.161912 -4.975662 -0.894435 0
M  V30 21 H -0.513809 -8.896840 -0.556273 0
M  V30 22 H 0.890233 -5.479919 2.299448 0
M  V30 23 H 1.139142 -2.975311 2.141393 0
M  V30 24 H 2.206830 3.006295 0.498730 0
M  V30 25 H 1.288449 5.125409 1.408231 0
M  V30 26 H -1.802616 5.093326 0.777661 0
M  V30 27 H -0.618039 6.566300 0.700699 0
M  V30 28 H -1.301150 4.742154 3.223256 0
M  V30 29 H -0.179763 6.192637 3.136277 0
M  V30 30 H -0.291129 -3.118953 -1.912011 0
M  V30 31 H -0.525561 -5.563952 -1.732402 0
M  V30 END ATOM
M  V30 BEGIN BOND
M  V30 1 2 1 2
M  V30 2 1 2 3
M  V30 3 1 2 4
M  V30 4 2 4 5
M  V30 5 1 5 6
M  V30 6 2 6 7
M  V30 7 1 7 8
M  V30 8 2 8 9
M  V30 9 1 9 10
M  V30 10 2 10 11
M  V30 11 1 11 12
M  V30 12 1 12 13
M  V30 13 2 13 14
M  V30 14 1 13 15
M  V30 15 1 15 16
M  V30 16 1 16 17
M  V30 17 1 11 18
M  V30 18 1 7 19
M  V30 19 2 19 20
M  V30 20 1 20 4
M  V30 21 1 18 8
M  V30 22 1 17 15
M  V30 23 1 3 21
M  V30 24 1 5 22
M  V30 25 1 6 23
M  V30 26 1 12 24
M  V30 27 1 15 25
M  V30 28 1 16 26
M  V30 29 1 16 27
M  V30 30 1 17 28
M  V30 31 1 17 29
M  V30 32 1 19 30
M  V30 33 1 20 31
M  V30 END BOND
M  V30 END CTAB
M  END
>  <Dataset>  (643) 
ChEMBL_Kinases

>  <Ligand_Instance>  (643) 
nan

>  <PDB_ID>  (643) 
nan

>  <Standardized_SMILES>  (643) 
O=C(O)c1ccc(-c2nnc(NC(=O)C3CC3)s2)cc1

>  <Name>  (643) 
nan

>  <Pocket>  (643) 
nan

>  <ATP_Site>  (643) 
nan

>  <Peripheral>  (643) 
nan

>  <Num_H_Atoms_ProtBoundConf>  (643) 
nan

>  <Num_Resolved_Atoms>  (643) 
nan

>  <Num_Not_Resolved_Atoms>  (643) 
nan

$$$$
CHEMBL2087014
     RDKit          3D

  0  0  0  0  0  0  0  0  0  0999 V3000
M  V30 BEGIN CTAB
M  V30 COUNTS 34 35 0 0 0
M  V30 BEGIN ATOM
M  V30 1 C 3.788722 -5.063681 3.496345 0
M  V30 2 C 3.238466 -4.088097 2.519308 0
M  V30 3 C 2.070656 -4.315829 1.937063 0
M  V30 4 C 1.374923 -5.594300 2.331788 0
M  V30 5 C 1.360323 -3.496185 0.960531 0
M  V30 6 O 0.236952 -3.798288 0.454705 0
M  V30 7 N 1.962051 -2.298045 0.557926 0
M  V30 8 C 1.312762 -1.377153 -0.446853 0
M  V30 9 N 1.043871 -0.923863 -1.463629 0
M  V30 10 N 0.264088 0.067513 -1.711462 0
M  V30 11 C -0.328814 0.707027 -0.944657 0
M  V30 12 C -1.276704 1.846905 -0.698514 0
M  V30 13 C -1.745948 2.283557 0.499298 0
M  V30 14 C -2.619099 3.363070 0.474468 0
M  V30 15 C -2.984574 3.956608 -0.732250 0
M  V30 16 C -3.906073 5.088981 -0.699740 0
M  V30 17 O -4.342559 5.497399 0.404627 0
M  V30 18 O -4.283551 5.694389 -1.891924 0
M  V30 19 C -2.488985 3.487773 -1.932578 0
M  V30 20 C -1.607485 2.399237 -1.918168 0
M  V30 21 S 0.244510 -0.188510 0.630407 0
M  V30 22 H 4.610804 -4.554832 4.053601 0
M  V30 23 H 3.020105 -5.477716 4.176219 0
M  V30 24 H 4.211805 -5.898213 2.871121 0
M  V30 25 H 3.702440 -3.166471 2.211428 0
M  V30 26 H 0.798152 -5.483656 3.269658 0
M  V30 27 H 2.160378 -6.365493 2.523075 0
M  V30 28 H 0.716714 -5.958723 1.527305 0
M  V30 29 H 2.855314 -1.900497 0.858385 0
M  V30 30 H -1.390339 1.744403 1.348970 0
M  V30 31 H -2.982967 3.695602 1.454918 0
M  V30 32 H -4.936713 6.481837 -1.919245 0
M  V30 33 H -2.798916 3.978646 -2.852379 0
M  V30 34 H -1.281913 2.113118 -2.891504 0
M  V30 END ATOM
M  V30 BEGIN BOND
M  V30 1 1 1 2
M  V30 2 2 2 3
M  V30 3 1 3 4
M  V30 4 1 3 5
M  V30 5 2 5 6
M  V30 6 1 5 7
M  V30 7 1 7 8
M  V30 8 2 8 9
M  V30 9 1 9 10
M  V30 10 2 10 11
M  V30 11 1 11 12
M  V30 12 2 12 13
M  V30 13 1 13 14
M  V30 14 2 14 15
M  V30 15 1 15 16
M  V30 16 2 16 17
M  V30 17 1 16 18
M  V30 18 1 15 19
M  V30 19 2 19 20
M  V30 20 1 11 21
M  V30 21 1 21 8
M  V30 22 1 20 12
M  V30 23 1 1 22
M  V30 24 1 1 23
M  V30 25 1 1 24
M  V30 26 1 2 25
M  V30 27 1 4 26
M  V30 28 1 4 27
M  V30 29 1 4 28
M  V30 30 1 7 29
M  V30 31 1 13 30
M  V30 32 1 14 31
M  V30 33 1 18 32
M  V30 34 1 19 33
M  V30 35 1 20 34
M  V30 END BOND
M  V30 END CTAB
M  END
>  <Dataset>  (644) 
ChEMBL_Kinases

>  <Ligand_Instance>  (644) 
nan

>  <PDB_ID>  (644) 
nan

>  <Standardized_SMILES>  (644) 
C/C=C(\C)C(=O)Nc1nnc(-c2ccc(C(=O)O)cc2)s1

>  <Name>  (644) 
nan

>  <Pocket>  (644) 
nan

>  <ATP_Site>  (644) 
nan

>  <Peripheral>  (644) 
nan

>  <Num_H_Atoms_ProtBoundConf>  (644) 
nan

>  <Num_Resolved_Atoms>  (644) 
nan

>  <Num_Not_Resolved_Atoms>  (644) 
nan

$$$$
CHEMBL1231066
     RDKit          3D

  0  0  0  0  0  0  0  0  0  0999 V3000
M  V30 BEGIN CTAB
M  V30 COUNTS 48 52 0 0 0
M  V30 BEGIN ATOM
M  V30 1 Cl -0.311221 -4.827953 4.431511 0
M  V30 2 C 0.169028 -4.092829 2.918064 0
M  V30 3 C 1.482592 -3.806581 2.573568 0
M  V30 4 N 1.451156 -3.264362 1.368475 0
M  V30 5 C 0.192751 -3.172919 0.891839 0
M  V30 6 C -0.430247 -2.705254 -0.273990 0
M  V30 7 N 0.559204 -2.211972 -1.166447 0
M  V30 8 C 1.009248 -0.909525 -0.754939 0
M  V30 9 C 0.304417 -0.095307 0.128752 0
M  V30 10 C 0.820004 1.130105 0.511546 0
M  V30 11 C 2.030556 1.607371 0.053770 0
M  V30 12 N 2.563634 2.867191 0.445148 0
M  V30 13 C 3.968119 3.242959 0.355586 0
M  V30 14 C 4.382756 3.378288 1.832108 0
M  V30 15 O 3.784107 4.595446 2.225793 0
M  V30 16 C 2.409360 4.461519 2.289048 0
M  V30 17 C 1.789809 3.969784 0.986077 0
M  V30 18 C 2.741399 0.815693 -0.821956 0
M  V30 19 C 2.236276 -0.419512 -1.217183 0
M  V30 20 N -1.775738 -2.771384 -0.422137 0
M  V30 21 C -2.556795 -3.294043 0.557251 0
M  V30 22 C -3.985466 -3.351193 0.334996 0
M  V30 23 C -4.568859 -2.902702 -0.826890 0
M  V30 24 C -5.942836 -3.002884 -0.930087 0
M  V30 25 C -6.810834 -3.522552 0.042942 0
M  V30 26 N -6.148397 -3.933965 1.138580 0
M  V30 27 C -4.824529 -3.862689 1.296114 0
M  V30 28 C -1.933774 -3.746096 1.690910 0
M  V30 29 N -0.592107 -3.699413 1.881607 0
M  V30 30 H 2.326547 -4.003737 3.192724 0
M  V30 31 H 1.007181 -2.598210 -2.029721 0
M  V30 32 H -0.660721 -0.460236 0.501251 0
M  V30 33 H 0.240561 1.748941 1.205683 0
M  V30 34 H 4.076552 4.258405 -0.103275 0
M  V30 35 H 4.599007 2.529278 -0.172506 0
M  V30 36 H 3.873815 2.614951 2.457705 0
M  V30 37 H 5.459688 3.393863 1.964400 0
M  V30 38 H 2.017817 5.515138 2.409763 0
M  V30 39 H 2.035621 3.876754 3.143868 0
M  V30 40 H 0.738788 3.724509 1.175767 0
M  V30 41 H 1.804993 4.835598 0.258309 0
M  V30 42 H 3.679545 1.071581 -1.245411 0
M  V30 43 H 2.793759 -1.052789 -1.914213 0
M  V30 44 H -3.989392 -2.489236 -1.623333 0
M  V30 45 H -6.414065 -2.646380 -1.860546 0
M  V30 46 H -7.869974 -3.549019 -0.152489 0
M  V30 47 H -4.488832 -4.248805 2.260136 0
M  V30 48 H -2.500476 -4.163039 2.486555 0
M  V30 END ATOM
M  V30 BEGIN BOND
M  V30 1 1 1 2
M  V30 2 2 2 3
M  V30 3 1 3 4
M  V30 4 2 4 5
M  V30 5 1 5 6
M  V30 6 1 6 7
M  V30 7 1 7 8
M  V30 8 2 8 9
M  V30 9 1 9 10
M  V30 10 2 10 11
M  V30 11 1 11 12
M  V30 12 1 12 13
M  V30 13 1 13 14
M  V30 14 1 14 15
M  V30 15 1 15 16
M  V30 16 1 16 17
M  V30 17 1 11 18
M  V30 18 2 18 19
M  V30 19 2 6 20
M  V30 20 1 20 21
M  V30 21 1 21 22
M  V30 22 2 22 23
M  V30 23 1 23 24
M  V30 24 2 24 25
M  V30 25 1 25 26
M  V30 26 2 26 27
M  V30 27 2 21 28
M  V30 28 1 28 29
M  V30 29 1 29 2
M  V30 30 1 29 5
M  V30 31 1 19 8
M  V30 32 1 27 22
M  V30 33 1 17 12
M  V30 34 1 3 30
M  V30 35 1 7 31
M  V30 36 1 9 32
M  V30 37 1 10 33
M  V30 38 1 13 34
M  V30 39 1 13 35
M  V30 40 1 14 36
M  V30 41 1 14 37
M  V30 42 1 16 38
M  V30 43 1 16 39
M  V30 44 1 17 40
M  V30 45 1 17 41
M  V30 46 1 18 42
M  V30 47 1 19 43
M  V30 48 1 23 44
M  V30 49 1 24 45
M  V30 50 1 25 46
M  V30 51 1 27 47
M  V30 52 1 28 48
M  V30 END BOND
M  V30 END CTAB
M  END
>  <Dataset>  (645) 
ChEMBL_Kinases

>  <Ligand_Instance>  (645) 
nan

>  <PDB_ID>  (645) 
nan

>  <Standardized_SMILES>  (645) 
Clc1cnc2c(Nc3ccc(N4CCOCC4)cc3)nc(-c3cccnc3)cn12

>  <Name>  (645) 
nan

>  <Pocket>  (645) 
nan

>  <ATP_Site>  (645) 
nan

>  <Peripheral>  (645) 
nan

>  <Num_H_Atoms_ProtBoundConf>  (645) 
nan

>  <Num_Resolved_Atoms>  (645) 
nan

>  <Num_Not_Resolved_Atoms>  (645) 
nan

$$$$
CHEMBL585858
     RDKit          3D

  0  0  0  0  0  0  0  0  0  0999 V3000
M  V30 BEGIN CTAB
M  V30 COUNTS 54 58 0 0 0
M  V30 BEGIN ATOM
M  V30 1 C 0.213145 -1.109604 -1.061254 0
M  V30 2 C 0.569059 -2.482764 -0.688924 0
M  V30 3 C 1.535939 -2.542526 0.270160 0
M  V30 4 N 2.284013 -1.571643 0.998300 0
M  V30 5 C 3.158188 -0.502604 0.707410 0
M  V30 6 C 4.434944 -0.864789 0.298046 0
M  V30 7 C 4.844214 -2.247008 0.174347 0
M  V30 8 N 5.182950 -3.354459 0.085037 0
M  V30 9 C 5.418606 0.068047 -0.024545 0
M  V30 10 N 5.091557 1.362713 0.073192 0
M  V30 11 C 3.873987 1.784265 0.463736 0
M  V30 12 C 2.913560 0.849823 0.779474 0
M  V30 13 C 1.592114 1.250923 1.241082 0
M  V30 14 C 1.172645 2.560727 1.339145 0
M  V30 15 C -0.123289 2.643057 1.804551 0
M  V30 16 C -0.451841 1.315604 1.977790 0
M  V30 17 C -1.743265 0.748373 2.468173 0
M  V30 18 N -2.656810 0.496616 1.371860 0
M  V30 19 C -2.999535 1.659446 0.613714 0
M  V30 20 C -4.467736 1.627136 0.173446 0
M  V30 21 O -5.269459 1.731438 1.286182 0
M  V30 22 C -4.872754 0.916696 2.328514 0
M  V30 23 C -3.850139 -0.106843 1.917912 0
M  V30 24 O 0.558342 0.560005 1.643339 0
M  V30 25 C 1.973375 -3.803756 0.706591 0
M  V30 26 C 1.425432 -4.964521 0.165998 0
M  V30 27 C 0.450229 -4.851350 -0.800945 0
M  V30 28 N -0.280394 -5.724667 -1.523034 0
M  V30 29 C -1.124553 -5.092681 -2.361320 0
M  V30 30 C -0.944737 -3.725950 -2.186406 0
M  V30 31 C 0.026085 -3.628358 -1.224338 0
M  V30 32 H 1.073768 -0.419779 -1.067583 0
M  V30 33 H -0.186880 -1.059444 -2.116836 0
M  V30 34 H -0.628309 -0.804829 -0.424880 0
M  V30 35 H 2.262595 -1.537621 2.054977 0
M  V30 36 H 6.410852 -0.221690 -0.342647 0
M  V30 37 H 3.656955 2.838863 0.527429 0
M  V30 38 H 1.784577 3.422801 1.082458 0
M  V30 39 H -0.750220 3.503954 1.996062 0
M  V30 40 H -2.202702 1.405808 3.229843 0
M  V30 41 H -1.577000 -0.235527 2.953862 0
M  V30 42 H -2.414230 1.635234 -0.334865 0
M  V30 43 H -2.799490 2.609622 1.124074 0
M  V30 44 H -4.634809 2.495241 -0.481548 0
M  V30 45 H -4.686954 0.703361 -0.374008 0
M  V30 46 H -5.770579 0.342341 2.679006 0
M  V30 47 H -4.546226 1.532706 3.191786 0
M  V30 48 H -4.307519 -0.801071 1.204099 0
M  V30 49 H -3.622282 -0.703451 2.836175 0
M  V30 50 H 2.722490 -4.067910 1.449778 0
M  V30 51 H 1.691805 -5.977066 0.432292 0
M  V30 52 H -0.229301 -6.766245 -1.469862 0
M  V30 53 H -1.833392 -5.513475 -3.062908 0
M  V30 54 H -1.456061 -2.906622 -2.695236 0
M  V30 END ATOM
M  V30 BEGIN BOND
M  V30 1 1 1 2
M  V30 2 2 2 3
M  V30 3 1 3 4
M  V30 4 1 4 5
M  V30 5 2 5 6
M  V30 6 1 6 7
M  V30 7 3 7 8
M  V30 8 1 6 9
M  V30 9 2 9 10
M  V30 10 1 10 11
M  V30 11 2 11 12
M  V30 12 1 12 13
M  V30 13 2 13 14
M  V30 14 1 14 15
M  V30 15 2 15 16
M  V30 16 1 16 17
M  V30 17 1 17 18
M  V30 18 1 18 19
M  V30 19 1 19 20
M  V30 20 1 20 21
M  V30 21 1 21 22
M  V30 22 1 22 23
M  V30 23 1 16 24
M  V30 24 1 3 25
M  V30 25 2 25 26
M  V30 26 1 26 27
M  V30 27 1 27 28
M  V30 28 1 28 29
M  V30 29 2 29 30
M  V30 30 1 30 31
M  V30 31 1 31 2
M  V30 32 1 12 5
M  V30 33 1 24 13
M  V30 34 2 31 27
M  V30 35 1 23 18
M  V30 36 1 1 32
M  V30 37 1 1 33
M  V30 38 1 1 34
M  V30 39 1 4 35
M  V30 40 1 9 36
M  V30 41 1 11 37
M  V30 42 1 14 38
M  V30 43 1 15 39
M  V30 44 1 17 40
M  V30 45 1 17 41
M  V30 46 1 19 42
M  V30 47 1 19 43
M  V30 48 1 20 44
M  V30 49 1 20 45
M  V30 50 1 22 46
M  V30 51 1 22 47
M  V30 52 1 23 48
M  V30 53 1 23 49
M  V30 54 1 25 50
M  V30 55 1 26 51
M  V30 56 1 28 52
M  V30 57 1 29 53
M  V30 58 1 30 54
M  V30 END BOND
M  V30 END CTAB
M  END
>  <Dataset>  (646) 
ChEMBL_Kinases

>  <Ligand_Instance>  (646) 
nan

>  <PDB_ID>  (646) 
nan

>  <Standardized_SMILES>  (646) 
Cc1c(Nc2c(C#N)cncc2-c2ccc(CN3CCOCC3)o2)ccc2[nH]ccc12

>  <Name>  (646) 
nan

>  <Pocket>  (646) 
nan

>  <ATP_Site>  (646) 
nan

>  <Peripheral>  (646) 
nan

>  <Num_H_Atoms_ProtBoundConf>  (646) 
nan

>  <Num_Resolved_Atoms>  (646) 
nan

>  <Num_Not_Resolved_Atoms>  (646) 
nan

$$$$
CHEMBL2087971
     RDKit          3D

  0  0  0  0  0  0  0  0  0  0999 V3000
M  V30 BEGIN CTAB
M  V30 COUNTS 48 52 0 0 0
M  V30 BEGIN ATOM
M  V30 1 C -0.662943 -2.356691 4.477153 0
M  V30 2 C 0.214501 -2.193294 3.286235 0
M  V30 3 C 1.518083 -2.637692 3.364340 0
M  V30 4 C 2.409285 -2.532123 2.316595 0
M  V30 5 C 1.994534 -1.956252 1.123272 0
M  V30 6 C 0.686589 -1.521252 1.074169 0
M  V30 7 C 0.086316 -0.886385 -0.119510 0
M  V30 8 N 0.612903 0.237177 -0.569420 0
M  V30 9 C 0.220662 0.834093 -1.511175 0
M  V30 10 N 0.458660 2.000641 -2.301822 0
M  V30 11 C 1.552726 2.861651 -1.927113 0
M  V30 12 C 1.444452 3.431436 -0.574075 0
M  V30 13 C 1.944214 2.918597 0.603355 0
M  V30 14 C 1.801243 3.502282 1.834564 0
M  V30 15 C 1.111140 4.692240 1.936491 0
M  V30 16 C 0.586368 5.251293 0.773060 0
M  V30 17 C -0.122660 6.493092 0.948451 0
M  V30 18 N -0.697093 7.483130 1.094875 0
M  V30 19 C 0.748630 4.637078 -0.450986 0
M  V30 20 S -1.239976 -0.211436 -2.107378 0
M  V30 21 C -1.069589 -1.415895 -0.856870 0
M  V30 22 C -1.708661 -2.632788 -0.443283 0
M  V30 23 C -3.021205 -2.725189 -0.021466 0
M  V30 24 C -3.497106 -3.988662 0.346886 0
M  V30 25 C -2.652850 -5.093795 0.279419 0
M  V30 26 N -2.887769 -6.389986 0.578448 0
M  V30 27 C -1.745504 -7.102570 0.349804 0
M  V30 28 N -0.824387 -6.210974 -0.090609 0
M  V30 29 N -1.360475 -5.001925 -0.136107 0
M  V30 30 C -0.934639 -3.772176 -0.482959 0
M  V30 31 N -0.190710 -1.627491 2.111731 0
M  V30 32 H -1.587516 -1.766838 4.335498 0
M  V30 33 H -0.915618 -3.428887 4.567203 0
M  V30 34 H -0.076986 -1.964667 5.355254 0
M  V30 35 H 1.857100 -3.090354 4.291585 0
M  V30 36 H 3.437443 -2.879891 2.371248 0
M  V30 37 H 2.618425 -1.832477 0.256306 0
M  V30 38 H -0.097288 2.306272 -3.154431 0
M  V30 39 H 1.720058 3.686378 -2.673521 0
M  V30 40 H 2.481156 2.217306 -1.930877 0
M  V30 41 H 2.486010 1.987886 0.512562 0
M  V30 42 H 2.215532 3.051212 2.718066 0
M  V30 43 H 1.013665 5.130288 2.918652 0
M  V30 44 H 0.302731 5.151341 -1.300078 0
M  V30 45 H -3.615728 -1.839352 0.007093 0
M  V30 46 H -4.510997 -4.081064 0.676555 0
M  V30 47 H -1.464265 -8.148070 0.445431 0
M  V30 48 H 0.105563 -3.752428 -0.807892 0
M  V30 END ATOM
M  V30 BEGIN BOND
M  V30 1 1 1 2
M  V30 2 2 2 3
M  V30 3 1 3 4
M  V30 4 2 4 5
M  V30 5 1 5 6
M  V30 6 1 6 7
M  V30 7 1 7 8
M  V30 8 2 8 9
M  V30 9 1 9 10
M  V30 10 1 10 11
M  V30 11 1 11 12
M  V30 12 2 12 13
M  V30 13 1 13 14
M  V30 14 2 14 15
M  V30 15 1 15 16
M  V30 16 1 16 17
M  V30 17 3 17 18
M  V30 18 2 16 19
M  V30 19 1 9 20
M  V30 20 1 20 21
M  V30 21 1 21 22
M  V30 22 1 22 23
M  V30 23 2 23 24
M  V30 24 1 24 25
M  V30 25 2 25 26
M  V30 26 1 26 27
M  V30 27 2 27 28
M  V30 28 1 28 29
M  V30 29 1 29 30
M  V30 30 2 6 31
M  V30 31 1 31 2
M  V30 32 2 21 7
M  V30 33 2 30 22
M  V30 34 1 19 12
M  V30 35 1 29 25
M  V30 36 1 1 32
M  V30 37 1 1 33
M  V30 38 1 1 34
M  V30 39 1 3 35
M  V30 40 1 4 36
M  V30 41 1 5 37
M  V30 42 1 10 38
M  V30 43 1 11 39
M  V30 44 1 11 40
M  V30 45 1 13 41
M  V30 46 1 14 42
M  V30 47 1 15 43
M  V30 48 1 19 44
M  V30 49 1 23 45
M  V30 50 1 24 46
M  V30 51 1 27 47
M  V30 52 1 30 48
M  V30 END BOND
M  V30 END CTAB
M  END
>  <Dataset>  (647) 
ChEMBL_Kinases

>  <Ligand_Instance>  (647) 
nan

>  <PDB_ID>  (647) 
nan

>  <Standardized_SMILES>  (647) 
Cc1cccc(-c2nc(NCc3cccc(C#N)c3)sc2-c2ccc3ncnn3c2)n1

>  <Name>  (647) 
nan

>  <Pocket>  (647) 
nan

>  <ATP_Site>  (647) 
nan

>  <Peripheral>  (647) 
nan

>  <Num_H_Atoms_ProtBoundConf>  (647) 
nan

>  <Num_Resolved_Atoms>  (647) 
nan

>  <Num_Not_Resolved_Atoms>  (647) 
nan

$$$$
CHEMBL2087016
     RDKit          3D

  0  0  0  0  0  0  0  0  0  0999 V3000
M  V30 BEGIN CTAB
M  V30 COUNTS 32 33 0 0 0
M  V30 BEGIN ATOM
M  V30 1 C 2.111502 -5.341954 3.088486 0
M  V30 2 C 3.327948 -4.885154 2.775549 0
M  V30 3 C 4.247165 -4.944240 1.591804 0
M  V30 4 O 4.458661 -3.597479 1.210603 0
M  V30 5 C 3.384985 -2.795731 0.832328 0
M  V30 6 O 2.233348 -3.348488 0.854464 0
M  V30 7 N 3.565875 -1.436551 0.443474 0
M  V30 8 C 2.331922 -0.772140 0.086574 0
M  V30 9 N 1.770441 -0.662991 -0.927272 0
M  V30 10 N 0.657132 -0.039516 -1.143565 0
M  V30 11 C 0.025221 0.525523 -0.335721 0
M  V30 12 C -1.192458 1.318880 -0.081435 0
M  V30 13 C -1.617616 1.843589 1.098118 0
M  V30 14 C -2.805290 2.567365 1.125841 0
M  V30 15 C -3.515915 2.730648 -0.045508 0
M  V30 16 C -4.752927 3.497800 0.041830 0
M  V30 17 O -5.100946 3.961628 1.158111 0
M  V30 18 O -5.584369 3.754388 -1.039751 0
M  V30 19 C -3.097822 2.203277 -1.255538 0
M  V30 20 C -1.899481 1.479423 -1.255244 0
M  V30 21 S 1.102936 0.219114 1.183193 0
M  V30 22 H 1.516486 -5.238856 4.006688 0
M  V30 23 H 1.345358 -5.927141 2.588589 0
M  V30 24 H 3.723445 -4.338478 3.606777 0
M  V30 25 H 5.215970 -5.404598 1.848819 0
M  V30 26 H 3.750000 -5.544802 0.791718 0
M  V30 27 H 4.526738 -1.039352 0.444390 0
M  V30 28 H -0.974700 1.647137 1.943291 0
M  V30 29 H -3.110878 2.968954 2.081297 0
M  V30 30 H -6.609445 3.790180 -0.942907 0
M  V30 31 H -3.693714 2.363457 -2.135407 0
M  V30 32 H -1.641685 1.101809 -2.232224 0
M  V30 END ATOM
M  V30 BEGIN BOND
M  V30 1 2 1 2
M  V30 2 1 2 3
M  V30 3 1 3 4
M  V30 4 1 4 5
M  V30 5 2 5 6
M  V30 6 1 5 7
M  V30 7 1 7 8
M  V30 8 2 8 9
M  V30 9 1 9 10
M  V30 10 2 10 11
M  V30 11 1 11 12
M  V30 12 2 12 13
M  V30 13 1 13 14
M  V30 14 2 14 15
M  V30 15 1 15 16
M  V30 16 2 16 17
M  V30 17 1 16 18
M  V30 18 1 15 19
M  V30 19 2 19 20
M  V30 20 1 11 21
M  V30 21 1 21 8
M  V30 22 1 20 12
M  V30 23 1 1 22
M  V30 24 1 1 23
M  V30 25 1 2 24
M  V30 26 1 3 25
M  V30 27 1 3 26
M  V30 28 1 7 27
M  V30 29 1 13 28
M  V30 30 1 14 29
M  V30 31 1 18 30
M  V30 32 1 19 31
M  V30 33 1 20 32
M  V30 END BOND
M  V30 END CTAB
M  END
>  <Dataset>  (648) 
ChEMBL_Kinases

>  <Ligand_Instance>  (648) 
nan

>  <PDB_ID>  (648) 
nan

>  <Standardized_SMILES>  (648) 
C=CCOC(=O)Nc1nnc(-c2ccc(C(=O)O)cc2)s1

>  <Name>  (648) 
nan

>  <Pocket>  (648) 
nan

>  <ATP_Site>  (648) 
nan

>  <Peripheral>  (648) 
nan

>  <Num_H_Atoms_ProtBoundConf>  (648) 
nan

>  <Num_Resolved_Atoms>  (648) 
nan

>  <Num_Not_Resolved_Atoms>  (648) 
nan

$$$$
CHEMBL1230714
     RDKit          3D

  0  0  0  0  0  0  0  0  0  0999 V3000
M  V30 BEGIN CTAB
M  V30 COUNTS 46 48 0 0 0
M  V30 BEGIN ATOM
M  V30 1 C 0.257933 -4.752329 -0.526507 0
M  V30 2 O -0.557357 -4.656388 0.624482 0
M  V30 3 C -0.567555 -3.457697 1.318024 0
M  V30 4 C 0.178361 -2.355821 0.939823 0
M  V30 5 C 0.099261 -1.203124 1.699589 0
M  V30 6 C 0.868533 -0.019450 1.333790 0
M  V30 7 C 0.962715 0.480137 0.050681 0
M  V30 8 C 1.713528 1.596543 -0.158355 0
M  V30 9 C 1.781987 2.084433 -1.529806 0
M  V30 10 C 1.722857 1.210587 -2.592395 0
M  V30 11 C 1.791197 1.713675 -3.896243 0
M  V30 12 C 1.917577 3.084391 -4.105572 0
M  V30 13 C 1.976933 3.962892 -3.033568 0
M  V30 14 O 2.102699 5.326554 -3.246921 0
M  V30 15 C 1.908905 3.458640 -1.753681 0
M  V30 16 C 2.406885 2.295741 0.808002 0
M  V30 17 N 2.299314 1.788813 2.050245 0
M  V30 18 C 1.560867 0.678036 2.300601 0
M  V30 19 N 1.576122 0.307134 3.665032 0
M  V30 20 C -0.704859 -1.150562 2.810536 0
M  V30 21 C -1.451621 -2.265214 3.182885 0
M  V30 22 O -2.264294 -2.192072 4.317335 0
M  V30 23 C -2.314488 -1.005291 5.057863 0
M  V30 24 C -1.378824 -3.419148 2.430722 0
M  V30 25 O -2.154808 -4.489463 2.867043 0
M  V30 26 C -3.483746 -4.645504 2.398672 0
M  V30 27 H 0.156203 -3.889426 -1.188984 0
M  V30 28 H -0.050743 -5.675737 -1.089688 0
M  V30 29 H 1.339878 -4.923867 -0.259861 0
M  V30 30 H 0.803455 -2.415277 0.065648 0
M  V30 31 H 0.437973 -0.030907 -0.744691 0
M  V30 32 H 1.624685 0.151936 -2.396900 0
M  V30 33 H 1.743281 1.013977 -4.722759 0
M  V30 34 H 1.969589 3.461568 -5.124966 0
M  V30 35 H 1.707286 6.022952 -2.603613 0
M  V30 36 H 1.954906 4.141962 -0.915295 0
M  V30 37 H 2.988172 3.175187 0.592850 0
M  V30 38 H 1.993907 -0.098101 4.506401 0
M  V30 39 H 1.208771 0.207984 4.634343 0
M  V30 40 H -0.796453 -0.287847 3.421522 0
M  V30 41 H -3.106545 -1.106108 5.837507 0
M  V30 42 H -2.553233 -0.110543 4.445203 0
M  V30 43 H -1.340518 -0.862452 5.594785 0
M  V30 44 H -3.879319 -5.569420 2.875059 0
M  V30 45 H -4.115864 -3.787366 2.647158 0
M  V30 46 H -3.445261 -4.840496 1.301910 0
M  V30 END ATOM
M  V30 BEGIN BOND
M  V30 1 1 1 2
M  V30 2 1 2 3
M  V30 3 2 3 4
M  V30 4 1 4 5
M  V30 5 1 5 6
M  V30 6 2 6 7
M  V30 7 1 7 8
M  V30 8 1 8 9
M  V30 9 2 9 10
M  V30 10 1 10 11
M  V30 11 2 11 12
M  V30 12 1 12 13
M  V30 13 1 13 14
M  V30 14 2 13 15
M  V30 15 2 8 16
M  V30 16 1 16 17
M  V30 17 2 17 18
M  V30 18 1 18 19
M  V30 19 2 5 20
M  V30 20 1 20 21
M  V30 21 1 21 22
M  V30 22 1 22 23
M  V30 23 2 21 24
M  V30 24 1 24 25
M  V30 25 1 25 26
M  V30 26 1 24 3
M  V30 27 1 18 6
M  V30 28 1 15 9
M  V30 29 1 1 27
M  V30 30 1 1 28
M  V30 31 1 1 29
M  V30 32 1 4 30
M  V30 33 1 7 31
M  V30 34 1 10 32
M  V30 35 1 11 33
M  V30 36 1 12 34
M  V30 37 1 14 35
M  V30 38 1 15 36
M  V30 39 1 16 37
M  V30 40 1 19 38
M  V30 41 1 19 39
M  V30 42 1 20 40
M  V30 43 1 23 41
M  V30 44 1 23 42
M  V30 45 1 23 43
M  V30 46 1 26 44
M  V30 47 1 26 45
M  V30 48 1 26 46
M  V30 END BOND
M  V30 END CTAB
M  END
>  <Dataset>  (649) 
ChEMBL_Kinases

>  <Ligand_Instance>  (649) 
nan

>  <PDB_ID>  (649) 
nan

>  <Standardized_SMILES>  (649) 
COc1cc(-c2cc(-c3cccc(O)c3)cnc2N)cc(OC)c1OC

>  <Name>  (649) 
nan

>  <Pocket>  (649) 
nan

>  <ATP_Site>  (649) 
nan

>  <Peripheral>  (649) 
nan

>  <Num_H_Atoms_ProtBoundConf>  (649) 
nan

>  <Num_Resolved_Atoms>  (649) 
nan

>  <Num_Not_Resolved_Atoms>  (649) 
nan

$$$$
CHEMBL573462
     RDKit          3D

  0  0  0  0  0  0  0  0  0  0999 V3000
M  V30 BEGIN CTAB
M  V30 COUNTS 37 40 0 0 0
M  V30 BEGIN ATOM
M  V30 1 O 3.135478 0.899059 3.495206 0
M  V30 2 C 2.175848 0.373716 2.882661 0
M  V30 3 N 2.113615 -0.911914 2.506961 0
M  V30 4 C 1.004977 -1.297229 1.858795 0
M  V30 5 C 0.878943 -2.733074 1.411419 0
M  V30 6 N 1.394707 -2.904533 0.128409 0
M  V30 7 C 1.374412 -4.181545 -0.482100 0
M  V30 8 C 0.441252 -4.065919 -1.694344 0
M  V30 9 C 0.548116 -2.656585 -2.272468 0
M  V30 10 N 1.867150 -2.085146 -1.988508 0
M  V30 11 C 2.019305 -1.856812 -0.552966 0
M  V30 12 N -0.024247 -0.511993 1.563876 0
M  V30 13 C -0.081300 0.792544 1.886042 0
M  V30 14 C 1.088825 1.172078 2.562868 0
M  V30 15 S 0.821231 2.959654 2.911259 0
M  V30 16 C -0.762863 3.026782 2.150933 0
M  V30 17 C -1.612421 4.097352 2.020899 0
M  V30 18 C -2.825977 3.951954 1.385594 0
M  V30 19 C -3.068201 2.678036 0.924595 0
M  V30 20 Cl -4.624366 2.462966 0.102249 0
M  V30 21 C -2.231460 1.595877 1.045218 0
M  V30 22 C -1.011167 1.772460 1.692208 0
M  V30 23 H 2.911420 -1.538633 2.730723 0
M  V30 24 H -0.185266 -3.063594 1.457931 0
M  V30 25 H 1.435950 -3.330340 2.160510 0
M  V30 26 H 2.355429 -4.538587 -0.853010 0
M  V30 27 H 0.905469 -4.900820 0.211917 0
M  V30 28 H 0.733143 -4.811288 -2.440795 0
M  V30 29 H -0.625907 -4.244865 -1.379679 0
M  V30 30 H -0.210025 -2.015978 -1.740665 0
M  V30 31 H 0.390065 -2.634840 -3.353150 0
M  V30 32 H 1.995419 -1.243961 -2.558752 0
M  V30 33 H 3.111149 -1.792413 -0.366107 0
M  V30 34 H 1.547476 -0.888249 -0.284622 0
M  V30 35 H -1.294806 5.042810 2.430768 0
M  V30 36 H -3.515550 4.772393 1.267021 0
M  V30 37 H -2.578176 0.654213 0.622074 0
M  V30 END ATOM
M  V30 BEGIN BOND
M  V30 1 2 1 2
M  V30 2 1 2 3
M  V30 3 1 3 4
M  V30 4 1 4 5
M  V30 5 1 5 6
M  V30 6 1 6 7
M  V30 7 1 7 8
M  V30 8 1 8 9
M  V30 9 1 9 10
M  V30 10 1 10 11
M  V30 11 2 4 12
M  V30 12 1 12 13
M  V30 13 2 13 14
M  V30 14 1 14 15
M  V30 15 1 15 16
M  V30 16 2 16 17
M  V30 17 1 17 18
M  V30 18 2 18 19
M  V30 19 1 19 20
M  V30 20 1 19 21
M  V30 21 2 21 22
M  V30 22 1 14 2
M  V30 23 1 22 16
M  V30 24 1 11 6
M  V30 25 1 22 13
M  V30 26 1 3 23
M  V30 27 1 5 24
M  V30 28 1 5 25
M  V30 29 1 7 26
M  V30 30 1 7 27
M  V30 31 1 8 28
M  V30 32 1 8 29
M  V30 33 1 9 30
M  V30 34 1 9 31
M  V30 35 1 10 32
M  V30 36 1 11 33
M  V30 37 1 11 34
M  V30 38 1 17 35
M  V30 39 1 18 36
M  V30 40 1 21 37
M  V30 END BOND
M  V30 END CTAB
M  END
>  <Dataset>  (650) 
ChEMBL_Kinases

>  <Ligand_Instance>  (650) 
nan

>  <PDB_ID>  (650) 
nan

>  <Standardized_SMILES>  (650) 
O=c1[nH]c(CN2CCCNC2)nc2c1sc1ccc(Cl)cc12

>  <Name>  (650) 
nan

>  <Pocket>  (650) 
nan

>  <ATP_Site>  (650) 
nan

>  <Peripheral>  (650) 
nan

>  <Num_H_Atoms_ProtBoundConf>  (650) 
nan

>  <Num_Resolved_Atoms>  (650) 
nan

>  <Num_Not_Resolved_Atoms>  (650) 
nan

$$$$
CHEMBL209769
     RDKit          3D

  0  0  0  0  0  0  0  0  0  0999 V3000
M  V30 BEGIN CTAB
M  V30 COUNTS 53 54 0 0 0
M  V30 BEGIN ATOM
M  V30 1 C -2.139426 -3.739290 5.976739 0
M  V30 2 C -1.227737 -3.605947 4.801445 0
M  V30 3 O -1.524963 -4.589451 3.797258 0
M  V30 4 C -0.730415 -4.547843 2.658394 0
M  V30 5 N 0.247503 -3.679947 2.462363 0
M  V30 6 C 1.047034 -3.590669 1.386199 0
M  V30 7 N 2.054194 -2.554677 1.391260 0
M  V30 8 C 1.513141 -1.373396 0.817026 0
M  V30 9 O 0.316698 -1.309499 0.384285 0
M  V30 10 C 2.344673 -0.133721 0.696162 0
M  V30 11 C 1.565096 0.962279 0.065531 0
M  V30 12 C 1.021429 2.036861 0.742742 0
M  V30 13 C 0.311120 3.004144 0.059239 0
M  V30 14 O -0.208578 4.056859 0.798987 0
M  V30 15 C -0.034041 4.164184 2.208538 0
M  V30 16 C 0.158693 2.869206 -1.318132 0
M  V30 17 N -0.585155 3.907900 -1.941823 0
M  V30 18 C -1.991698 3.604780 -1.981078 0
M  V30 19 C -2.945904 4.587695 -2.605613 0
M  V30 20 O -2.295168 2.491224 -1.462326 0
M  V30 21 C 0.702757 1.794431 -1.994016 0
M  V30 22 C 1.423995 0.808699 -1.312273 0
M  V30 23 O 1.954509 -0.255282 -2.028615 0
M  V30 24 C 1.772917 -0.350440 -3.434790 0
M  V30 25 C 0.874860 -4.474777 0.340700 0
M  V30 26 C -0.132317 -5.380797 0.524498 0
M  V30 27 N -0.389926 -6.334922 -0.500216 0
M  V30 28 C -0.937591 -5.455268 1.631427 0
M  V30 29 C -1.985175 -6.438057 1.762800 0
M  V30 30 N -2.812685 -7.236661 1.877096 0
M  V30 31 H -2.867316 -2.910889 5.969777 0
M  V30 32 H -1.562599 -3.644309 6.930465 0
M  V30 33 H -2.645715 -4.727658 5.919609 0
M  V30 34 H -0.182242 -3.782250 5.152978 0
M  V30 35 H -1.294259 -2.573386 4.409258 0
M  V30 36 H 3.061494 -2.477862 1.711730 0
M  V30 37 H 3.315074 -0.314692 0.196333 0
M  V30 38 H 2.585249 0.197926 1.734607 0
M  V30 39 H 1.179526 2.081771 1.828990 0
M  V30 40 H -0.702507 4.950592 2.586451 0
M  V30 41 H 1.029748 4.416075 2.397551 0
M  V30 42 H -0.298986 3.201031 2.692920 0
M  V30 43 H -0.258673 4.814888 -2.353650 0
M  V30 44 H -2.940462 4.438602 -3.715451 0
M  V30 45 H -2.678773 5.623067 -2.352193 0
M  V30 46 H -3.974145 4.331254 -2.268013 0
M  V30 47 H 0.531339 1.775532 -3.064729 0
M  V30 48 H 1.981090 0.636715 -3.937759 0
M  V30 49 H 2.413719 -1.145943 -3.852695 0
M  V30 50 H 0.720515 -0.621434 -3.640456 0
M  V30 51 H 1.515678 -4.402889 -0.521437 0
M  V30 52 H -0.670356 -6.835156 -1.351010 0
M  V30 53 H -0.039174 -7.282587 -0.209478 0
M  V30 END ATOM
M  V30 BEGIN BOND
M  V30 1 1 1 2
M  V30 2 1 2 3
M  V30 3 1 3 4
M  V30 4 2 4 5
M  V30 5 1 5 6
M  V30 6 1 6 7
M  V30 7 1 7 8
M  V30 8 2 8 9
M  V30 9 1 8 10
M  V30 10 1 10 11
M  V30 11 2 11 12
M  V30 12 1 12 13
M  V30 13 1 13 14
M  V30 14 1 14 15
M  V30 15 2 13 16
M  V30 16 1 16 17
M  V30 17 1 17 18
M  V30 18 1 18 19
M  V30 19 2 18 20
M  V30 20 1 16 21
M  V30 21 2 21 22
M  V30 22 1 22 23
M  V30 23 1 23 24
M  V30 24 2 6 25
M  V30 25 1 25 26
M  V30 26 1 26 27
M  V30 27 2 26 28
M  V30 28 1 28 29
M  V30 29 3 29 30
M  V30 30 1 28 4
M  V30 31 1 22 11
M  V30 32 1 1 31
M  V30 33 1 1 32
M  V30 34 1 1 33
M  V30 35 1 2 34
M  V30 36 1 2 35
M  V30 37 1 7 36
M  V30 38 1 10 37
M  V30 39 1 10 38
M  V30 40 1 12 39
M  V30 41 1 15 40
M  V30 42 1 15 41
M  V30 43 1 15 42
M  V30 44 1 17 43
M  V30 45 1 19 44
M  V30 46 1 19 45
M  V30 47 1 19 46
M  V30 48 1 21 47
M  V30 49 1 24 48
M  V30 50 1 24 49
M  V30 51 1 24 50
M  V30 52 1 25 51
M  V30 53 1 27 52
M  V30 54 1 27 53
M  V30 END BOND
M  V30 END CTAB
M  END
>  <Dataset>  (651) 
ChEMBL_Kinases

>  <Ligand_Instance>  (651) 
nan

>  <PDB_ID>  (651) 
nan

>  <Standardized_SMILES>  (651) 
CCOc1nc(NC(=O)Cc2cc(OC)c(NC(C)=O)cc2OC)cc(N)c1C#N

>  <Name>  (651) 
nan

>  <Pocket>  (651) 
nan

>  <ATP_Site>  (651) 
nan

>  <Peripheral>  (651) 
nan

>  <Num_H_Atoms_ProtBoundConf>  (651) 
nan

>  <Num_Resolved_Atoms>  (651) 
nan

>  <Num_Not_Resolved_Atoms>  (651) 
nan

$$$$
CHEMBL2087017
     RDKit          3D

  0  0  0  0  0  0  0  0  0  0999 V3000
M  V30 BEGIN CTAB
M  V30 COUNTS 34 35 0 0 0
M  V30 BEGIN ATOM
M  V30 1 C 1.215243 -6.274115 2.033481 0
M  V30 2 C 1.734188 -6.111612 0.644594 0
M  V30 3 C 3.096153 -5.455343 0.597293 0
M  V30 4 O 3.106594 -4.178824 1.156179 0
M  V30 5 C 2.351212 -3.094174 0.731443 0
M  V30 6 O 1.562910 -3.242399 -0.260063 0
M  V30 7 N 2.516601 -1.895102 1.439747 0
M  V30 8 C 1.716843 -0.720779 1.001391 0
M  V30 9 N 1.970436 0.095306 0.234406 0
M  V30 10 N 1.247577 1.110029 -0.126003 0
M  V30 11 C 0.179192 1.351840 0.300214 0
M  V30 12 C -0.987858 2.317532 0.231147 0
M  V30 13 C -0.778011 3.329186 -0.660069 0
M  V30 14 C -1.796488 4.256007 -0.784221 0
M  V30 15 C -2.977782 4.209560 -0.073314 0
M  V30 16 C -4.035231 5.202553 -0.225415 0
M  V30 17 O -5.089496 5.095289 0.459057 0
M  V30 18 O -3.821859 6.237328 -1.135926 0
M  V30 19 C -3.112815 3.155744 0.807257 0
M  V30 20 C -2.137776 2.194472 0.982510 0
M  V30 21 S -0.006808 -0.092369 1.507353 0
M  V30 22 H 0.370564 -7.015829 1.992877 0
M  V30 23 H 0.741310 -5.316595 2.366311 0
M  V30 24 H 1.941857 -6.668764 2.755919 0
M  V30 25 H 1.805713 -7.100092 0.147542 0
M  V30 26 H 0.987774 -5.498880 0.080438 0
M  V30 27 H 3.494187 -5.433714 -0.417746 0
M  V30 28 H 3.766688 -6.085434 1.232189 0
M  V30 29 H 3.184179 -1.822182 2.256852 0
M  V30 30 H 0.105614 3.430275 -1.242422 0
M  V30 31 H -1.680358 5.082796 -1.480918 0
M  V30 32 H -4.465507 7.010577 -1.166576 0
M  V30 33 H -4.010355 3.031622 1.415142 0
M  V30 34 H -2.196098 1.352606 1.657573 0
M  V30 END ATOM
M  V30 BEGIN BOND
M  V30 1 1 1 2
M  V30 2 1 2 3
M  V30 3 1 3 4
M  V30 4 1 4 5
M  V30 5 2 5 6
M  V30 6 1 5 7
M  V30 7 1 7 8
M  V30 8 2 8 9
M  V30 9 1 9 10
M  V30 10 2 10 11
M  V30 11 1 11 12
M  V30 12 2 12 13
M  V30 13 1 13 14
M  V30 14 2 14 15
M  V30 15 1 15 16
M  V30 16 2 16 17
M  V30 17 1 16 18
M  V30 18 1 15 19
M  V30 19 2 19 20
M  V30 20 1 11 21
M  V30 21 1 21 8
M  V30 22 1 20 12
M  V30 23 1 1 22
M  V30 24 1 1 23
M  V30 25 1 1 24
M  V30 26 1 2 25
M  V30 27 1 2 26
M  V30 28 1 3 27
M  V30 29 1 3 28
M  V30 30 1 7 29
M  V30 31 1 13 30
M  V30 32 1 14 31
M  V30 33 1 18 32
M  V30 34 1 19 33
M  V30 35 1 20 34
M  V30 END BOND
M  V30 END CTAB
M  END
>  <Dataset>  (652) 
ChEMBL_Kinases

>  <Ligand_Instance>  (652) 
nan

>  <PDB_ID>  (652) 
nan

>  <Standardized_SMILES>  (652) 
CCCOC(=O)Nc1nnc(-c2ccc(C(=O)O)cc2)s1

>  <Name>  (652) 
nan

>  <Pocket>  (652) 
nan

>  <ATP_Site>  (652) 
nan

>  <Peripheral>  (652) 
nan

>  <Num_H_Atoms_ProtBoundConf>  (652) 
nan

>  <Num_Resolved_Atoms>  (652) 
nan

>  <Num_Not_Resolved_Atoms>  (652) 
nan

$$$$
CHEMBL599163
     RDKit          3D

  0  0  0  0  0  0  0  0  0  0999 V3000
M  V30 BEGIN CTAB
M  V30 COUNTS 52 55 0 0 0
M  V30 BEGIN ATOM
M  V30 1 O 2.077832 -5.367912 3.691270 0
M  V30 2 C 1.368114 -4.226624 4.023976 0
M  V30 3 C 0.291589 -3.904362 3.026763 0
M  V30 4 N 0.840905 -3.677699 1.678772 0
M  V30 5 C 1.584071 -2.464136 1.764062 0
M  V30 6 C 1.809533 -1.809921 0.418125 0
M  V30 7 N 0.465553 -1.504381 -0.094662 0
M  V30 8 C 0.136854 -0.156494 -0.181189 0
M  V30 9 N 1.095714 0.783362 -0.131695 0
M  V30 10 C 0.824447 2.091812 -0.257462 0
M  V30 11 C 1.969896 2.992018 -0.181944 0
M  V30 12 C 3.234295 2.474761 0.008527 0
M  V30 13 C 4.361964 3.296881 0.087232 0
M  V30 14 N 4.249146 4.643277 -0.022260 0
M  V30 15 C 3.029344 5.162467 -0.207281 0
M  V30 16 C 1.908861 4.365372 -0.286904 0
M  V30 17 C -0.462291 2.550672 -0.445868 0
M  V30 18 N -1.463139 1.619362 -0.500200 0
M  V30 19 C -1.137493 0.311105 -0.367276 0
M  V30 20 N -2.304339 -0.493733 -0.399340 0
M  V30 21 C -3.053001 -1.301386 0.583698 0
M  V30 22 C -4.393972 -0.564214 0.555904 0
M  V30 23 C -4.620467 -0.535214 -0.945581 0
M  V30 24 C -3.249298 -0.832571 -1.476043 0
M  V30 25 C -0.119351 -2.759719 -0.389190 0
M  V30 26 C -0.309461 -3.637848 0.807543 0
M  V30 27 H 2.543618 -5.248346 2.830876 0
M  V30 28 H 2.106878 -3.419330 4.172411 0
M  V30 29 H 0.857873 -4.388484 4.994385 0
M  V30 30 H -0.384174 -4.774265 2.980174 0
M  V30 31 H -0.272083 -2.997010 3.276305 0
M  V30 32 H 1.062574 -1.752969 2.451335 0
M  V30 33 H 2.599732 -2.701546 2.140492 0
M  V30 34 H 2.311709 -2.515483 -0.262479 0
M  V30 35 H 2.408989 -0.878753 0.562014 0
M  V30 36 H 3.431128 1.401083 0.109603 0
M  V30 37 H 5.350185 2.857582 0.237710 0
M  V30 38 H 2.950186 6.254232 -0.293861 0
M  V30 39 H 0.938154 4.811828 -0.436052 0
M  V30 40 H -0.676184 3.599726 -0.547133 0
M  V30 41 H -2.653301 -1.183953 1.604763 0
M  V30 42 H -3.147952 -2.334337 0.250201 0
M  V30 43 H -5.182053 -1.103280 1.108497 0
M  V30 44 H -4.185080 0.448846 0.922666 0
M  V30 45 H -5.017091 0.440369 -1.297725 0
M  V30 46 H -5.326458 -1.370208 -1.164076 0
M  V30 47 H -3.214784 -1.910851 -1.738169 0
M  V30 48 H -3.016418 -0.184635 -2.360989 0
M  V30 49 H -1.079386 -2.637424 -0.905775 0
M  V30 50 H 0.522607 -3.289011 -1.174675 0
M  V30 51 H -0.463172 -4.679833 0.407919 0
M  V30 52 H -1.236462 -3.395368 1.356294 0
M  V30 END ATOM
M  V30 BEGIN BOND
M  V30 1 1 1 2
M  V30 2 1 2 3
M  V30 3 1 3 4
M  V30 4 1 4 5
M  V30 5 1 5 6
M  V30 6 1 6 7
M  V30 7 1 7 8
M  V30 8 2 8 9
M  V30 9 1 9 10
M  V30 10 1 10 11
M  V30 11 2 11 12
M  V30 12 1 12 13
M  V30 13 2 13 14
M  V30 14 1 14 15
M  V30 15 2 15 16
M  V30 16 2 10 17
M  V30 17 1 17 18
M  V30 18 2 18 19
M  V30 19 1 19 20
M  V30 20 1 20 21
M  V30 21 1 21 22
M  V30 22 1 22 23
M  V30 23 1 23 24
M  V30 24 1 7 25
M  V30 25 1 25 26
M  V30 26 1 26 4
M  V30 27 1 19 8
M  V30 28 1 24 20
M  V30 29 1 16 11
M  V30 30 1 1 27
M  V30 31 1 2 28
M  V30 32 1 2 29
M  V30 33 1 3 30
M  V30 34 1 3 31
M  V30 35 1 5 32
M  V30 36 1 5 33
M  V30 37 1 6 34
M  V30 38 1 6 35
M  V30 39 1 12 36
M  V30 40 1 13 37
M  V30 41 1 15 38
M  V30 42 1 16 39
M  V30 43 1 17 40
M  V30 44 1 21 41
M  V30 45 1 21 42
M  V30 46 1 22 43
M  V30 47 1 22 44
M  V30 48 1 23 45
M  V30 49 1 23 46
M  V30 50 1 24 47
M  V30 51 1 24 48
M  V30 52 1 25 49
M  V30 53 1 25 50
M  V30 54 1 26 51
M  V30 55 1 26 52
M  V30 END BOND
M  V30 END CTAB
M  END
>  <Dataset>  (653) 
ChEMBL_Kinases

>  <Ligand_Instance>  (653) 
nan

>  <PDB_ID>  (653) 
nan

>  <Standardized_SMILES>  (653) 
OCCN1CCN(c2nc(-c3ccncc3)cnc2N2CCCC2)CC1

>  <Name>  (653) 
nan

>  <Pocket>  (653) 
nan

>  <ATP_Site>  (653) 
nan

>  <Peripheral>  (653) 
nan

>  <Num_H_Atoms_ProtBoundConf>  (653) 
nan

>  <Num_Resolved_Atoms>  (653) 
nan

>  <Num_Not_Resolved_Atoms>  (653) 
nan

$$$$
CHEMBL573463
     RDKit          3D

  0  0  0  0  0  0  0  0  0  0999 V3000
M  V30 BEGIN CTAB
M  V30 COUNTS 47 51 0 0 0
M  V30 BEGIN ATOM
M  V30 1 O 2.583733 2.141876 5.205272 0
M  V30 2 C 2.185473 1.782359 4.085026 0
M  V30 3 N 2.864710 2.148478 2.983344 0
M  V30 4 C 2.324853 1.691916 1.840176 0
M  V30 5 C 3.025031 2.059388 0.577939 0
M  V30 6 N 4.020522 1.114656 0.187586 0
M  V30 7 C 3.510358 -0.210298 -0.042508 0
M  V30 8 C 2.596375 -0.094443 -1.237329 0
M  V30 9 C 3.291025 1.020172 -2.024899 0 CFG=2
M  V30 10 O 3.785885 0.550615 -3.243422 0
M  V30 11 C 4.461196 1.463554 -1.152739 0
M  V30 12 N 1.223302 0.943346 1.739343 0
M  V30 13 C 0.514736 0.554192 2.800385 0
M  V30 14 C 1.069053 1.023794 3.983931 0
M  V30 15 S 0.028404 0.431980 5.292715 0
M  V30 16 C -1.153930 -0.459070 4.115251 0
M  V30 17 C -2.286765 -1.192209 4.453204 0
M  V30 18 C -2.966501 -1.735537 3.393634 0
M  V30 19 C -2.473405 -1.507791 2.131320 0
M  V30 20 C -3.186668 -2.079424 0.979877 0
M  V30 21 C -4.274578 -2.799108 1.076802 0
M  V30 22 C -4.979734 -3.366023 -0.084478 0
M  V30 23 C -4.264223 -4.540161 -0.792254 0
M  V30 24 C -4.547079 -3.194738 -1.471663 0
M  V30 25 C -1.351528 -0.777919 1.843834 0
M  V30 26 C -0.616118 -0.201648 2.848930 0
M  V30 27 H 3.714056 2.718840 2.978101 0
M  V30 28 H 3.521026 3.042906 0.709376 0
M  V30 29 H 2.241852 2.223116 -0.188637 0
M  V30 30 H 3.065758 -0.697965 0.827871 0
M  V30 31 H 4.364526 -0.840504 -0.378544 0
M  V30 32 H 2.585943 -0.993989 -1.876778 0
M  V30 33 H 1.556782 0.184256 -0.988868 0
M  V30 34 H 2.578997 1.842087 -2.195464 0
M  V30 35 H 3.629123 1.216948 -3.974023 0
M  V30 36 H 4.732534 2.513553 -1.282434 0
M  V30 37 H 5.332050 0.803141 -1.379319 0
M  V30 38 H -2.541802 -1.279574 5.477494 0
M  V30 39 H -3.838757 -2.299835 3.656533 0
M  V30 40 H -2.850385 -1.937957 -0.036675 0
M  V30 41 H -4.707142 -3.012360 2.026457 0
M  V30 42 H -6.084283 -3.554162 0.046845 0
M  V30 43 H -4.877317 -5.400016 -1.103000 0
M  V30 44 H -3.217238 -4.736743 -0.464080 0
M  V30 45 H -3.648131 -2.631182 -1.753872 0
M  V30 46 H -5.306417 -3.216207 -2.283235 0
M  V30 47 H -1.045218 -0.656581 0.814569 0
M  V30 END ATOM
M  V30 BEGIN BOND
M  V30 1 2 1 2
M  V30 2 1 2 3
M  V30 3 1 3 4
M  V30 4 1 4 5
M  V30 5 1 5 6
M  V30 6 1 6 7
M  V30 7 1 7 8
M  V30 8 1 8 9
M  V30 9 1 9 10
M  V30 10 1 9 11
M  V30 11 2 4 12
M  V30 12 1 12 13
M  V30 13 2 13 14
M  V30 14 1 14 15
M  V30 15 1 15 16
M  V30 16 2 16 17
M  V30 17 1 17 18
M  V30 18 2 18 19
M  V30 19 1 19 20
M  V30 20 2 20 21
M  V30 21 1 21 22
M  V30 22 1 22 23
M  V30 23 1 23 24
M  V30 24 1 19 25
M  V30 25 2 25 26
M  V30 26 1 14 2
M  V30 27 1 26 16
M  V30 28 1 11 6
M  V30 29 1 26 13
M  V30 30 1 24 22
M  V30 31 1 3 27
M  V30 32 1 5 28
M  V30 33 1 5 29
M  V30 34 1 7 30
M  V30 35 1 7 31
M  V30 36 1 8 32
M  V30 37 1 8 33
M  V30 38 1 9 34 CFG=3
M  V30 39 1 10 35
M  V30 40 1 11 36
M  V30 41 1 11 37
M  V30 42 1 17 38
M  V30 43 1 18 39
M  V30 44 1 20 40
M  V30 45 1 21 41
M  V30 46 1 22 42
M  V30 47 1 23 43
M  V30 48 1 23 44
M  V30 49 1 24 45
M  V30 50 1 24 46
M  V30 51 1 25 47
M  V30 END BOND
M  V30 END CTAB
M  END
>  <Dataset>  (654) 
ChEMBL_Kinases

>  <Ligand_Instance>  (654) 
nan

>  <PDB_ID>  (654) 
nan

>  <Standardized_SMILES>  (654) 
O=c1[nH]c(CN2CC[C@H](O)C2)nc2c1sc1ccc(/C=C/C3CC3)cc12

>  <Name>  (654) 
nan

>  <Pocket>  (654) 
nan

>  <ATP_Site>  (654) 
nan

>  <Peripheral>  (654) 
nan

>  <Num_H_Atoms_ProtBoundConf>  (654) 
nan

>  <Num_Resolved_Atoms>  (654) 
nan

>  <Num_Not_Resolved_Atoms>  (654) 
nan

$$$$
CHEMBL1094505
     RDKit          3D

  0  0  0  0  0  0  0  0  0  0999 V3000
M  V30 BEGIN CTAB
M  V30 COUNTS 55 59 0 0 0
M  V30 BEGIN ATOM
M  V30 1 N 2.764195 -0.605895 5.875912 0
M  V30 2 C 2.470351 0.564938 6.647429 0
M  V30 3 O 3.145605 -0.219706 7.363981 0
M  V30 4 C 1.677512 1.658235 6.030580 0
M  V30 5 N 1.298960 1.351897 4.666630 0
M  V30 6 C 2.083561 1.688888 3.618074 0
M  V30 7 C 1.373635 1.228182 2.504286 0
M  V30 8 C 1.865694 1.390220 1.152460 0
M  V30 9 C 2.169852 0.394057 0.222839 0
M  V30 10 C 2.633889 0.732106 -1.029123 0
M  V30 11 N 2.804189 2.024482 -1.384040 0
M  V30 12 C 2.525421 3.031965 -0.523261 0
M  V30 13 N 2.621484 4.360542 -0.667977 0
M  V30 14 C 2.226284 4.947833 0.477880 0
M  V30 15 C 1.880027 3.929657 1.342426 0
M  V30 16 C 2.054738 2.693778 0.746903 0
M  V30 17 C 0.206489 0.638708 2.897225 0
M  V30 18 C -0.775372 0.048715 2.002570 0
M  V30 19 C -0.919198 -1.316273 2.280029 0
M  V30 20 C -1.816109 -2.095346 1.538416 0
M  V30 21 C -2.545042 -1.464190 0.531621 0
M  V30 22 N -3.463198 -2.294852 -0.216069 0
M  V30 23 C -2.793189 -2.867518 -1.355523 0
M  V30 24 O -1.582577 -2.713026 -1.715801 0
M  V30 25 N -3.490867 -3.721202 -2.239656 0
M  V30 26 C -2.982924 -4.365756 -3.403128 0
M  V30 27 C -2.448016 -5.623477 -3.111221 0
M  V30 28 C -1.898468 -6.430925 -4.084389 0
M  V30 29 C -1.882004 -5.971581 -5.383517 0
M  V30 30 C -2.403530 -4.737936 -5.687738 0
M  V30 31 C -2.948279 -3.940429 -4.715851 0
M  V30 32 C -2.387534 -0.117733 0.275318 0
M  V30 33 C -1.501702 0.642448 1.010678 0
M  V30 34 N 0.200255 0.738015 4.256535 0
M  V30 35 H 2.565924 -1.296319 5.093658 0
M  V30 36 H 2.483133 -1.239648 5.070914 0
M  V30 37 H 2.230153 2.618709 6.086784 0
M  V30 38 H 0.757258 1.758974 6.660206 0
M  V30 39 H 3.039282 2.194139 3.599173 0
M  V30 40 H 2.001731 -0.616157 0.595761 0
M  V30 41 H 2.851524 -0.084808 -1.703863 0
M  V30 42 H 2.938240 4.914964 -1.493412 0
M  V30 43 H 2.170652 6.019188 0.729218 0
M  V30 44 H 1.521309 4.079729 2.348736 0
M  V30 45 H -0.401806 -1.895354 3.036249 0
M  V30 46 H -1.958545 -3.162797 1.722406 0
M  V30 47 H -4.473632 -2.562066 -0.115226 0
M  V30 48 H -4.511127 -3.948786 -2.075175 0
M  V30 49 H -2.418424 -6.069734 -2.105289 0
M  V30 50 H -1.473639 -7.407926 -3.909886 0
M  V30 51 H -1.465485 -6.553437 -6.199863 0
M  V30 52 H -2.409421 -4.339708 -6.701400 0
M  V30 53 H -3.386039 -2.957796 -4.830187 0
M  V30 54 H -2.960010 0.352748 -0.506992 0
M  V30 55 H -1.320129 1.676330 0.880939 0
M  V30 END ATOM
M  V30 BEGIN BOND
M  V30 1 1 1 2
M  V30 2 2 2 3
M  V30 3 1 2 4
M  V30 4 1 4 5
M  V30 5 1 5 6
M  V30 6 2 6 7
M  V30 7 1 7 8
M  V30 8 2 8 9
M  V30 9 1 9 10
M  V30 10 2 10 11
M  V30 11 1 11 12
M  V30 12 1 12 13
M  V30 13 1 13 14
M  V30 14 2 14 15
M  V30 15 1 15 16
M  V30 16 1 7 17
M  V30 17 1 17 18
M  V30 18 2 18 19
M  V30 19 1 19 20
M  V30 20 2 20 21
M  V30 21 1 21 22
M  V30 22 1 22 23
M  V30 23 2 23 24
M  V30 24 1 23 25
M  V30 25 1 25 26
M  V30 26 2 26 27
M  V30 27 1 27 28
M  V30 28 2 28 29
M  V30 29 1 29 30
M  V30 30 2 30 31
M  V30 31 1 21 32
M  V30 32 2 32 33
M  V30 33 2 17 34
M  V30 34 1 34 5
M  V30 35 1 16 8
M  V30 36 1 33 18
M  V30 37 2 16 12
M  V30 38 1 31 26
M  V30 39 1 1 35
M  V30 40 1 1 36
M  V30 41 1 4 37
M  V30 42 1 4 38
M  V30 43 1 6 39
M  V30 44 1 9 40
M  V30 45 1 10 41
M  V30 46 1 13 42
M  V30 47 1 14 43
M  V30 48 1 15 44
M  V30 49 1 19 45
M  V30 50 1 20 46
M  V30 51 1 22 47
M  V30 52 1 25 48
M  V30 53 1 27 49
M  V30 54 1 28 50
M  V30 55 1 29 51
M  V30 56 1 30 52
M  V30 57 1 31 53
M  V30 58 1 32 54
M  V30 59 1 33 55
M  V30 END BOND
M  V30 END CTAB
M  END
>  <Dataset>  (655) 
ChEMBL_Kinases

>  <Ligand_Instance>  (655) 
nan

>  <PDB_ID>  (655) 
nan

>  <Standardized_SMILES>  (655) 
NC(=O)Cn1cc(-c2ccnc3[nH]ccc23)c(-c2ccc(NC(=O)Nc3ccccc3)cc2)n1

>  <Name>  (655) 
nan

>  <Pocket>  (655) 
nan

>  <ATP_Site>  (655) 
nan

>  <Peripheral>  (655) 
nan

>  <Num_H_Atoms_ProtBoundConf>  (655) 
nan

>  <Num_Resolved_Atoms>  (655) 
nan

>  <Num_Not_Resolved_Atoms>  (655) 
nan

$$$$
CHEMBL2087018
     RDKit          3D

  0  0  0  0  0  0  0  0  0  0999 V3000
M  V30 BEGIN CTAB
M  V30 COUNTS 34 35 0 0 0
M  V30 BEGIN ATOM
M  V30 1 C 3.024650 -3.929790 5.353895 0
M  V30 2 C 1.622567 -3.404406 5.126441 0
M  V30 3 C 1.002300 -3.188631 6.478682 0
M  V30 4 O 1.717645 -2.235108 4.360002 0
M  V30 5 C 1.199413 -2.047756 3.107946 0
M  V30 6 O 0.553032 -2.897775 2.442594 0
M  V30 7 N 1.483788 -0.738321 2.627057 0
M  V30 8 C 1.003716 -0.317363 1.263924 0
M  V30 9 N 1.515134 -0.399240 0.246883 0
M  V30 10 N 1.063953 -0.022415 -0.906740 0
M  V30 11 C 0.013656 0.482364 -1.085133 0
M  V30 12 C -0.930626 1.062959 -2.085298 0
M  V30 13 C -2.155652 1.582458 -1.841733 0
M  V30 14 C -2.871431 2.075428 -2.939110 0
M  V30 15 C -2.321272 2.018459 -4.202991 0
M  V30 16 C -3.144469 2.559704 -5.296294 0
M  V30 17 O -4.270363 3.026859 -5.011466 0
M  V30 18 O -2.730113 2.575168 -6.621772 0
M  V30 19 C -1.070217 1.485323 -4.434700 0
M  V30 20 C -0.355398 0.992786 -3.336715 0
M  V30 21 S -0.615494 0.504511 0.694877 0
M  V30 22 H 3.199173 -4.886252 4.815131 0
M  V30 23 H 3.222687 -4.129923 6.426434 0
M  V30 24 H 3.807717 -3.179271 5.060565 0
M  V30 25 H 1.053507 -4.143410 4.529774 0
M  V30 26 H 1.186660 -4.122258 7.064717 0
M  V30 27 H 1.595346 -2.414403 7.009098 0
M  V30 28 H -0.075865 -3.032171 6.466608 0
M  V30 29 H 1.999062 0.013553 3.095239 0
M  V30 30 H -2.480002 1.573514 -0.818764 0
M  V30 31 H -3.852731 2.488364 -2.721993 0
M  V30 32 H -3.304077 3.035538 -7.344021 0
M  V30 33 H -0.692655 1.470706 -5.460407 0
M  V30 34 H 0.604751 0.597316 -3.604485 0
M  V30 END ATOM
M  V30 BEGIN BOND
M  V30 1 1 1 2
M  V30 2 1 2 3
M  V30 3 1 2 4
M  V30 4 1 4 5
M  V30 5 2 5 6
M  V30 6 1 5 7
M  V30 7 1 7 8
M  V30 8 2 8 9
M  V30 9 1 9 10
M  V30 10 2 10 11
M  V30 11 1 11 12
M  V30 12 2 12 13
M  V30 13 1 13 14
M  V30 14 2 14 15
M  V30 15 1 15 16
M  V30 16 2 16 17
M  V30 17 1 16 18
M  V30 18 1 15 19
M  V30 19 2 19 20
M  V30 20 1 11 21
M  V30 21 1 21 8
M  V30 22 1 20 12
M  V30 23 1 1 22
M  V30 24 1 1 23
M  V30 25 1 1 24
M  V30 26 1 2 25
M  V30 27 1 3 26
M  V30 28 1 3 27
M  V30 29 1 3 28
M  V30 30 1 7 29
M  V30 31 1 13 30
M  V30 32 1 14 31
M  V30 33 1 18 32
M  V30 34 1 19 33
M  V30 35 1 20 34
M  V30 END BOND
M  V30 END CTAB
M  END
>  <Dataset>  (656) 
ChEMBL_Kinases

>  <Ligand_Instance>  (656) 
nan

>  <PDB_ID>  (656) 
nan

>  <Standardized_SMILES>  (656) 
CC(C)OC(=O)Nc1nnc(-c2ccc(C(=O)O)cc2)s1

>  <Name>  (656) 
nan

>  <Pocket>  (656) 
nan

>  <ATP_Site>  (656) 
nan

>  <Peripheral>  (656) 
nan

>  <Num_H_Atoms_ProtBoundConf>  (656) 
nan

>  <Num_Resolved_Atoms>  (656) 
nan

>  <Num_Not_Resolved_Atoms>  (656) 
nan

$$$$
CHEMBL2087015
     RDKit          3D

  0  0  0  0  0  0  0  0  0  0999 V3000
M  V30 BEGIN CTAB
M  V30 COUNTS 35 36 0 0 0
M  V30 BEGIN ATOM
M  V30 1 C 0.704696 -5.135263 1.331969 0
M  V30 2 O 1.904879 -5.285636 1.017230 0
M  V30 3 C 3.096491 -5.434882 0.704689 0
M  V30 4 C 4.126036 -4.330976 0.813892 0
M  V30 5 O 3.935349 -3.188987 0.080954 0
M  V30 6 C 2.967946 -2.253321 0.182819 0
M  V30 7 O 2.044927 -2.269688 1.013901 0
M  V30 8 N 3.019089 -1.187505 -0.722985 0
M  V30 9 C 2.081622 -0.091298 -0.777477 0
M  V30 10 N 1.857457 0.917505 -1.388511 0
M  V30 11 N 0.875436 1.713794 -1.164794 0
M  V30 12 C 0.051711 1.540946 -0.304093 0
M  V30 13 C -1.171528 2.261445 0.189334 0
M  V30 14 C -1.490413 3.435463 -0.459630 0
M  V30 15 C -2.605780 4.127911 -0.039257 0
M  V30 16 C -3.329317 3.597188 1.005571 0
M  V30 17 C -4.488382 4.396420 1.380241 0
M  V30 18 O -4.786291 5.466275 0.799533 0
M  V30 19 O -5.531215 4.428373 2.255273 0
M  V30 20 C -3.047767 2.429901 1.681422 0
M  V30 21 C -1.910063 1.759573 1.224440 0
M  V30 22 S 0.662262 -0.027173 0.415862 0
M  V30 23 H -0.105443 -5.265397 0.538564 0
M  V30 24 H 0.352982 -4.159703 1.821427 0
M  V30 25 H 0.376144 -5.970186 2.073351 0
M  V30 26 H 3.166300 -5.850138 -0.393555 0
M  V30 27 H 3.556815 -6.365682 1.256521 0
M  V30 28 H 5.147825 -4.788003 0.652012 0
M  V30 29 H 4.169589 -4.087791 1.929001 0
M  V30 30 H 3.730778 -1.073906 -1.445241 0
M  V30 31 H -0.877134 3.785181 -1.266653 0
M  V30 32 H -2.849180 5.035625 -0.543575 0
M  V30 33 H -6.467771 4.097699 1.972134 0
M  V30 34 H -3.658747 2.068373 2.495435 0
M  V30 35 H -1.615139 0.832408 1.699487 0
M  V30 END ATOM
M  V30 BEGIN BOND
M  V30 1 1 1 2
M  V30 2 1 2 3
M  V30 3 1 3 4
M  V30 4 1 4 5
M  V30 5 1 5 6
M  V30 6 2 6 7
M  V30 7 1 6 8
M  V30 8 1 8 9
M  V30 9 2 9 10
M  V30 10 1 10 11
M  V30 11 2 11 12
M  V30 12 1 12 13
M  V30 13 2 13 14
M  V30 14 1 14 15
M  V30 15 2 15 16
M  V30 16 1 16 17
M  V30 17 2 17 18
M  V30 18 1 17 19
M  V30 19 1 16 20
M  V30 20 2 20 21
M  V30 21 1 12 22
M  V30 22 1 22 9
M  V30 23 1 21 13
M  V30 24 1 1 23
M  V30 25 1 1 24
M  V30 26 1 1 25
M  V30 27 1 3 26
M  V30 28 1 3 27
M  V30 29 1 4 28
M  V30 30 1 4 29
M  V30 31 1 8 30
M  V30 32 1 14 31
M  V30 33 1 15 32
M  V30 34 1 19 33
M  V30 35 1 20 34
M  V30 36 1 21 35
M  V30 END BOND
M  V30 END CTAB
M  END
>  <Dataset>  (657) 
ChEMBL_Kinases

>  <Ligand_Instance>  (657) 
nan

>  <PDB_ID>  (657) 
nan

>  <Standardized_SMILES>  (657) 
COCCOC(=O)Nc1nnc(-c2ccc(C(=O)O)cc2)s1

>  <Name>  (657) 
nan

>  <Pocket>  (657) 
nan

>  <ATP_Site>  (657) 
nan

>  <Peripheral>  (657) 
nan

>  <Num_H_Atoms_ProtBoundConf>  (657) 
nan

>  <Num_Resolved_Atoms>  (657) 
nan

>  <Num_Not_Resolved_Atoms>  (657) 
nan

$$$$
CHEMBL2087970
     RDKit          3D

  0  0  0  0  0  0  0  0  0  0999 V3000
M  V30 BEGIN CTAB
M  V30 COUNTS 51 55 0 0 0
M  V30 BEGIN ATOM
M  V30 1 C 2.223957 -4.654524 3.320568 0
M  V30 2 C 1.237063 -3.526591 3.179725 0
M  V30 3 C 0.280434 -3.210341 4.117933 0
M  V30 4 C -0.550899 -2.155401 3.849961 0
M  V30 5 C -0.413274 -1.449889 2.672380 0
M  V30 6 C 0.549007 -1.771590 1.734830 0
M  V30 7 C 0.782666 -1.088226 0.459845 0
M  V30 8 N 1.204766 0.138087 0.226856 0
M  V30 9 C 1.393120 0.658585 -0.746859 0
M  V30 10 N 1.840252 1.907751 -1.426665 0
M  V30 11 C 2.206138 3.008496 -0.612326 0
M  V30 12 C 1.106734 3.675310 0.122685 0
M  V30 13 C 0.559887 4.730902 -0.624608 0
M  V30 14 C -0.472310 5.524603 -0.170248 0
M  V30 15 C -1.008584 5.283379 1.081276 0
M  V30 16 C -0.459041 4.238474 1.806581 0
M  V30 17 O -1.009164 4.022669 3.041729 0
M  V30 18 C -2.101342 3.174536 3.309520 0
M  V30 19 F -2.345826 3.230643 4.667763 0
M  V30 20 F -3.263148 3.701156 2.720716 0
M  V30 21 F -1.915465 1.872529 2.931796 0
M  V30 22 C 0.571959 3.447628 1.350263 0
M  V30 23 S 0.938596 -0.702804 -1.992190 0
M  V30 24 C 0.530403 -1.855954 -0.608943 0
M  V30 25 C 0.077393 -3.204827 -1.015244 0
M  V30 26 C 0.781462 -4.370345 -0.794018 0
M  V30 27 C 0.221067 -5.572640 -1.232999 0
M  V30 28 C -1.012307 -5.591840 -1.874911 0
M  V30 29 N -1.734399 -6.629408 -2.376313 0
M  V30 30 C -2.864063 -6.100261 -2.896393 0
M  V30 31 N -2.815044 -4.771631 -2.707715 0
M  V30 32 N -1.698937 -4.429981 -2.087750 0
M  V30 33 C -1.138631 -3.263265 -1.653235 0
M  V30 34 N 1.348375 -2.822595 2.042601 0
M  V30 35 H 3.172217 -4.221379 3.648877 0
M  V30 36 H 2.312029 -5.200305 2.349280 0
M  V30 37 H 1.895781 -5.387051 4.083330 0
M  V30 38 H 0.231609 -3.808034 5.017249 0
M  V30 39 H -1.317988 -1.871580 4.561035 0
M  V30 40 H -1.033670 -0.608877 2.394846 0
M  V30 41 H 1.898316 2.020995 -2.478237 0
M  V30 42 H 2.793658 3.735118 -1.213719 0
M  V30 43 H 2.952258 2.643884 0.169152 0
M  V30 44 H 0.894809 5.026617 -1.633064 0
M  V30 45 H -0.894578 6.340785 -0.748161 0
M  V30 46 H -1.817084 5.889981 1.461613 0
M  V30 47 H 1.022521 2.629880 1.883178 0
M  V30 48 H 1.720612 -4.296990 -0.298813 0
M  V30 49 H 0.789909 -6.490926 -1.051818 0
M  V30 50 H -3.694729 -6.589147 -3.386272 0
M  V30 51 H -1.728810 -2.382315 -1.850429 0
M  V30 END ATOM
M  V30 BEGIN BOND
M  V30 1 1 1 2
M  V30 2 2 2 3
M  V30 3 1 3 4
M  V30 4 2 4 5
M  V30 5 1 5 6
M  V30 6 1 6 7
M  V30 7 1 7 8
M  V30 8 2 8 9
M  V30 9 1 9 10
M  V30 10 1 10 11
M  V30 11 1 11 12
M  V30 12 2 12 13
M  V30 13 1 13 14
M  V30 14 2 14 15
M  V30 15 1 15 16
M  V30 16 1 16 17
M  V30 17 1 17 18
M  V30 18 1 18 19
M  V30 19 1 18 20
M  V30 20 1 18 21
M  V30 21 2 16 22
M  V30 22 1 9 23
M  V30 23 1 23 24
M  V30 24 1 24 25
M  V30 25 1 25 26
M  V30 26 2 26 27
M  V30 27 1 27 28
M  V30 28 2 28 29
M  V30 29 1 29 30
M  V30 30 2 30 31
M  V30 31 1 31 32
M  V30 32 1 32 33
M  V30 33 2 6 34
M  V30 34 1 34 2
M  V30 35 2 24 7
M  V30 36 2 33 25
M  V30 37 1 22 12
M  V30 38 1 32 28
M  V30 39 1 1 35
M  V30 40 1 1 36
M  V30 41 1 1 37
M  V30 42 1 3 38
M  V30 43 1 4 39
M  V30 44 1 5 40
M  V30 45 1 10 41
M  V30 46 1 11 42
M  V30 47 1 11 43
M  V30 48 1 13 44
M  V30 49 1 14 45
M  V30 50 1 15 46
M  V30 51 1 22 47
M  V30 52 1 26 48
M  V30 53 1 27 49
M  V30 54 1 30 50
M  V30 55 1 33 51
M  V30 END BOND
M  V30 END CTAB
M  END
>  <Dataset>  (658) 
ChEMBL_Kinases

>  <Ligand_Instance>  (658) 
nan

>  <PDB_ID>  (658) 
nan

>  <Standardized_SMILES>  (658) 
Cc1cccc(-c2nc(NCc3cccc(OC(F)(F)F)c3)sc2-c2ccc3ncnn3c2)n1

>  <Name>  (658) 
nan

>  <Pocket>  (658) 
nan

>  <ATP_Site>  (658) 
nan

>  <Peripheral>  (658) 
nan

>  <Num_H_Atoms_ProtBoundConf>  (658) 
nan

>  <Num_Resolved_Atoms>  (658) 
nan

>  <Num_Not_Resolved_Atoms>  (658) 
nan

$$$$
CHEMBL573045
     RDKit          3D

  0  0  0  0  0  0  0  0  0  0999 V3000
M  V30 BEGIN CTAB
M  V30 COUNTS 47 51 0 0 0
M  V30 BEGIN ATOM
M  V30 1 N -3.307285 -7.912767 1.614105 0
M  V30 2 C -2.736282 -7.012301 1.142482 0
M  V30 3 C -2.025459 -5.911617 0.538052 0
M  V30 4 C -0.877561 -6.207810 -0.174509 0
M  V30 5 C -0.157510 -5.190417 -0.773800 0
M  V30 6 C -0.609737 -3.869425 -0.645583 0
M  V30 7 C 0.187635 -2.814046 -1.299294 0
M  V30 8 C 0.825456 -3.178137 -2.447962 0
M  V30 9 C 1.578012 -2.236544 -3.091180 0
M  V30 10 C 1.605282 -0.951362 -2.465105 0
M  V30 11 S 2.494271 0.579034 -3.006863 0
M  V30 12 C 1.900549 1.605636 -1.581079 0
M  V30 13 C 2.167498 2.925156 -1.298965 0
M  V30 14 O 2.913320 3.501930 -2.120386 0
M  V30 15 N 1.609340 3.435564 -0.196778 0
M  V30 16 C 0.846000 2.592064 0.512913 0
M  V30 17 C 0.215631 3.150734 1.746315 0
M  V30 18 N 1.018017 3.007699 2.920054 0
M  V30 19 C 0.231183 3.606768 4.012241 0
M  V30 20 C -0.810096 2.554570 4.344322 0
M  V30 21 C -0.196984 1.254884 3.927782 0 CFG=2
M  V30 22 O -0.042990 0.431539 5.041804 0
M  V30 23 C 1.152242 1.665479 3.391746 0
M  V30 24 N 0.618062 1.329903 0.202025 0
M  V30 25 C 1.128019 0.722574 -0.877947 0
M  V30 26 C 0.930266 -0.567488 -1.250407 0
M  V30 27 C 0.207673 -1.587331 -0.692685 0
M  V30 28 C -1.760350 -3.621995 0.074862 0
M  V30 29 C -2.507323 -4.605672 0.687570 0
M  V30 30 H -0.517007 -7.218079 -0.282256 0
M  V30 31 H 0.734002 -5.450745 -1.322986 0
M  V30 32 H 0.820850 -4.120590 -2.930052 0
M  V30 33 H 2.163284 -2.255624 -3.981298 0
M  V30 34 H 1.813235 4.423856 0.008385 0
M  V30 35 H 0.003940 4.215194 1.592604 0
M  V30 36 H -0.731084 2.618619 1.897784 0
M  V30 37 H 0.841117 3.917094 4.858818 0
M  V30 38 H -0.318173 4.492403 3.631382 0
M  V30 39 H -1.115449 2.559454 5.390178 0
M  V30 40 H -1.720438 2.695972 3.697557 0
M  V30 41 H -0.757334 0.743689 3.115091 0
M  V30 42 H -0.793727 0.521593 5.677571 0
M  V30 43 H 1.850306 1.682850 4.261590 0
M  V30 44 H 1.553178 0.943048 2.654458 0
M  V30 45 H -0.348982 -1.441118 0.220722 0
M  V30 46 H -2.079629 -2.586301 0.152558 0
M  V30 47 H -3.404880 -4.382202 1.245763 0
M  V30 END ATOM
M  V30 BEGIN BOND
M  V30 1 3 1 2
M  V30 2 1 2 3
M  V30 3 2 3 4
M  V30 4 1 4 5
M  V30 5 2 5 6
M  V30 6 1 6 7
M  V30 7 2 7 8
M  V30 8 1 8 9
M  V30 9 2 9 10
M  V30 10 1 10 11
M  V30 11 1 11 12
M  V30 12 1 12 13
M  V30 13 2 13 14
M  V30 14 1 13 15
M  V30 15 1 15 16
M  V30 16 1 16 17
M  V30 17 1 17 18
M  V30 18 1 18 19
M  V30 19 1 19 20
M  V30 20 1 20 21
M  V30 21 1 21 22
M  V30 22 1 21 23
M  V30 23 2 16 24
M  V30 24 1 24 25
M  V30 25 1 25 26
M  V30 26 2 26 27
M  V30 27 1 6 28
M  V30 28 2 28 29
M  V30 29 1 29 3
M  V30 30 1 27 7
M  V30 31 1 26 10
M  V30 32 2 25 12
M  V30 33 1 23 18
M  V30 34 1 4 30
M  V30 35 1 5 31
M  V30 36 1 8 32
M  V30 37 1 9 33
M  V30 38 1 15 34
M  V30 39 1 17 35
M  V30 40 1 17 36
M  V30 41 1 19 37
M  V30 42 1 19 38
M  V30 43 1 20 39
M  V30 44 1 20 40
M  V30 45 1 21 41 CFG=3
M  V30 46 1 22 42
M  V30 47 1 23 43
M  V30 48 1 23 44
M  V30 49 1 27 45
M  V30 50 1 28 46
M  V30 51 1 29 47
M  V30 END BOND
M  V30 END CTAB
M  END
>  <Dataset>  (659) 
ChEMBL_Kinases

>  <Ligand_Instance>  (659) 
nan

>  <PDB_ID>  (659) 
nan

>  <Standardized_SMILES>  (659) 
N#Cc1ccc(-c2ccc3sc4c(=O)[nH]c(CN5CC[C@H](O)C5)nc4c3c2)cc1

>  <Name>  (659) 
nan

>  <Pocket>  (659) 
nan

>  <ATP_Site>  (659) 
nan

>  <Peripheral>  (659) 
nan

>  <Num_H_Atoms_ProtBoundConf>  (659) 
nan

>  <Num_Resolved_Atoms>  (659) 
nan

>  <Num_Not_Resolved_Atoms>  (659) 
nan

$$$$
CHEMBL4641263
     RDKit          3D

  0  0  0  0  0  0  0  0  0  0999 V3000
M  V30 BEGIN CTAB
M  V30 COUNTS 57 60 0 0 0
M  V30 BEGIN ATOM
M  V30 1 C 0.442208 0.701773 6.379362 0
M  V30 2 O 0.166937 0.627884 4.994565 0
M  V30 3 C 1.144186 0.698561 4.020679 0
M  V30 4 C 2.486695 0.846918 4.258690 0
M  V30 5 C 3.434395 0.913100 3.229767 0
M  V30 6 N 4.779048 1.077154 3.657616 0
M  V30 7 S 6.107539 0.209542 2.968377 0
M  V30 8 C 6.296232 0.577484 1.241110 0
M  V30 9 O 5.949515 -1.275988 3.189377 0
M  V30 10 O 7.372671 0.623525 3.660458 0
M  V30 11 C 2.951361 0.820661 1.943325 0
M  V30 12 C 1.605912 0.670936 1.680707 0
M  V30 13 C 0.707919 0.610911 2.726116 0
M  V30 14 N -0.690437 0.467883 2.415697 0
M  V30 15 C -1.281572 0.330456 1.131030 0
M  V30 16 N -1.632238 1.279192 0.228106 0
M  V30 17 C -2.196920 0.950009 -0.951470 0
M  V30 18 C -2.443324 -0.339349 -1.296748 0
M  V30 19 C -2.084929 -1.298356 -0.374261 0
M  V30 20 N -1.517115 -0.974719 0.811912 0
M  V30 21 N -2.245919 -2.714354 -0.492675 0
M  V30 22 C -2.114097 -3.498342 0.731692 0
M  V30 23 C -2.524341 -3.497472 -1.645107 0
M  V30 24 C -2.217760 -4.840349 -1.511501 0
M  V30 25 C -2.430649 -5.735715 -2.530470 0
M  V30 26 C -2.965818 -5.245790 -3.703436 0
M  V30 27 C -3.281588 -3.909686 -3.865027 0
M  V30 28 C -3.057964 -3.034756 -2.828013 0
M  V30 29 C -3.446309 -1.673232 -3.175223 0
M  V30 30 O -4.266154 -1.539623 -4.127690 0
M  V30 31 N -3.048256 -0.401992 -2.606042 0
M  V30 32 C -3.257578 0.801468 -3.349884 0
M  V30 33 C -2.109013 1.197349 -4.248677 0
M  V30 34 F -2.354585 2.371531 -4.942192 0
M  V30 35 F -0.875825 1.166914 -3.636046 0
M  V30 36 F -1.957468 0.252220 -5.286108 0
M  V30 37 H 0.686630 -0.327186 6.729732 0
M  V30 38 H -0.489405 1.093641 6.877096 0
M  V30 39 H 1.301279 1.380908 6.617759 0
M  V30 40 H 2.793253 0.912129 5.306320 0
M  V30 41 H 4.954568 1.774348 4.442879 0
M  V30 42 H 5.969150 1.637127 1.059448 0
M  V30 43 H 5.795507 -0.153872 0.576722 0
M  V30 44 H 7.375682 0.563290 0.921798 0
M  V30 45 H 3.704069 0.873573 1.172006 0
M  V30 46 H 1.290024 0.603981 0.631876 0
M  V30 47 H -1.373148 0.459346 3.201352 0
M  V30 48 H -2.423080 1.778096 -1.566827 0
M  V30 49 H -1.090742 -3.897691 0.881530 0
M  V30 50 H -2.274681 -2.787439 1.596177 0
M  V30 51 H -2.918154 -4.251538 0.850515 0
M  V30 52 H -1.792241 -5.181010 -0.555852 0
M  V30 53 H -2.186071 -6.794499 -2.419047 0
M  V30 54 H -3.140290 -5.956987 -4.525929 0
M  V30 55 H -3.705266 -3.523706 -4.793206 0
M  V30 56 H -3.819997 1.606319 -2.888306 0
M  V30 57 H -4.039832 0.461667 -4.122966 0
M  V30 END ATOM
M  V30 BEGIN BOND
M  V30 1 1 1 2
M  V30 2 1 2 3
M  V30 3 2 3 4
M  V30 4 1 4 5
M  V30 5 1 5 6
M  V30 6 1 6 7
M  V30 7 1 7 8
M  V30 8 2 7 9
M  V30 9 2 7 10
M  V30 10 2 5 11
M  V30 11 1 11 12
M  V30 12 2 12 13
M  V30 13 1 13 14
M  V30 14 1 14 15
M  V30 15 2 15 16
M  V30 16 1 16 17
M  V30 17 2 17 18
M  V30 18 1 18 19
M  V30 19 2 19 20
M  V30 20 1 19 21
M  V30 21 1 21 22
M  V30 22 1 21 23
M  V30 23 2 23 24
M  V30 24 1 24 25
M  V30 25 2 25 26
M  V30 26 1 26 27
M  V30 27 2 27 28
M  V30 28 1 28 29
M  V30 29 2 29 30
M  V30 30 1 29 31
M  V30 31 1 31 32
M  V30 32 1 32 33
M  V30 33 1 33 34
M  V30 34 1 33 35
M  V30 35 1 33 36
M  V30 36 1 13 3
M  V30 37 1 20 15
M  V30 38 1 28 23
M  V30 39 1 31 18
M  V30 40 1 1 37
M  V30 41 1 1 38
M  V30 42 1 1 39
M  V30 43 1 4 40
M  V30 44 1 6 41
M  V30 45 1 8 42
M  V30 46 1 8 43
M  V30 47 1 8 44
M  V30 48 1 11 45
M  V30 49 1 12 46
M  V30 50 1 14 47
M  V30 51 1 17 48
M  V30 52 1 22 49
M  V30 53 1 22 50
M  V30 54 1 22 51
M  V30 55 1 24 52
M  V30 56 1 25 53
M  V30 57 1 26 54
M  V30 58 1 27 55
M  V30 59 1 32 56
M  V30 60 1 32 57
M  V30 END BOND
M  V30 END CTAB
M  END
>  <Dataset>  (660) 
ChEMBL_Kinases

>  <Ligand_Instance>  (660) 
nan

>  <PDB_ID>  (660) 
nan

>  <Standardized_SMILES>  (660) 
COc1cc(NS(C)(=O)=O)ccc1Nc1ncc2c(n1)N(C)c1ccccc1C(=O)N2CC(F)(F)F

>  <Name>  (660) 
nan

>  <Pocket>  (660) 
nan

>  <ATP_Site>  (660) 
nan

>  <Peripheral>  (660) 
nan

>  <Num_H_Atoms_ProtBoundConf>  (660) 
nan

>  <Num_Resolved_Atoms>  (660) 
nan

>  <Num_Not_Resolved_Atoms>  (660) 
nan

$$$$
CHEMBL1083152
     RDKit          3D

  0  0  0  0  0  0  0  0  0  0999 V3000
M  V30 BEGIN CTAB
M  V30 COUNTS 48 50 0 0 0
M  V30 BEGIN ATOM
M  V30 1 C 2.054925 -3.584680 5.127367 0
M  V30 2 N 2.457364 -4.414665 3.979394 0
M  V30 3 C 3.029655 -3.858284 2.725189 0
M  V30 4 N 3.813863 -3.547438 1.987206 0
M  V30 5 C 3.762008 -2.981555 0.803647 0
M  V30 6 C 4.941409 -2.638960 -0.032805 0
M  V30 7 C 2.489794 -2.696932 0.343124 0
M  V30 8 C 1.896885 -2.080550 -0.857255 0
M  V30 9 C 2.468260 -1.603840 -1.984846 0
M  V30 10 C 1.789720 -1.020102 -3.025661 0
M  V30 11 N 0.455425 -0.922355 -2.897552 0
M  V30 12 C -0.175669 -1.381549 -1.794804 0
M  V30 13 N -1.600220 -1.293666 -1.565719 0
M  V30 14 C -1.948005 -0.251641 -0.634282 0
M  V30 15 C -0.976865 0.472388 0.028658 0
M  V30 16 C -1.218976 1.484295 0.938915 0
M  V30 17 O -0.190232 2.167025 1.568561 0
M  V30 18 C 1.181105 1.837959 1.290584 0
M  V30 19 C -2.529705 1.807516 1.216375 0
M  V30 20 O -2.764477 2.829194 2.135984 0
M  V30 21 C -2.880170 4.170974 1.762670 0
M  V30 22 C -3.533876 1.092629 0.560838 0
M  V30 23 O -4.811156 1.495107 0.907721 0
M  V30 24 C -5.978105 0.937187 0.386436 0
M  V30 25 C -3.247982 0.092778 -0.337956 0
M  V30 26 N 0.554177 -1.943613 -0.814628 0
M  V30 27 S 1.514843 -3.309467 1.733090 0
M  V30 28 H 2.785644 -3.577241 5.935502 0
M  V30 29 H 1.910177 -2.526531 4.780741 0
M  V30 30 H 1.021309 -3.871742 5.481762 0
M  V30 31 H 2.348729 -5.455203 4.014296 0
M  V30 32 H 4.983568 -1.538062 -0.224664 0
M  V30 33 H 5.001052 -3.196108 -0.966724 0
M  V30 34 H 5.919941 -2.839474 0.498232 0
M  V30 35 H 3.515197 -1.714198 -2.020487 0
M  V30 36 H 2.331842 -0.673379 -3.870775 0
M  V30 37 H -2.429371 -1.841326 -1.946063 0
M  V30 38 H 0.076491 0.280161 -0.135046 0
M  V30 39 H 1.279404 0.742285 1.442057 0
M  V30 40 H 1.350986 2.109977 0.232915 0
M  V30 41 H 1.872871 2.432511 1.936739 0
M  V30 42 H -2.055562 4.763551 2.213362 0
M  V30 43 H -2.733377 4.265989 0.664925 0
M  V30 44 H -3.880688 4.610155 1.984866 0
M  V30 45 H -5.848664 0.440069 -0.584708 0
M  V30 46 H -6.727598 1.775480 0.253997 0
M  V30 47 H -6.481721 0.226556 1.080597 0
M  V30 48 H -4.050201 -0.438439 -0.827049 0
M  V30 END ATOM
M  V30 BEGIN BOND
M  V30 1 1 1 2
M  V30 2 1 2 3
M  V30 3 2 3 4
M  V30 4 1 4 5
M  V30 5 1 5 6
M  V30 6 2 5 7
M  V30 7 1 7 8
M  V30 8 2 8 9
M  V30 9 1 9 10
M  V30 10 2 10 11
M  V30 11 1 11 12
M  V30 12 1 12 13
M  V30 13 1 13 14
M  V30 14 2 14 15
M  V30 15 1 15 16
M  V30 16 1 16 17
M  V30 17 1 17 18
M  V30 18 2 16 19
M  V30 19 1 19 20
M  V30 20 1 20 21
M  V30 21 1 19 22
M  V30 22 1 22 23
M  V30 23 1 23 24
M  V30 24 2 22 25
M  V30 25 2 12 26
M  V30 26 1 7 27
M  V30 27 1 27 3
M  V30 28 1 26 8
M  V30 29 1 25 14
M  V30 30 1 1 28
M  V30 31 1 1 29
M  V30 32 1 1 30
M  V30 33 1 2 31
M  V30 34 1 6 32
M  V30 35 1 6 33
M  V30 36 1 6 34
M  V30 37 1 9 35
M  V30 38 1 10 36
M  V30 39 1 13 37
M  V30 40 1 15 38
M  V30 41 1 18 39
M  V30 42 1 18 40
M  V30 43 1 18 41
M  V30 44 1 21 42
M  V30 45 1 21 43
M  V30 46 1 21 44
M  V30 47 1 24 45
M  V30 48 1 24 46
M  V30 49 1 24 47
M  V30 50 1 25 48
M  V30 END BOND
M  V30 END CTAB
M  END
>  <Dataset>  (661) 
ChEMBL_Kinases

>  <Ligand_Instance>  (661) 
nan

>  <PDB_ID>  (661) 
nan

>  <Standardized_SMILES>  (661) 
CNc1nc(C)c(-c2ccnc(Nc3cc(OC)c(OC)c(OC)c3)n2)s1

>  <Name>  (661) 
nan

>  <Pocket>  (661) 
nan

>  <ATP_Site>  (661) 
nan

>  <Peripheral>  (661) 
nan

>  <Num_H_Atoms_ProtBoundConf>  (661) 
nan

>  <Num_Resolved_Atoms>  (661) 
nan

>  <Num_Not_Resolved_Atoms>  (661) 
nan

$$$$
CHEMBL2087008
     RDKit          3D

  0  0  0  0  0  0  0  0  0  0999 V3000
M  V30 BEGIN CTAB
M  V30 COUNTS 38 40 0 0 0
M  V30 BEGIN ATOM
M  V30 1 C 3.649801 -8.222722 -0.557480 0
M  V30 2 O 3.238653 -7.562619 0.625456 0
M  V30 3 C 2.755480 -6.265282 0.583092 0
M  V30 4 C 2.624344 -5.507155 -0.543555 0
M  V30 5 C 2.134824 -4.220985 -0.509043 0
M  V30 6 C 1.759908 -3.657351 0.674848 0
M  V30 7 C 1.223995 -2.320489 0.908536 0
M  V30 8 O 0.888021 -1.837781 2.029962 0
M  V30 9 N 1.069177 -1.495071 -0.228750 0
M  V30 10 C 0.510641 -0.126475 0.082809 0
M  V30 11 N 1.118876 0.795816 0.336817 0
M  V30 12 N 0.695835 1.991449 0.611889 0
M  V30 13 C -0.455714 2.294246 0.634817 0
M  V30 14 C -1.419022 3.407011 0.865415 0
M  V30 15 C -2.771953 3.337983 0.788086 0
M  V30 16 C -3.527861 4.468604 1.032278 0
M  V30 17 C -2.861501 5.635358 1.348806 0
M  V30 18 C -3.600703 6.861801 1.617312 0
M  V30 19 O -3.108028 7.980871 1.914359 0
M  V30 20 O -4.956429 7.055008 1.604356 0
M  V30 21 C -1.486625 5.730672 1.433568 0
M  V30 22 C -0.746042 4.569865 1.181277 0
M  V30 23 S -1.217752 0.664398 0.199940 0
M  V30 24 C 1.891627 -4.429290 1.835183 0
M  V30 25 C 2.377729 -5.708092 1.805329 0
M  V30 26 H 3.631724 -9.316286 -0.323635 0
M  V30 27 H 4.688326 -7.913216 -0.797525 0
M  V30 28 H 2.998134 -7.977175 -1.424274 0
M  V30 29 H 2.916022 -5.937224 -1.487719 0
M  V30 30 H 2.017904 -3.598021 -1.368050 0
M  V30 31 H 1.281841 -1.702189 -1.208703 0
M  V30 32 H -3.185478 2.377451 0.533537 0
M  V30 33 H -4.603789 4.408414 0.969481 0
M  V30 34 H -5.496455 7.371364 2.425237 0
M  V30 35 H -0.985954 6.667409 1.686155 0
M  V30 36 H 0.341052 4.696633 1.260941 0
M  V30 37 H 1.612827 -4.049345 2.823145 0
M  V30 38 H 2.471281 -6.288718 2.718284 0
M  V30 END ATOM
M  V30 BEGIN BOND
M  V30 1 1 1 2
M  V30 2 1 2 3
M  V30 3 2 3 4
M  V30 4 1 4 5
M  V30 5 2 5 6
M  V30 6 1 6 7
M  V30 7 2 7 8
M  V30 8 1 7 9
M  V30 9 1 9 10
M  V30 10 2 10 11
M  V30 11 1 11 12
M  V30 12 2 12 13
M  V30 13 1 13 14
M  V30 14 2 14 15
M  V30 15 1 15 16
M  V30 16 2 16 17
M  V30 17 1 17 18
M  V30 18 2 18 19
M  V30 19 1 18 20
M  V30 20 1 17 21
M  V30 21 2 21 22
M  V30 22 1 13 23
M  V30 23 1 6 24
M  V30 24 2 24 25
M  V30 25 1 25 3
M  V30 26 1 23 10
M  V30 27 1 22 14
M  V30 28 1 1 26
M  V30 29 1 1 27
M  V30 30 1 1 28
M  V30 31 1 4 29
M  V30 32 1 5 30
M  V30 33 1 9 31
M  V30 34 1 15 32
M  V30 35 1 16 33
M  V30 36 1 20 34
M  V30 37 1 21 35
M  V30 38 1 22 36
M  V30 39 1 24 37
M  V30 40 1 25 38
M  V30 END BOND
M  V30 END CTAB
M  END
>  <Dataset>  (662) 
ChEMBL_Kinases

>  <Ligand_Instance>  (662) 
nan

>  <PDB_ID>  (662) 
nan

>  <Standardized_SMILES>  (662) 
COc1ccc(C(=O)Nc2nnc(-c3ccc(C(=O)O)cc3)s2)cc1

>  <Name>  (662) 
nan

>  <Pocket>  (662) 
nan

>  <ATP_Site>  (662) 
nan

>  <Peripheral>  (662) 
nan

>  <Num_H_Atoms_ProtBoundConf>  (662) 
nan

>  <Num_Resolved_Atoms>  (662) 
nan

>  <Num_Not_Resolved_Atoms>  (662) 
nan

$$$$
CHEMBL4643315
     RDKit          3D

  0  0  0  0  0  0  0  0  0  0999 V3000
M  V30 BEGIN CTAB
M  V30 COUNTS 40 43 0 0 0
M  V30 BEGIN ATOM
M  V30 1 C -0.883727 -6.534902 -2.242943 0
M  V30 2 O -0.500644 -5.180542 -2.483643 0
M  V30 3 C 0.395495 -4.540176 -1.645415 0
M  V30 4 C 0.972123 -5.132029 -0.549341 0
M  V30 5 C 1.856511 -4.457439 0.254213 0
M  V30 6 C 2.167089 -3.162947 -0.050101 0
M  V30 7 C 1.628452 -2.501665 -1.134040 0
M  V30 8 C 1.890263 -1.103973 -1.559394 0
M  V30 9 N 0.939146 -0.163235 -0.945904 0
M  V30 10 C -0.179694 0.041923 -1.660482 0
M  V30 11 N -1.048495 0.900703 -1.098563 0
M  V30 12 C -0.791731 1.496347 0.091621 0
M  V30 13 S -1.712609 2.671719 1.110521 0
M  V30 14 C -0.494109 2.765824 2.395682 0
M  V30 15 C -0.646252 3.609539 3.601051 0
M  V30 16 C 0.345062 3.648312 4.586061 0
M  V30 17 C 0.167771 4.447322 5.696680 0
M  V30 18 N -0.943504 5.182329 5.835390 0
M  V30 19 C -1.896455 5.146038 4.890070 0
M  V30 20 C -1.787695 4.369265 3.751139 0
M  V30 21 C 0.469282 1.952874 1.995033 0
M  V30 22 C 0.339210 1.283996 0.805957 0
M  V30 23 C 1.238714 0.400296 0.232816 0
M  V30 24 O 2.332420 0.090257 0.756252 0
M  V30 25 C 0.733157 -3.229651 -1.922530 0
M  V30 26 H -1.339714 -6.985373 -3.147017 0
M  V30 27 H -0.025909 -7.159476 -1.892456 0
M  V30 28 H -1.674133 -6.484999 -1.466787 0
M  V30 29 H 0.738872 -6.141586 -0.299951 0
M  V30 30 H 2.340062 -4.877694 1.131174 0
M  V30 31 H 2.847516 -2.597823 0.541745 0
M  V30 32 H 2.909423 -0.766973 -1.215238 0
M  V30 33 H 1.834250 -1.046816 -2.647570 0
M  V30 34 H -0.453879 -0.389538 -2.604715 0
M  V30 35 H 1.208827 3.007415 4.367114 0
M  V30 36 H 0.995763 4.400638 6.393173 0
M  V30 37 H -2.810359 5.725665 4.964507 0
M  V30 38 H -2.566355 4.352506 2.999286 0
M  V30 39 H 1.337220 1.870571 2.672019 0
M  V30 40 H 0.272116 -2.755150 -2.799584 0
M  V30 END ATOM
M  V30 BEGIN BOND
M  V30 1 1 1 2
M  V30 2 1 2 3
M  V30 3 2 3 4
M  V30 4 1 4 5
M  V30 5 2 5 6
M  V30 6 1 6 7
M  V30 7 1 7 8
M  V30 8 1 8 9
M  V30 9 1 9 10
M  V30 10 2 10 11
M  V30 11 1 11 12
M  V30 12 1 12 13
M  V30 13 1 13 14
M  V30 14 1 14 15
M  V30 15 2 15 16
M  V30 16 1 16 17
M  V30 17 2 17 18
M  V30 18 1 18 19
M  V30 19 2 19 20
M  V30 20 2 14 21
M  V30 21 1 21 22
M  V30 22 1 22 23
M  V30 23 2 23 24
M  V30 24 2 7 25
M  V30 25 1 25 3
M  V30 26 1 23 9
M  V30 27 2 22 12
M  V30 28 1 20 15
M  V30 29 1 1 26
M  V30 30 1 1 27
M  V30 31 1 1 28
M  V30 32 1 4 29
M  V30 33 1 5 30
M  V30 34 1 6 31
M  V30 35 1 8 32
M  V30 36 1 8 33
M  V30 37 1 10 34
M  V30 38 1 16 35
M  V30 39 1 17 36
M  V30 40 1 19 37
M  V30 41 1 20 38
M  V30 42 1 21 39
M  V30 43 1 25 40
M  V30 END BOND
M  V30 END CTAB
M  END
>  <Dataset>  (663) 
ChEMBL_Kinases

>  <Ligand_Instance>  (663) 
nan

>  <PDB_ID>  (663) 
nan

>  <Standardized_SMILES>  (663) 
COc1cccc(Cn2cnc3sc(-c4ccncc4)cc3c2=O)c1

>  <Name>  (663) 
nan

>  <Pocket>  (663) 
nan

>  <ATP_Site>  (663) 
nan

>  <Peripheral>  (663) 
nan

>  <Num_H_Atoms_ProtBoundConf>  (663) 
nan

>  <Num_Resolved_Atoms>  (663) 
nan

>  <Num_Not_Resolved_Atoms>  (663) 
nan

$$$$
CHEMBL573046
     RDKit          3D

  0  0  0  0  0  0  0  0  0  0999 V3000
M  V30 BEGIN CTAB
M  V30 COUNTS 46 49 0 0 0
M  V30 BEGIN ATOM
M  V30 1 C -2.242743 -5.364161 0.587579 0
M  V30 2 N -1.065237 -4.978916 1.298626 0
M  V30 3 C -0.812019 -5.723379 2.493891 0
M  V30 4 C 0.058245 -4.792086 0.434783 0
M  V30 5 C -0.317055 -3.702220 -0.540097 0
M  V30 6 N -0.057846 -2.445922 -0.236186 0
M  V30 7 C -0.351646 -1.409595 -1.034446 0
M  V30 8 C -0.949605 -1.837135 -2.191161 0
M  V30 9 S -1.272737 -0.355627 -3.132828 0
M  V30 10 C -0.531313 0.782577 -1.811110 0
M  V30 11 C -0.447990 2.171260 -1.896599 0
M  V30 12 C 0.137504 2.763827 -0.797412 0
M  V30 13 C 0.568639 1.940755 0.245543 0
M  V30 14 N 1.185603 2.552090 1.400868 0
M  V30 15 C 1.302350 3.994556 1.324388 0
M  V30 16 C 2.129354 4.547221 2.434759 0
M  V30 17 C 1.796654 3.837840 3.737474 0
M  V30 18 C 2.344967 2.438365 3.586486 0
M  V30 19 C 1.622025 1.741067 2.494434 0
M  V30 20 C 0.440002 0.574081 0.233573 0
M  V30 21 C -0.134695 -0.078595 -0.832220 0
M  V30 22 C -1.223450 -3.136398 -2.517333 0
M  V30 23 O -1.778638 -3.355725 -3.624035 0
M  V30 24 N -0.900427 -4.124799 -1.667558 0
M  V30 25 H -3.022396 -5.605673 1.349194 0
M  V30 26 H -2.590140 -4.489309 -0.004801 0
M  V30 27 H -2.124804 -6.222671 -0.097401 0
M  V30 28 H 0.243163 -6.054685 2.478893 0
M  V30 29 H -0.900699 -5.009453 3.360596 0
M  V30 30 H -1.529035 -6.563171 2.608600 0
M  V30 31 H 0.340685 -5.711278 -0.124385 0
M  V30 32 H 0.911477 -4.393008 1.017457 0
M  V30 33 H -0.823117 2.666098 -2.763043 0
M  V30 34 H 0.234040 3.823296 -0.793424 0
M  V30 35 H 0.324848 4.518280 1.298565 0
M  V30 36 H 1.830657 4.300162 0.372925 0
M  V30 37 H 1.957405 5.636792 2.532068 0
M  V30 38 H 3.208623 4.370211 2.243110 0
M  V30 39 H 2.258117 4.395086 4.585233 0
M  V30 40 H 0.713051 3.807413 3.927082 0
M  V30 41 H 2.174840 1.884117 4.542015 0
M  V30 42 H 3.425319 2.500465 3.341041 0
M  V30 43 H 0.749972 1.150780 2.844878 0
M  V30 44 H 2.330295 0.981546 2.048252 0
M  V30 45 H 0.808173 0.022460 1.097356 0
M  V30 46 H -1.132118 -5.093010 -1.967732 0
M  V30 END ATOM
M  V30 BEGIN BOND
M  V30 1 1 1 2
M  V30 2 1 2 3
M  V30 3 1 2 4
M  V30 4 1 4 5
M  V30 5 2 5 6
M  V30 6 1 6 7
M  V30 7 2 7 8
M  V30 8 1 8 9
M  V30 9 1 9 10
M  V30 10 2 10 11
M  V30 11 1 11 12
M  V30 12 2 12 13
M  V30 13 1 13 14
M  V30 14 1 14 15
M  V30 15 1 15 16
M  V30 16 1 16 17
M  V30 17 1 17 18
M  V30 18 1 18 19
M  V30 19 1 13 20
M  V30 20 2 20 21
M  V30 21 1 8 22
M  V30 22 2 22 23
M  V30 23 1 22 24
M  V30 24 1 24 5
M  V30 25 1 21 7
M  V30 26 1 21 10
M  V30 27 1 19 14
M  V30 28 1 1 25
M  V30 29 1 1 26
M  V30 30 1 1 27
M  V30 31 1 3 28
M  V30 32 1 3 29
M  V30 33 1 3 30
M  V30 34 1 4 31
M  V30 35 1 4 32
M  V30 36 1 11 33
M  V30 37 1 12 34
M  V30 38 1 15 35
M  V30 39 1 15 36
M  V30 40 1 16 37
M  V30 41 1 16 38
M  V30 42 1 17 39
M  V30 43 1 17 40
M  V30 44 1 18 41
M  V30 45 1 18 42
M  V30 46 1 19 43
M  V30 47 1 19 44
M  V30 48 1 20 45
M  V30 49 1 24 46
M  V30 END BOND
M  V30 END CTAB
M  END
>  <Dataset>  (664) 
ChEMBL_Kinases

>  <Ligand_Instance>  (664) 
nan

>  <PDB_ID>  (664) 
nan

>  <Standardized_SMILES>  (664) 
CN(C)Cc1nc2c(sc3ccc(N4CCCCC4)cc32)c(=O)[nH]1

>  <Name>  (664) 
nan

>  <Pocket>  (664) 
nan

>  <ATP_Site>  (664) 
nan

>  <Peripheral>  (664) 
nan

>  <Num_H_Atoms_ProtBoundConf>  (664) 
nan

>  <Num_Resolved_Atoms>  (664) 
nan

>  <Num_Not_Resolved_Atoms>  (664) 
nan

$$$$
CHEMBL1083151
     RDKit          3D

  0  0  0  0  0  0  0  0  0  0999 V3000
M  V30 BEGIN CTAB
M  V30 COUNTS 46 48 0 0 0
M  V30 BEGIN ATOM
M  V30 1 C 1.210352 -6.683527 0.125269 0
M  V30 2 O 0.781105 -5.911822 1.226678 0
M  V30 3 C 0.489400 -4.561983 1.126742 0
M  V30 4 C 0.607393 -3.897876 -0.077160 0
M  V30 5 C 0.317022 -2.553665 -0.177982 0
M  V30 6 N 0.422248 -1.748536 -1.359710 0
M  V30 7 C -0.103976 -0.436378 -1.451279 0
M  V30 8 N -1.225725 -0.308680 -2.148188 0
M  V30 9 C -1.835142 0.877472 -2.299653 0
M  V30 10 C -1.213939 1.933290 -1.684694 0
M  V30 11 C -0.071320 1.864825 -0.961985 0
M  V30 12 C 0.699602 2.911802 -0.228569 0
M  V30 13 S 2.242722 2.547190 0.684651 0
M  V30 14 C 2.431537 4.341692 1.231694 0
M  V30 15 C 3.584015 4.862991 2.106220 0
M  V30 16 N 1.518286 4.792222 0.745567 0
M  V30 17 C 0.560388 4.280535 0.003688 0
M  V30 18 C -0.588544 5.027445 -0.560712 0
M  V30 19 N 0.468403 0.630626 -0.866074 0
M  V30 20 C -0.103428 -1.863650 0.966232 0
M  V30 21 C -0.217656 -2.539219 2.166439 0
M  V30 22 O -0.622863 -1.883039 3.289209 0
M  V30 23 C -0.957661 -0.528179 3.419039 0
M  V30 24 C 0.073662 -3.897758 2.278429 0
M  V30 25 O -0.024036 -4.623500 3.458501 0
M  V30 26 C -1.276369 -5.250976 3.727611 0
M  V30 27 H 1.874088 -6.149009 -0.569261 0
M  V30 28 H 0.316217 -7.007138 -0.452142 0
M  V30 29 H 1.685772 -7.637879 0.477638 0
M  V30 30 H 0.928077 -4.391635 -0.986767 0
M  V30 31 H 0.934082 -2.259769 -2.133017 0
M  V30 32 H -2.740598 1.116671 -2.834248 0
M  V30 33 H -1.613525 2.921497 -1.745399 0
M  V30 34 H 4.441670 5.149107 1.496792 0
M  V30 35 H 3.126591 5.725088 2.610645 0
M  V30 36 H 3.893770 4.068666 2.822367 0
M  V30 37 H -0.603859 4.990439 -1.655272 0
M  V30 38 H -0.614960 6.083149 -0.193555 0
M  V30 39 H -1.542391 4.584514 -0.167716 0
M  V30 40 H -0.346726 -0.788336 0.930468 0
M  V30 41 H -1.343952 -0.248623 4.393684 0
M  V30 42 H -1.774409 -0.313697 2.675860 0
M  V30 43 H -0.072688 0.122089 3.162052 0
M  V30 44 H -1.292903 -6.224175 3.153196 0
M  V30 45 H -1.390169 -5.495841 4.799471 0
M  V30 46 H -2.141270 -4.672891 3.363140 0
M  V30 END ATOM
M  V30 BEGIN BOND
M  V30 1 1 1 2
M  V30 2 1 2 3
M  V30 3 2 3 4
M  V30 4 1 4 5
M  V30 5 1 5 6
M  V30 6 1 6 7
M  V30 7 2 7 8
M  V30 8 1 8 9
M  V30 9 2 9 10
M  V30 10 1 10 11
M  V30 11 1 11 12
M  V30 12 1 12 13
M  V30 13 1 13 14
M  V30 14 1 14 15
M  V30 15 2 14 16
M  V30 16 1 16 17
M  V30 17 1 17 18
M  V30 18 2 11 19
M  V30 19 2 5 20
M  V30 20 1 20 21
M  V30 21 1 21 22
M  V30 22 1 22 23
M  V30 23 2 21 24
M  V30 24 1 24 25
M  V30 25 1 25 26
M  V30 26 1 24 3
M  V30 27 1 19 7
M  V30 28 2 17 12
M  V30 29 1 1 27
M  V30 30 1 1 28
M  V30 31 1 1 29
M  V30 32 1 4 30
M  V30 33 1 6 31
M  V30 34 1 9 32
M  V30 35 1 10 33
M  V30 36 1 15 34
M  V30 37 1 15 35
M  V30 38 1 15 36
M  V30 39 1 18 37
M  V30 40 1 18 38
M  V30 41 1 18 39
M  V30 42 1 20 40
M  V30 43 1 23 41
M  V30 44 1 23 42
M  V30 45 1 23 43
M  V30 46 1 26 44
M  V30 47 1 26 45
M  V30 48 1 26 46
M  V30 END BOND
M  V30 END CTAB
M  END
>  <Dataset>  (665) 
ChEMBL_Kinases

>  <Ligand_Instance>  (665) 
nan

>  <PDB_ID>  (665) 
nan

>  <Standardized_SMILES>  (665) 
COc1cc(Nc2nccc(-c3sc(C)nc3C)n2)cc(OC)c1OC

>  <Name>  (665) 
nan

>  <Pocket>  (665) 
nan

>  <ATP_Site>  (665) 
nan

>  <Peripheral>  (665) 
nan

>  <Num_H_Atoms_ProtBoundConf>  (665) 
nan

>  <Num_Resolved_Atoms>  (665) 
nan

>  <Num_Not_Resolved_Atoms>  (665) 
nan

$$$$
CHEMBL4634922
     RDKit          3D

  0  0  0  0  0  0  0  0  0  0999 V3000
M  V30 BEGIN CTAB
M  V30 COUNTS 56 58 0 0 0
M  V30 BEGIN ATOM
M  V30 1 C -0.009260 1.063286 4.222073 0
M  V30 2 C 0.338851 -0.406635 4.317385 0
M  V30 3 C -0.370228 -0.971458 5.520470 0
M  V30 4 N 0.051887 -1.111165 3.087577 0
M  V30 5 C 0.757765 -1.022626 1.873350 0
M  V30 6 C 1.872594 -0.226680 1.858952 0
M  V30 7 C 2.656705 -0.093261 0.733808 0
M  V30 8 N 3.848109 0.717655 0.615910 0
M  V30 9 C 3.295029 1.958194 0.186064 0
M  V30 10 N 2.997216 2.934791 1.078671 0
M  V30 11 C 2.468715 4.113756 0.670685 0
M  V30 12 C 2.060961 5.291730 1.309005 0
M  V30 13 C 1.599022 6.157090 0.355609 0
M  V30 14 N 1.709587 5.553321 -0.833529 0
M  V30 15 N 2.229750 4.327813 -0.657134 0
M  V30 16 C 2.514714 3.370824 -1.589500 0
M  V30 17 C 3.055555 2.170124 -1.153966 0
M  V30 18 F 3.328304 1.231519 -2.121174 0
M  V30 19 N 2.280271 -0.790350 -0.381255 0
M  V30 20 C 1.185271 -1.567494 -0.353640 0
M  V30 21 C 0.384312 -1.720980 0.750455 0
M  V30 22 C -0.794055 -2.568907 0.688551 0
M  V30 23 O -1.657866 -2.771455 1.573659 0
M  V30 24 N -1.161275 -3.340184 -0.456973 0
M  V30 25 C -2.371505 -4.060489 -0.209438 0
M  V30 26 C -2.881451 -4.936904 -1.275394 0 CFG=1
M  V30 27 F -4.053709 -5.543515 -0.836877 0
M  V30 28 C -3.127661 -4.423088 -2.625561 0
M  V30 29 C -1.944048 -3.869891 -3.378910 0
M  V30 30 C -4.275321 -3.434830 -2.717648 0
M  V30 31 O -3.558217 -5.529140 -3.400979 0
M  V30 32 H 0.613253 1.662912 3.576107 0
M  V30 33 H -1.094866 1.086436 3.949277 0
M  V30 34 H 0.012189 1.470136 5.270341 0
M  V30 35 H 1.437718 -0.480465 4.560253 0
M  V30 36 H -1.482705 -0.875640 5.419463 0
M  V30 37 H -0.099487 -0.415696 6.432630 0
M  V30 38 H -0.122861 -2.040279 5.693003 0
M  V30 39 H -0.778378 -1.699989 3.265895 0
M  V30 40 H 2.293268 0.358861 2.638643 0
M  V30 41 H 4.852328 0.494900 0.787587 0
M  V30 42 H 2.117405 5.450693 2.376139 0
M  V30 43 H 1.206320 7.155957 0.496122 0
M  V30 44 H 2.327473 3.534618 -2.633038 0
M  V30 45 H 1.038528 -2.035837 -1.305906 0
M  V30 46 H -0.504696 -3.261157 -1.261513 0
M  V30 47 H -2.140258 -4.731920 0.669176 0
M  V30 48 H -3.155954 -3.375910 0.208996 0
M  V30 49 H -2.132530 -5.785610 -1.376612 0
M  V30 50 H -1.021762 -4.438801 -3.209390 0
M  V30 51 H -1.845540 -2.796640 -3.136384 0
M  V30 52 H -2.163090 -3.860307 -4.496053 0
M  V30 53 H -4.927083 -3.454508 -1.839790 0
M  V30 54 H -4.911754 -3.592594 -3.615142 0
M  V30 55 H -3.841256 -2.409296 -2.837246 0
M  V30 56 H -3.482782 -5.266776 -4.359960 0
M  V30 END ATOM
M  V30 BEGIN BOND
M  V30 1 1 1 2
M  V30 2 1 2 3
M  V30 3 1 2 4
M  V30 4 1 4 5
M  V30 5 2 5 6
M  V30 6 1 6 7
M  V30 7 1 7 8
M  V30 8 1 8 9
M  V30 9 2 9 10
M  V30 10 1 10 11
M  V30 11 2 11 12
M  V30 12 1 12 13
M  V30 13 2 13 14
M  V30 14 1 14 15
M  V30 15 1 15 16
M  V30 16 2 16 17
M  V30 17 1 17 18
M  V30 18 2 7 19
M  V30 19 1 19 20
M  V30 20 2 20 21
M  V30 21 1 21 22
M  V30 22 2 22 23
M  V30 23 1 22 24
M  V30 24 1 24 25
M  V30 25 1 25 26
M  V30 26 1 26 27
M  V30 27 1 26 28
M  V30 28 1 28 29
M  V30 29 1 28 30
M  V30 30 1 28 31
M  V30 31 1 21 5
M  V30 32 1 17 9
M  V30 33 1 15 11
M  V30 34 1 1 32
M  V30 35 1 1 33
M  V30 36 1 1 34
M  V30 37 1 2 35
M  V30 38 1 3 36
M  V30 39 1 3 37
M  V30 40 1 3 38
M  V30 41 1 4 39
M  V30 42 1 6 40
M  V30 43 1 8 41
M  V30 44 1 12 42
M  V30 45 1 13 43
M  V30 46 1 16 44
M  V30 47 1 20 45
M  V30 48 1 24 46
M  V30 49 1 25 47
M  V30 50 1 25 48
M  V30 51 1 26 49 CFG=3
M  V30 52 1 29 50
M  V30 53 1 29 51
M  V30 54 1 29 52
M  V30 55 1 30 53
M  V30 56 1 30 54
M  V30 57 1 30 55
M  V30 58 1 31 56
M  V30 END BOND
M  V30 END CTAB
M  END
>  <Dataset>  (666) 
ChEMBL_Kinases

>  <Ligand_Instance>  (666) 
nan

>  <PDB_ID>  (666) 
nan

>  <Standardized_SMILES>  (666) 
CC(C)Nc1cc(Nc2nc3ccnn3cc2F)ncc1C(=O)NC[C@@H](F)C(C)(C)O

>  <Name>  (666) 
nan

>  <Pocket>  (666) 
nan

>  <ATP_Site>  (666) 
nan

>  <Peripheral>  (666) 
nan

>  <Num_H_Atoms_ProtBoundConf>  (666) 
nan

>  <Num_Resolved_Atoms>  (666) 
nan

>  <Num_Not_Resolved_Atoms>  (666) 
nan

$$$$
CHEMBL1094636
     RDKit          3D

  0  0  0  0  0  0  0  0  0  0999 V3000
M  V30 BEGIN CTAB
M  V30 COUNTS 44 47 0 0 0
M  V30 BEGIN ATOM
M  V30 1 N 2.253017 -4.637036 -0.499476 0
M  V30 2 C 3.655613 -4.691860 -0.779934 0
M  V30 3 O 4.260486 -5.765079 -1.001803 0
M  V30 4 C 4.415767 -3.436940 -0.808412 0
M  V30 5 C 5.768895 -3.469869 -1.077079 0
M  V30 6 C 6.540495 -2.316182 -1.117560 0
M  V30 7 C 5.897138 -1.097360 -0.874145 0
M  V30 8 C 4.543574 -1.063628 -0.605313 0
M  V30 9 C 3.645118 -0.045909 -0.331178 0
M  V30 10 N 2.415689 -0.561008 -0.139467 0
M  V30 11 C 1.160766 0.047800 0.165309 0
M  V30 12 C 0.586512 1.108170 -0.544045 0
M  V30 13 C -0.637634 1.614661 -0.151867 0
M  V30 14 C -1.340850 1.112657 0.934385 0
M  V30 15 C -2.640941 1.693947 1.303827 0 CFG=2
M  V30 16 C -2.739849 2.196498 2.705575 0
M  V30 17 C -3.604495 1.339307 3.605769 0
M  V30 18 C -4.996559 1.178773 3.086222 0
M  V30 19 N -4.993883 1.254961 1.657688 0
M  V30 20 C -3.781592 0.708938 1.092282 0
M  V30 21 C -0.747212 0.064777 1.615262 0
M  V30 22 C 0.476302 -0.466615 1.250600 0
M  V30 23 N 2.516629 -1.874620 -0.285568 0
M  V30 24 C 3.791063 -2.228040 -0.569609 0
M  V30 25 H 2.150105 -5.210376 0.375571 0
M  V30 26 H 1.774196 -4.053746 -1.239290 0
M  V30 27 H 6.309917 -4.382715 -1.270992 0
M  V30 28 H 7.597672 -2.348584 -1.328103 0
M  V30 29 H 6.452601 -0.151582 -0.892209 0
M  V30 30 H 3.849194 1.011988 -0.269503 0
M  V30 31 H 1.156257 1.479706 -1.385911 0
M  V30 32 H -1.045344 2.445132 -0.739773 0
M  V30 33 H -2.840202 2.517254 0.563488 0
M  V30 34 H -3.169599 3.237270 2.686566 0
M  V30 35 H -1.768254 2.313106 3.225564 0
M  V30 36 H -3.103050 0.367809 3.784505 0
M  V30 37 H -3.631728 1.896137 4.584025 0
M  V30 38 H -5.651689 1.965826 3.537167 0
M  V30 39 H -5.412795 0.217578 3.479724 0
M  V30 40 H -5.813223 0.738839 1.276473 0
M  V30 41 H -3.561149 -0.267938 1.566778 0
M  V30 42 H -3.994247 0.544960 0.005574 0
M  V30 43 H -1.240020 -0.364533 2.460664 0
M  V30 44 H 0.895193 -1.293295 1.825806 0
M  V30 END ATOM
M  V30 BEGIN BOND
M  V30 1 1 1 2
M  V30 2 2 2 3
M  V30 3 1 2 4
M  V30 4 2 4 5
M  V30 5 1 5 6
M  V30 6 2 6 7
M  V30 7 1 7 8
M  V30 8 2 8 9
M  V30 9 1 9 10
M  V30 10 1 10 11
M  V30 11 2 11 12
M  V30 12 1 12 13
M  V30 13 2 13 14
M  V30 14 1 14 15
M  V30 15 1 15 16
M  V30 16 1 16 17
M  V30 17 1 17 18
M  V30 18 1 18 19
M  V30 19 1 19 20
M  V30 20 1 14 21
M  V30 21 2 21 22
M  V30 22 1 10 23
M  V30 23 2 23 24
M  V30 24 1 24 4
M  V30 25 1 24 8
M  V30 26 1 22 11
M  V30 27 1 20 15
M  V30 28 1 1 25
M  V30 29 1 1 26
M  V30 30 1 5 27
M  V30 31 1 6 28
M  V30 32 1 7 29
M  V30 33 1 9 30
M  V30 34 1 12 31
M  V30 35 1 13 32
M  V30 36 1 15 33 CFG=3
M  V30 37 1 16 34
M  V30 38 1 16 35
M  V30 39 1 17 36
M  V30 40 1 17 37
M  V30 41 1 18 38
M  V30 42 1 18 39
M  V30 43 1 19 40
M  V30 44 1 20 41
M  V30 45 1 20 42
M  V30 46 1 21 43
M  V30 47 1 22 44
M  V30 END BOND
M  V30 END CTAB
M  END
>  <Dataset>  (667) 
ChEMBL_Kinases

>  <Ligand_Instance>  (667) 
nan

>  <PDB_ID>  (667) 
nan

>  <Standardized_SMILES>  (667) 
NC(=O)c1cccc2cn(-c3ccc([C@@H]4CCCNC4)cc3)nc12

>  <Name>  (667) 
NIRAPARIB

>  <Pocket>  (667) 
nan

>  <ATP_Site>  (667) 
nan

>  <Peripheral>  (667) 
nan

>  <Num_H_Atoms_ProtBoundConf>  (667) 
nan

>  <Num_Resolved_Atoms>  (667) 
nan

>  <Num_Not_Resolved_Atoms>  (667) 
nan

$$$$
CHEMBL585307
     RDKit          3D

  0  0  0  0  0  0  0  0  0  0999 V3000
M  V30 BEGIN CTAB
M  V30 COUNTS 61 65 0 0 0
M  V30 BEGIN ATOM
M  V30 1 C 1.985614 -1.315905 4.146641 0
M  V30 2 C 1.951829 -2.158881 2.956471 0
M  V30 3 C 2.527976 -1.633879 1.825747 0
M  V30 4 N 3.148547 -0.404064 1.604552 0
M  V30 5 C 2.901806 0.978126 1.694355 0
M  V30 6 C 3.405389 1.735289 2.761492 0
M  V30 7 C 4.237026 1.127017 3.790566 0
M  V30 8 N 4.903187 0.620887 4.606804 0
M  V30 9 C 3.199189 3.085683 2.949898 0
M  V30 10 N 2.451327 3.699575 2.018626 0
M  V30 11 C 1.924433 3.081861 0.966206 0
M  V30 12 C 2.154861 1.736274 0.817426 0
M  V30 13 C 1.558022 1.132250 -0.364340 0
M  V30 14 C 2.110977 0.303760 -1.314258 0
M  V30 15 C 1.366315 -0.169496 -2.372793 0
M  V30 16 C 0.036625 0.153457 -2.544526 0
M  V30 17 C -0.550546 0.980613 -1.613296 0
M  V30 18 C -1.980146 1.341519 -1.777123 0
M  V30 19 N -2.805450 0.378635 -1.092179 0
M  V30 20 C -4.211949 0.614249 -1.176638 0
M  V30 21 C -4.973421 -0.472304 -1.898414 0
M  V30 22 N -4.753505 -1.790511 -1.391411 0
M  V30 23 C -4.621924 -2.798336 -2.426631 0
M  V30 24 C -3.520447 -1.807018 -0.625191 0
M  V30 25 C -2.532772 -0.975201 -1.457756 0
M  V30 26 C 0.206240 1.441715 -0.566728 0
M  V30 27 C 2.504759 -2.416940 0.670814 0
M  V30 28 C 1.908738 -3.683884 0.699032 0
M  V30 29 C 1.347498 -4.153043 1.867133 0
M  V30 30 N 0.705822 -5.296567 2.245615 0
M  V30 31 C 0.346948 -5.248649 3.541377 0
M  V30 32 C 0.747060 -4.043534 4.081373 0
M  V30 33 C 1.357442 -3.400735 3.019615 0
M  V30 34 H 2.960508 -1.396639 4.701962 0
M  V30 35 H 1.685645 -0.262385 3.959181 0
M  V30 36 H 1.238370 -1.691967 4.875646 0
M  V30 37 H 4.133196 -0.390326 1.251699 0
M  V30 38 H 3.591718 3.635867 3.767543 0
M  V30 39 H 1.334007 3.653424 0.263177 0
M  V30 40 H 3.160314 0.088126 -1.120975 0
M  V30 41 H 1.940717 -0.813256 -3.040504 0
M  V30 42 H -0.463477 -0.266729 -3.406017 0
M  V30 43 H -2.200006 2.355159 -1.384613 0
M  V30 44 H -2.198865 1.353022 -2.866146 0
M  V30 45 H -4.427686 1.550060 -1.711321 0
M  V30 46 H -4.609460 0.749586 -0.147703 0
M  V30 47 H -4.764649 -0.390120 -2.978669 0
M  V30 48 H -6.059347 -0.239501 -1.693186 0
M  V30 49 H -4.954106 -3.795366 -2.044114 0
M  V30 50 H -5.152067 -2.524600 -3.362475 0
M  V30 51 H -3.559171 -2.965533 -2.737730 0
M  V30 52 H -3.719178 -1.310554 0.350092 0
M  V30 53 H -3.114937 -2.823723 -0.498874 0
M  V30 54 H -2.714346 -1.108227 -2.544211 0
M  V30 55 H -1.494507 -1.300338 -1.270653 0
M  V30 56 H -0.333014 2.089114 0.123428 0
M  V30 57 H 2.877465 -2.269518 -0.341386 0
M  V30 58 H 1.816015 -4.395086 -0.107290 0
M  V30 59 H 0.515325 -6.111968 1.607435 0
M  V30 60 H -0.173898 -6.042307 4.060608 0
M  V30 61 H 0.620149 -3.678794 5.088066 0
M  V30 END ATOM
M  V30 BEGIN BOND
M  V30 1 1 1 2
M  V30 2 2 2 3
M  V30 3 1 3 4
M  V30 4 1 4 5
M  V30 5 2 5 6
M  V30 6 1 6 7
M  V30 7 3 7 8
M  V30 8 1 6 9
M  V30 9 2 9 10
M  V30 10 1 10 11
M  V30 11 2 11 12
M  V30 12 1 12 13
M  V30 13 2 13 14
M  V30 14 1 14 15
M  V30 15 2 15 16
M  V30 16 1 16 17
M  V30 17 1 17 18
M  V30 18 1 18 19
M  V30 19 1 19 20
M  V30 20 1 20 21
M  V30 21 1 21 22
M  V30 22 1 22 23
M  V30 23 1 22 24
M  V30 24 1 24 25
M  V30 25 2 17 26
M  V30 26 1 3 27
M  V30 27 2 27 28
M  V30 28 1 28 29
M  V30 29 1 29 30
M  V30 30 1 30 31
M  V30 31 2 31 32
M  V30 32 1 32 33
M  V30 33 1 33 2
M  V30 34 1 12 5
M  V30 35 1 26 13
M  V30 36 2 33 29
M  V30 37 1 25 19
M  V30 38 1 1 34
M  V30 39 1 1 35
M  V30 40 1 1 36
M  V30 41 1 4 37
M  V30 42 1 9 38
M  V30 43 1 11 39
M  V30 44 1 14 40
M  V30 45 1 15 41
M  V30 46 1 16 42
M  V30 47 1 18 43
M  V30 48 1 18 44
M  V30 49 1 20 45
M  V30 50 1 20 46
M  V30 51 1 21 47
M  V30 52 1 21 48
M  V30 53 1 23 49
M  V30 54 1 23 50
M  V30 55 1 23 51
M  V30 56 1 24 52
M  V30 57 1 24 53
M  V30 58 1 25 54
M  V30 59 1 25 55
M  V30 60 1 26 56
M  V30 61 1 27 57
M  V30 62 1 28 58
M  V30 63 1 30 59
M  V30 64 1 31 60
M  V30 65 1 32 61
M  V30 END BOND
M  V30 END CTAB
M  END
>  <Dataset>  (668) 
ChEMBL_Kinases

>  <Ligand_Instance>  (668) 
nan

>  <PDB_ID>  (668) 
nan

>  <Standardized_SMILES>  (668) 
Cc1c(Nc2c(C#N)cncc2-c2cccc(CN3CCN(C)CC3)c2)ccc2[nH]ccc12

>  <Name>  (668) 
nan

>  <Pocket>  (668) 
nan

>  <ATP_Site>  (668) 
nan

>  <Peripheral>  (668) 
nan

>  <Num_H_Atoms_ProtBoundConf>  (668) 
nan

>  <Num_Resolved_Atoms>  (668) 
nan

>  <Num_Not_Resolved_Atoms>  (668) 
nan

$$$$
CHEMBL585323
     RDKit          3D

  0  0  0  0  0  0  0  0  0  0999 V3000
M  V30 BEGIN CTAB
M  V30 COUNTS 54 58 0 0 0
M  V30 BEGIN ATOM
M  V30 1 C 0.142975 -1.098327 -1.022319 0
M  V30 2 C 0.478003 -2.492241 -0.641894 0
M  V30 3 C 1.469378 -2.539810 0.304019 0
M  V30 4 N 2.245342 -1.573922 1.000341 0
M  V30 5 C 3.129412 -0.525878 0.662691 0
M  V30 6 C 4.399049 -0.911227 0.218731 0
M  V30 7 C 4.783050 -2.304937 0.109249 0
M  V30 8 N 5.096313 -3.418283 0.039988 0
M  V30 9 C 5.375918 -0.002753 -0.146211 0
M  V30 10 N 5.100302 1.308859 -0.073616 0
M  V30 11 C 3.887360 1.738078 0.349992 0
M  V30 12 C 2.916768 0.832990 0.713267 0
M  V30 13 C 1.616900 1.266116 1.206131 0
M  V30 14 C 1.231675 2.587866 1.285935 0
M  V30 15 C -0.051427 2.723825 1.788569 0
M  V30 16 C -0.393788 1.383435 1.999106 0
M  V30 17 C -1.714512 0.924017 2.549747 0
M  V30 18 N -2.637246 0.705984 1.483147 0
M  V30 19 C -2.919447 1.836830 0.679248 0
M  V30 20 C -4.232242 1.811708 -0.026589 0
M  V30 21 S -5.548238 1.688594 1.219897 0
M  V30 22 C -4.898828 0.543661 2.472142 0
M  V30 23 C -3.720324 -0.162643 1.792711 0
M  V30 24 O 0.589895 0.591338 1.651945 0
M  V30 25 C 1.896902 -3.798026 0.751877 0
M  V30 26 C 1.328680 -4.975702 0.249063 0
M  V30 27 C 0.337589 -4.873064 -0.697870 0
M  V30 28 N -0.426681 -5.743871 -1.397079 0
M  V30 29 C -1.277704 -5.112269 -2.227898 0
M  V30 30 C -1.080319 -3.734119 -2.084943 0
M  V30 31 C -0.082446 -3.646565 -1.137779 0
M  V30 32 H 1.006881 -0.435725 -1.058943 0
M  V30 33 H -0.305034 -1.066343 -2.054158 0
M  V30 34 H -0.677750 -0.789111 -0.357902 0
M  V30 35 H 2.257836 -1.510616 2.041712 0
M  V30 36 H 6.353560 -0.312707 -0.487829 0
M  V30 37 H 3.693241 2.793751 0.398576 0
M  V30 38 H 1.849772 3.433257 0.993248 0
M  V30 39 H -0.622852 3.619976 1.966032 0
M  V30 40 H -1.536475 -0.047440 3.056068 0
M  V30 41 H -2.077196 1.609846 3.330608 0
M  V30 42 H -2.112624 1.919205 -0.105522 0
M  V30 43 H -2.910933 2.787751 1.286449 0
M  V30 44 H -4.334538 2.736401 -0.610086 0
M  V30 45 H -4.324650 0.902080 -0.685368 0
M  V30 46 H -5.678300 -0.244905 2.607047 0
M  V30 47 H -4.598252 1.028674 3.399977 0
M  V30 48 H -4.087550 -0.675075 0.891399 0
M  V30 49 H -3.344720 -0.924296 2.505075 0
M  V30 50 H 2.666495 -4.063690 1.493230 0
M  V30 51 H 1.597450 -5.980945 0.537540 0
M  V30 52 H -0.381787 -6.786650 -1.320315 0
M  V30 53 H -1.985172 -5.601081 -2.885490 0
M  V30 54 H -1.598748 -2.945474 -2.604243 0
M  V30 END ATOM
M  V30 BEGIN BOND
M  V30 1 1 1 2
M  V30 2 2 2 3
M  V30 3 1 3 4
M  V30 4 1 4 5
M  V30 5 2 5 6
M  V30 6 1 6 7
M  V30 7 3 7 8
M  V30 8 1 6 9
M  V30 9 2 9 10
M  V30 10 1 10 11
M  V30 11 2 11 12
M  V30 12 1 12 13
M  V30 13 2 13 14
M  V30 14 1 14 15
M  V30 15 2 15 16
M  V30 16 1 16 17
M  V30 17 1 17 18
M  V30 18 1 18 19
M  V30 19 1 19 20
M  V30 20 1 20 21
M  V30 21 1 21 22
M  V30 22 1 22 23
M  V30 23 1 16 24
M  V30 24 1 3 25
M  V30 25 2 25 26
M  V30 26 1 26 27
M  V30 27 1 27 28
M  V30 28 1 28 29
M  V30 29 2 29 30
M  V30 30 1 30 31
M  V30 31 1 31 2
M  V30 32 1 12 5
M  V30 33 1 24 13
M  V30 34 2 31 27
M  V30 35 1 23 18
M  V30 36 1 1 32
M  V30 37 1 1 33
M  V30 38 1 1 34
M  V30 39 1 4 35
M  V30 40 1 9 36
M  V30 41 1 11 37
M  V30 42 1 14 38
M  V30 43 1 15 39
M  V30 44 1 17 40
M  V30 45 1 17 41
M  V30 46 1 19 42
M  V30 47 1 19 43
M  V30 48 1 20 44
M  V30 49 1 20 45
M  V30 50 1 22 46
M  V30 51 1 22 47
M  V30 52 1 23 48
M  V30 53 1 23 49
M  V30 54 1 25 50
M  V30 55 1 26 51
M  V30 56 1 28 52
M  V30 57 1 29 53
M  V30 58 1 30 54
M  V30 END BOND
M  V30 END CTAB
M  END
>  <Dataset>  (669) 
ChEMBL_Kinases

>  <Ligand_Instance>  (669) 
nan

>  <PDB_ID>  (669) 
nan

>  <Standardized_SMILES>  (669) 
Cc1c(Nc2c(C#N)cncc2-c2ccc(CN3CCSCC3)o2)ccc2[nH]ccc12

>  <Name>  (669) 
nan

>  <Pocket>  (669) 
nan

>  <ATP_Site>  (669) 
nan

>  <Peripheral>  (669) 
nan

>  <Num_H_Atoms_ProtBoundConf>  (669) 
nan

>  <Num_Resolved_Atoms>  (669) 
nan

>  <Num_Not_Resolved_Atoms>  (669) 
nan

$$$$
CHEMBL2087009
     RDKit          3D

  0  0  0  0  0  0  0  0  0  0999 V3000
M  V30 BEGIN CTAB
M  V30 COUNTS 31 33 0 0 0
M  V30 BEGIN ATOM
M  V30 1 O 2.958286 -7.562033 0.263506 0
M  V30 2 C 1.971328 -7.118824 0.884594 0
M  V30 3 O 1.324333 -7.995527 1.743155 0
M  V30 4 C 1.541541 -5.740769 0.696756 0
M  V30 5 C 2.259132 -4.956578 -0.182749 0
M  V30 6 C 1.870390 -3.636710 -0.381031 0
M  V30 7 C 0.778862 -3.162676 0.312144 0
M  V30 8 C 0.506560 -1.742321 -0.018515 0
M  V30 9 N 0.910050 -0.831005 -0.695059 0
M  V30 10 N 0.344827 0.334428 -0.691881 0
M  V30 11 C -0.576424 0.687461 -0.088536 0
M  V30 12 N -1.172747 2.052784 -0.137729 0
M  V30 13 C -0.617308 2.926514 0.808112 0
M  V30 14 O 0.287352 2.536270 1.587937 0
M  V30 15 C -1.132719 4.303993 0.848417 0
M  V30 16 C -0.704922 5.265454 1.697968 0
M  V30 17 C -1.246724 6.517494 1.658143 0
M  V30 18 C -2.271352 6.695087 0.663972 0
M  V30 19 S -2.348027 4.978506 -0.136163 0
M  V30 20 S -0.928874 -0.943703 0.825445 0
M  V30 21 C 0.054105 -3.919963 1.187000 0
M  V30 22 C 0.453448 -5.234993 1.374898 0
M  V30 23 H 1.856900 -8.633879 2.350211 0
M  V30 24 H 3.113843 -5.366889 -0.710409 0
M  V30 25 H 2.476149 -3.082385 -1.081835 0
M  V30 26 H -1.906783 2.250366 -0.820406 0
M  V30 27 H 0.085829 5.081779 2.445649 0
M  V30 28 H -1.007122 7.374879 2.267754 0
M  V30 29 H -2.828255 7.691437 0.501122 0
M  V30 30 H -0.782877 -3.448404 1.676731 0
M  V30 31 H -0.114166 -5.844106 2.066262 0
M  V30 END ATOM
M  V30 BEGIN BOND
M  V30 1 2 1 2
M  V30 2 1 2 3
M  V30 3 1 2 4
M  V30 4 2 4 5
M  V30 5 1 5 6
M  V30 6 2 6 7
M  V30 7 1 7 8
M  V30 8 2 8 9
M  V30 9 1 9 10
M  V30 10 2 10 11
M  V30 11 1 11 12
M  V30 12 1 12 13
M  V30 13 2 13 14
M  V30 14 1 13 15
M  V30 15 2 15 16
M  V30 16 1 16 17
M  V30 17 2 17 18
M  V30 18 1 18 19
M  V30 19 1 11 20
M  V30 20 1 7 21
M  V30 21 2 21 22
M  V30 22 1 22 4
M  V30 23 1 20 8
M  V30 24 1 19 15
M  V30 25 1 3 23
M  V30 26 1 5 24
M  V30 27 1 6 25
M  V30 28 1 12 26
M  V30 29 1 16 27
M  V30 30 1 17 28
M  V30 31 1 18 29
M  V30 32 1 21 30
M  V30 33 1 22 31
M  V30 END BOND
M  V30 END CTAB
M  END
>  <Dataset>  (670) 
ChEMBL_Kinases

>  <Ligand_Instance>  (670) 
nan

>  <PDB_ID>  (670) 
nan

>  <Standardized_SMILES>  (670) 
O=C(O)c1ccc(-c2nnc(NC(=O)c3cccs3)s2)cc1

>  <Name>  (670) 
nan

>  <Pocket>  (670) 
nan

>  <ATP_Site>  (670) 
nan

>  <Peripheral>  (670) 
nan

>  <Num_H_Atoms_ProtBoundConf>  (670) 
nan

>  <Num_Resolved_Atoms>  (670) 
nan

>  <Num_Not_Resolved_Atoms>  (670) 
nan

$$$$
CHEMBL1232772
     RDKit          3D

  0  0  0  0  0  0  0  0  0  0999 V3000
M  V30 BEGIN CTAB
M  V30 COUNTS 41 43 0 0 0
M  V30 BEGIN ATOM
M  V30 1 C -0.834336 -6.362327 0.893122 0
M  V30 2 C -0.577874 -4.920844 0.519607 0
M  V30 3 C -1.685425 -4.506751 -0.429546 0
M  V30 4 N 0.719183 -4.733429 -0.112742 0
M  V30 5 C 0.954402 -3.355877 -0.428068 0
M  V30 6 N 1.123508 -2.858810 -1.691125 0
M  V30 7 C 1.334947 -1.514318 -1.815441 0
M  V30 8 C 1.372295 -0.708302 -0.699973 0
M  V30 9 C 1.589317 0.642136 -0.810160 0
M  V30 10 C 1.629811 1.437780 0.315873 0
M  V30 11 O 1.839398 2.798114 0.351138 0
M  V30 12 C 0.920049 3.684705 0.874586 0
M  V30 13 C 1.469067 4.393463 1.948965 0
M  V30 14 C 0.736437 5.346785 2.641915 0
M  V30 15 C -0.580467 5.634049 2.289872 0
M  V30 16 F -1.326552 6.554304 2.934583 0
M  V30 17 C -1.087329 4.918634 1.229626 0
M  V30 18 C -0.384889 3.969209 0.525525 0
M  V30 19 F -0.815048 3.234209 -0.520323 0
M  V30 20 C 1.444066 0.827459 1.552150 0
M  V30 21 O 1.468723 1.504725 2.630747 0
M  V30 22 N 1.229361 -0.484053 1.716457 0
M  V30 23 C 1.029356 -1.131276 2.995930 0
M  V30 24 C 1.200546 -1.211297 0.582673 0
M  V30 25 N 0.996013 -2.545516 0.640865 0
M  V30 26 H -1.437622 -6.867557 0.109797 0
M  V30 27 H 0.062877 -6.915343 1.198853 0
M  V30 28 H -1.516526 -6.331286 1.793577 0
M  V30 29 H -0.640142 -4.278908 1.434202 0
M  V30 30 H -1.357724 -3.644012 -1.023277 0
M  V30 31 H -1.847092 -5.410352 -1.077754 0
M  V30 32 H -2.574471 -4.291252 0.192349 0
M  V30 33 H 1.504789 -5.377949 -0.386962 0
M  V30 34 H 1.474798 -1.064427 -2.774400 0
M  V30 35 H 1.732662 1.124834 -1.750691 0
M  V30 36 H 2.477153 4.285328 2.341872 0
M  V30 37 H 1.138064 5.907510 3.474925 0
M  V30 38 H -2.101305 5.091218 0.906863 0
M  V30 39 H -0.074010 -1.138894 3.197687 0
M  V30 40 H 1.367053 -2.188050 2.985620 0
M  V30 41 H 1.579774 -0.609682 3.796162 0
M  V30 END ATOM
M  V30 BEGIN BOND
M  V30 1 1 1 2
M  V30 2 1 2 3
M  V30 3 1 2 4
M  V30 4 1 4 5
M  V30 5 2 5 6
M  V30 6 1 6 7
M  V30 7 2 7 8
M  V30 8 1 8 9
M  V30 9 2 9 10
M  V30 10 1 10 11
M  V30 11 1 11 12
M  V30 12 2 12 13
M  V30 13 1 13 14
M  V30 14 2 14 15
M  V30 15 1 15 16
M  V30 16 1 15 17
M  V30 17 2 17 18
M  V30 18 1 18 19
M  V30 19 1 10 20
M  V30 20 2 20 21
M  V30 21 1 20 22
M  V30 22 1 22 23
M  V30 23 1 22 24
M  V30 24 2 24 25
M  V30 25 1 25 5
M  V30 26 1 24 8
M  V30 27 1 18 12
M  V30 28 1 1 26
M  V30 29 1 1 27
M  V30 30 1 1 28
M  V30 31 1 2 29
M  V30 32 1 3 30
M  V30 33 1 3 31
M  V30 34 1 3 32
M  V30 35 1 4 33
M  V30 36 1 7 34
M  V30 37 1 9 35
M  V30 38 1 13 36
M  V30 39 1 14 37
M  V30 40 1 17 38
M  V30 41 1 23 39
M  V30 42 1 23 40
M  V30 43 1 23 41
M  V30 END BOND
M  V30 END CTAB
M  END
>  <Dataset>  (671) 
ChEMBL_Kinases

>  <Ligand_Instance>  (671) 
nan

>  <PDB_ID>  (671) 
nan

>  <Standardized_SMILES>  (671) 
CC(C)Nc1ncc2cc(Oc3ccc(F)cc3F)c(=O)n(C)c2n1

>  <Name>  (671) 
nan

>  <Pocket>  (671) 
nan

>  <ATP_Site>  (671) 
nan

>  <Peripheral>  (671) 
nan

>  <Num_H_Atoms_ProtBoundConf>  (671) 
nan

>  <Num_Resolved_Atoms>  (671) 
nan

>  <Num_Not_Resolved_Atoms>  (671) 
nan

$$$$
CHEMBL1091199
     RDKit          3D

  0  0  0  0  0  0  0  0  0  0999 V3000
M  V30 BEGIN CTAB
M  V30 COUNTS 52 56 0 0 0
M  V30 BEGIN ATOM
M  V30 1 C -0.557592 1.908600 -1.163879 0
M  V30 2 C 0.761734 1.411208 -0.691677 0
M  V30 3 C 1.887507 2.018885 -1.248765 0
M  V30 4 C 3.122857 1.577568 -0.829416 0
M  V30 5 C 3.275091 0.571090 0.107781 0
M  V30 6 C 4.562822 0.073296 0.579943 0
M  V30 7 O 4.695344 -0.841540 1.432308 0
M  V30 8 N 5.800308 0.585976 0.111302 0
M  V30 9 C 7.102321 0.116321 0.557374 0
M  V30 10 C 8.277443 0.202135 -0.345424 0
M  V30 11 C 8.154544 1.211062 0.722849 0
M  V30 12 C 2.162062 -0.015034 0.644918 0
M  V30 13 C 0.902626 0.393735 0.255680 0
M  V30 14 C -0.373782 -0.130192 0.733907 0
M  V30 15 C -1.014624 0.410631 1.834047 0
M  V30 16 C -2.220605 -0.131665 2.235522 0
M  V30 17 C -3.121531 0.135533 3.254746 0
M  V30 18 N -4.119796 -0.761743 3.107463 0
M  V30 19 N -3.889400 -1.555883 2.070353 0
M  V30 20 C -4.867621 -2.555288 1.797615 0
M  V30 21 C -6.033407 -2.075157 1.244281 0
M  V30 22 C -7.084979 -2.914144 0.919903 0
M  V30 23 C -6.946156 -4.264956 1.163499 0
M  V30 24 F -7.955686 -5.129595 0.860191 0
M  V30 25 C -5.801776 -4.759310 1.709851 0
M  V30 26 C -4.783286 -3.917588 2.020046 0
M  V30 27 F -3.607154 -4.326779 2.569301 0
M  V30 28 C -2.721839 -1.192488 1.508680 0
M  V30 29 N -2.144700 -1.753270 0.439016 0
M  V30 30 C -2.728411 -2.869476 -0.280165 0
M  V30 31 C -0.954137 -1.192741 0.069615 0
M  V30 32 O -0.343700 -1.675141 -0.943285 0
M  V30 33 H -0.764692 1.646433 -2.210416 0
M  V30 34 H -0.498010 3.028227 -1.141666 0
M  V30 35 H -1.378149 1.641570 -0.477677 0
M  V30 36 H 1.847987 2.805730 -1.980844 0
M  V30 37 H 4.007035 2.026939 -1.240993 0
M  V30 38 H 5.823398 1.349899 -0.599543 0
M  V30 39 H 7.045284 -0.686397 1.304381 0
M  V30 40 H 8.992172 -0.650954 -0.246004 0
M  V30 41 H 8.117747 0.506197 -1.404558 0
M  V30 42 H 8.804480 1.142291 1.612118 0
M  V30 43 H 7.885390 2.234381 0.369485 0
M  V30 44 H 2.115944 -0.808951 1.382992 0
M  V30 45 H -0.586439 1.242803 2.375826 0
M  V30 46 H -3.001167 0.918276 3.994143 0
M  V30 47 H -6.223988 -1.035483 1.021794 0
M  V30 48 H -8.018420 -2.550198 0.479660 0
M  V30 49 H -5.687724 -5.825340 1.903958 0
M  V30 50 H -2.480796 -3.854632 0.165561 0
M  V30 51 H -3.807230 -2.774031 -0.464414 0
M  V30 52 H -2.262958 -2.807354 -1.307695 0
M  V30 END ATOM
M  V30 BEGIN BOND
M  V30 1 1 1 2
M  V30 2 2 2 3
M  V30 3 1 3 4
M  V30 4 2 4 5
M  V30 5 1 5 6
M  V30 6 2 6 7
M  V30 7 1 6 8
M  V30 8 1 8 9
M  V30 9 1 9 10
M  V30 10 1 10 11
M  V30 11 1 5 12
M  V30 12 2 12 13
M  V30 13 1 13 14
M  V30 14 2 14 15
M  V30 15 1 15 16
M  V30 16 1 16 17
M  V30 17 2 17 18
M  V30 18 1 18 19
M  V30 19 1 19 20
M  V30 20 2 20 21
M  V30 21 1 21 22
M  V30 22 2 22 23
M  V30 23 1 23 24
M  V30 24 1 23 25
M  V30 25 2 25 26
M  V30 26 1 26 27
M  V30 27 1 19 28
M  V30 28 1 28 29
M  V30 29 1 29 30
M  V30 30 1 29 31
M  V30 31 2 31 32
M  V30 32 1 13 2
M  V30 33 1 31 14
M  V30 34 1 11 9
M  V30 35 2 28 16
M  V30 36 1 26 20
M  V30 37 1 1 33
M  V30 38 1 1 34
M  V30 39 1 1 35
M  V30 40 1 3 36
M  V30 41 1 4 37
M  V30 42 1 8 38
M  V30 43 1 9 39
M  V30 44 1 10 40
M  V30 45 1 10 41
M  V30 46 1 11 42
M  V30 47 1 11 43
M  V30 48 1 12 44
M  V30 49 1 15 45
M  V30 50 1 17 46
M  V30 51 1 21 47
M  V30 52 1 22 48
M  V30 53 1 25 49
M  V30 54 1 30 50
M  V30 55 1 30 51
M  V30 56 1 30 52
M  V30 END BOND
M  V30 END CTAB
M  END
>  <Dataset>  (672) 
ChEMBL_Kinases

>  <Ligand_Instance>  (672) 
nan

>  <PDB_ID>  (672) 
nan

>  <Standardized_SMILES>  (672) 
Cc1ccc(C(=O)NC2CC2)cc1-c1cc2cnn(-c3ccc(F)cc3F)c2n(C)c1=O

>  <Name>  (672) 
nan

>  <Pocket>  (672) 
nan

>  <ATP_Site>  (672) 
nan

>  <Peripheral>  (672) 
nan

>  <Num_H_Atoms_ProtBoundConf>  (672) 
nan

>  <Num_Resolved_Atoms>  (672) 
nan

>  <Num_Not_Resolved_Atoms>  (672) 
nan

$$$$
CHEMBL2087010
     RDKit          3D

  0  0  0  0  0  0  0  0  0  0999 V3000
M  V30 BEGIN CTAB
M  V30 COUNTS 31 33 0 0 0
M  V30 BEGIN ATOM
M  V30 1 O 3.992409 -7.130429 0.614838 0
M  V30 2 C 2.916940 -6.803838 1.177776 0
M  V30 3 O 2.314066 -7.715377 2.032821 0
M  V30 4 C 2.352927 -5.504276 0.916919 0
M  V30 5 C 2.996794 -4.640703 0.057871 0
M  V30 6 C 2.452703 -3.397410 -0.188646 0
M  V30 7 C 1.280199 -2.959567 0.384832 0
M  V30 8 C 0.824701 -1.604872 0.023772 0
M  V30 9 N 1.050108 -0.658516 -0.594396 0
M  V30 10 N 0.334033 0.420081 -0.643967 0
M  V30 11 C -0.650991 0.618080 -0.078465 0
M  V30 12 N -1.462761 1.884509 -0.156222 0
M  V30 13 C -1.193998 2.918632 0.750416 0
M  V30 14 O -0.306049 2.823988 1.617692 0
M  V30 15 C -1.960925 4.160083 0.704237 0
M  V30 16 C -1.763974 5.231645 1.558947 0
M  V30 17 C -2.705670 6.175334 1.150236 0
M  V30 18 C -3.412734 5.622539 0.078719 0
M  V30 19 O -2.939322 4.433863 -0.148798 0
M  V30 20 S -0.797476 -1.042622 0.838658 0
M  V30 21 C 0.643864 -3.832007 1.243184 0
M  V30 22 C 1.177972 -5.073824 1.495693 0
M  V30 23 H 2.897892 -8.281190 2.662915 0
M  V30 24 H 3.921965 -4.903070 -0.435606 0
M  V30 25 H 2.974006 -2.739452 -0.863848 0
M  V30 26 H -2.198571 1.942703 -0.887164 0
M  V30 27 H -1.035651 5.310529 2.365306 0
M  V30 28 H -2.750097 7.136396 1.686562 0
M  V30 29 H -4.171909 6.287671 -0.308765 0
M  V30 30 H -0.272047 -3.477369 1.684949 0
M  V30 31 H 0.646232 -5.725845 2.174995 0
M  V30 END ATOM
M  V30 BEGIN BOND
M  V30 1 2 1 2
M  V30 2 1 2 3
M  V30 3 1 2 4
M  V30 4 2 4 5
M  V30 5 1 5 6
M  V30 6 2 6 7
M  V30 7 1 7 8
M  V30 8 2 8 9
M  V30 9 1 9 10
M  V30 10 2 10 11
M  V30 11 1 11 12
M  V30 12 1 12 13
M  V30 13 2 13 14
M  V30 14 1 13 15
M  V30 15 2 15 16
M  V30 16 1 16 17
M  V30 17 2 17 18
M  V30 18 1 18 19
M  V30 19 1 11 20
M  V30 20 1 7 21
M  V30 21 2 21 22
M  V30 22 1 22 4
M  V30 23 1 20 8
M  V30 24 1 19 15
M  V30 25 1 3 23
M  V30 26 1 5 24
M  V30 27 1 6 25
M  V30 28 1 12 26
M  V30 29 1 16 27
M  V30 30 1 17 28
M  V30 31 1 18 29
M  V30 32 1 21 30
M  V30 33 1 22 31
M  V30 END BOND
M  V30 END CTAB
M  END
>  <Dataset>  (673) 
ChEMBL_Kinases

>  <Ligand_Instance>  (673) 
nan

>  <PDB_ID>  (673) 
nan

>  <Standardized_SMILES>  (673) 
O=C(O)c1ccc(-c2nnc(NC(=O)c3ccco3)s2)cc1

>  <Name>  (673) 
nan

>  <Pocket>  (673) 
nan

>  <ATP_Site>  (673) 
nan

>  <Peripheral>  (673) 
nan

>  <Num_H_Atoms_ProtBoundConf>  (673) 
nan

>  <Num_Resolved_Atoms>  (673) 
nan

>  <Num_Not_Resolved_Atoms>  (673) 
nan

$$$$
CHEMBL589655
     RDKit          3D

  0  0  0  0  0  0  0  0  0  0999 V3000
M  V30 BEGIN CTAB
M  V30 COUNTS 42 44 0 0 0
M  V30 BEGIN ATOM
M  V30 1 N -0.450152 -1.720231 4.374406 0
M  V30 2 C -0.161806 -2.199286 3.063482 0
M  V30 3 N -0.297616 -3.480412 2.692478 0
M  V30 4 C -0.017070 -3.904574 1.441285 0
M  V30 5 C 0.425403 -2.989658 0.508290 0
M  V30 6 C 0.744520 -3.378777 -0.860760 0
M  V30 7 C 0.648324 -4.639301 -1.352286 0
M  V30 8 C 0.951234 -5.002240 -2.651202 0
M  V30 9 N 1.373511 -4.042984 -3.499159 0
M  V30 10 C 1.480749 -2.772163 -3.039992 0
M  V30 11 C 1.178582 -2.412108 -1.745185 0
M  V30 12 N 0.547257 -1.726471 0.915745 0
M  V30 13 C 0.280200 -1.262617 2.147392 0
M  V30 14 N 0.459206 0.123238 2.425301 0
M  V30 15 C -0.569517 1.040417 2.835042 0
M  V30 16 C -0.665036 2.250617 1.938279 0
M  V30 17 N 0.511131 2.601612 1.241374 0
M  V30 18 C 0.774799 2.014098 -0.017629 0
M  V30 19 C -0.106682 2.378086 -1.157679 0
M  V30 20 O -1.438045 2.086373 -1.010416 0
M  V30 21 C 1.644317 2.249108 2.109555 0
M  V30 22 C 1.751144 0.770702 2.318157 0
M  V30 23 H 0.297650 -1.426702 5.048261 0
M  V30 24 H -1.342065 -1.579242 4.873995 0
M  V30 25 H -0.145585 -4.946721 1.199474 0
M  V30 26 H 0.315617 -5.438084 -0.717340 0
M  V30 27 H 0.849445 -6.041646 -2.982111 0
M  V30 28 H 1.819639 -1.985066 -3.711856 0
M  V30 29 H 1.280742 -1.369144 -1.410647 0
M  V30 30 H -0.377368 1.304600 3.895786 0
M  V30 31 H -1.544173 0.468626 2.860521 0
M  V30 32 H -1.586433 2.176225 1.317324 0
M  V30 33 H -0.877061 3.118946 2.630974 0
M  V30 34 H 0.924196 0.917368 0.077251 0
M  V30 35 H 1.801708 2.387648 -0.311263 0
M  V30 36 H 0.074021 3.427158 -1.470774 0
M  V30 37 H 0.253843 1.753950 -2.029008 0
M  V30 38 H -1.680939 1.193290 -1.383590 0
M  V30 39 H 1.556235 2.837376 3.031480 0
M  V30 40 H 2.548034 2.544653 1.509324 0
M  V30 41 H 2.389142 0.239273 1.602428 0
M  V30 42 H 2.243792 0.641519 3.325007 0
M  V30 END ATOM
M  V30 BEGIN BOND
M  V30 1 1 1 2
M  V30 2 2 2 3
M  V30 3 1 3 4
M  V30 4 2 4 5
M  V30 5 1 5 6
M  V30 6 2 6 7
M  V30 7 1 7 8
M  V30 8 2 8 9
M  V30 9 1 9 10
M  V30 10 2 10 11
M  V30 11 1 5 12
M  V30 12 2 12 13
M  V30 13 1 13 14
M  V30 14 1 14 15
M  V30 15 1 15 16
M  V30 16 1 16 17
M  V30 17 1 17 18
M  V30 18 1 18 19
M  V30 19 1 19 20
M  V30 20 1 17 21
M  V30 21 1 21 22
M  V30 22 1 13 2
M  V30 23 1 22 14
M  V30 24 1 11 6
M  V30 25 1 1 23
M  V30 26 1 1 24
M  V30 27 1 4 25
M  V30 28 1 7 26
M  V30 29 1 8 27
M  V30 30 1 10 28
M  V30 31 1 11 29
M  V30 32 1 15 30
M  V30 33 1 15 31
M  V30 34 1 16 32
M  V30 35 1 16 33
M  V30 36 1 18 34
M  V30 37 1 18 35
M  V30 38 1 19 36
M  V30 39 1 19 37
M  V30 40 1 20 38
M  V30 41 1 21 39
M  V30 42 1 21 40
M  V30 43 1 22 41
M  V30 44 1 22 42
M  V30 END BOND
M  V30 END CTAB
M  END
>  <Dataset>  (674) 
ChEMBL_Kinases

>  <Ligand_Instance>  (674) 
nan

>  <PDB_ID>  (674) 
nan

>  <Standardized_SMILES>  (674) 
Nc1ncc(-c2ccncc2)nc1N1CCN(CCO)CC1

>  <Name>  (674) 
nan

>  <Pocket>  (674) 
nan

>  <ATP_Site>  (674) 
nan

>  <Peripheral>  (674) 
nan

>  <Num_H_Atoms_ProtBoundConf>  (674) 
nan

>  <Num_Resolved_Atoms>  (674) 
nan

>  <Num_Not_Resolved_Atoms>  (674) 
nan

$$$$
CHEMBL2070412
     RDKit          3D

  0  0  0  0  0  0  0  0  0  0999 V3000
M  V30 BEGIN CTAB
M  V30 COUNTS 73 77 0 0 0
M  V30 BEGIN ATOM
M  V30 1 C 7.171619 -4.643759 -4.385453 0
M  V30 2 N 6.860075 -5.111825 -5.731651 0
M  V30 3 C 5.548740 -5.770171 -5.678543 0
M  V30 4 C 4.615825 -5.173526 -6.682765 0
M  V30 5 N 4.351735 -3.739434 -6.418663 0
M  V30 6 C 3.473831 -3.628502 -5.306333 0
M  V30 7 C 2.927634 -2.294765 -4.938562 0
M  V30 8 C 3.876099 -1.218944 -4.568330 0
M  V30 9 O 3.237966 0.004584 -4.155128 0
M  V30 10 C 2.461437 0.131882 -3.028050 0
M  V30 11 C 2.089886 -0.732885 -2.008794 0
M  V30 12 C 1.278391 -0.362676 -0.963445 0
M  V30 13 C 0.781137 0.943190 -0.885205 0
M  V30 14 N -0.028631 1.051421 0.299593 0
M  V30 15 C -1.404733 0.832788 0.441925 0
M  V30 16 O -2.107587 0.512298 -0.572670 0
M  V30 17 C -1.914428 0.998258 1.778045 0
M  V30 18 C -2.986125 0.541460 2.337569 0
M  V30 19 C -3.336539 0.824475 3.732240 0
M  V30 20 C -3.168384 2.002367 4.426254 0
M  V30 21 C -3.561136 2.056326 5.758424 0
M  V30 22 C -4.118329 0.944047 6.396482 0
M  V30 23 O -4.503194 1.026359 7.735516 0
M  V30 24 C -5.789325 1.397142 8.106691 0
M  V30 25 C -6.130893 1.470250 9.440515 0
M  V30 26 C -7.379099 1.827469 9.901775 0
M  V30 27 C -8.357039 2.133891 8.953043 0
M  V30 28 C -8.038933 2.067573 7.615071 0
M  V30 29 C -9.070145 2.389128 6.610197 0
M  V30 30 N -8.738312 2.335120 5.237164 0
M  V30 31 O -10.238897 2.711100 6.951288 0
M  V30 32 C -6.776327 1.706098 7.176504 0
M  V30 33 C -4.293324 -0.242881 5.712820 0
M  V30 34 C -3.897185 -0.280753 4.387264 0
M  V30 35 S -0.657908 2.036154 2.566980 0
M  V30 36 C 0.678807 1.412142 1.505664 0
M  V30 37 S 2.241396 1.315694 1.891826 0
M  V30 38 C 1.130707 1.824739 -1.878296 0
M  V30 39 C 1.945419 1.410349 -2.906521 0
M  V30 40 C 5.631127 -3.066869 -6.239231 0
M  V30 41 C 6.798447 -3.975669 -6.644151 0
M  V30 42 H 7.941595 -5.291246 -3.966215 0
M  V30 43 H 6.281637 -4.677063 -3.744253 0
M  V30 44 H 7.603839 -3.606944 -4.419059 0
M  V30 45 H 5.119299 -5.747050 -4.654693 0
M  V30 46 H 5.734479 -6.819056 -5.979411 0
M  V30 47 H 5.015448 -5.253250 -7.697445 0
M  V30 48 H 3.636049 -5.685469 -6.606514 0
M  V30 49 H 2.577669 -4.287001 -5.532912 0
M  V30 50 H 3.929497 -4.102326 -4.375213 0
M  V30 51 H 2.127687 -2.421138 -4.192623 0
M  V30 52 H 2.394764 -1.899541 -5.892729 0
M  V30 53 H 4.512105 -1.500587 -3.700670 0
M  V30 54 H 4.517480 -0.870247 -5.424166 0
M  V30 55 H 2.516714 -1.714707 -2.101398 0
M  V30 56 H 1.100108 -1.186641 -0.258708 0
M  V30 57 H -3.631705 -0.069702 1.722429 0
M  V30 58 H -2.737742 2.780147 3.847892 0
M  V30 59 H -3.405936 3.001757 6.252937 0
M  V30 60 H -5.412551 1.242153 10.244303 0
M  V30 61 H -7.705309 1.901017 10.914260 0
M  V30 62 H -9.379512 2.430102 9.143939 0
M  V30 63 H -9.111472 1.605558 4.563055 0
M  V30 64 H -8.463896 2.340869 4.242544 0
M  V30 65 H -6.529590 1.655975 6.127780 0
M  V30 66 H -4.724958 -1.104009 6.205501 0
M  V30 67 H -4.061961 -1.253177 3.900849 0
M  V30 68 H 0.682254 2.787492 -1.694091 0
M  V30 69 H 2.109271 2.253412 -3.598112 0
M  V30 70 H 5.673594 -2.232592 -6.965338 0
M  V30 71 H 5.831862 -2.772286 -5.195373 0
M  V30 72 H 7.726409 -3.390572 -6.494818 0
M  V30 73 H 6.769798 -4.283149 -7.679680 0
M  V30 END ATOM
M  V30 BEGIN BOND
M  V30 1 1 1 2
M  V30 2 1 2 3
M  V30 3 1 3 4
M  V30 4 1 4 5
M  V30 5 1 5 6
M  V30 6 1 6 7
M  V30 7 1 7 8
M  V30 8 1 8 9
M  V30 9 1 9 10
M  V30 10 2 10 11
M  V30 11 1 11 12
M  V30 12 2 12 13
M  V30 13 1 13 14
M  V30 14 1 14 15
M  V30 15 2 15 16
M  V30 16 1 15 17
M  V30 17 2 17 18
M  V30 18 1 18 19
M  V30 19 2 19 20
M  V30 20 1 20 21
M  V30 21 2 21 22
M  V30 22 1 22 23
M  V30 23 1 23 24
M  V30 24 2 24 25
M  V30 25 1 25 26
M  V30 26 2 26 27
M  V30 27 1 27 28
M  V30 28 1 28 29
M  V30 29 1 29 30
M  V30 30 2 29 31
M  V30 31 2 28 32
M  V30 32 1 22 33
M  V30 33 2 33 34
M  V30 34 1 17 35
M  V30 35 1 35 36
M  V30 36 2 36 37
M  V30 37 1 13 38
M  V30 38 2 38 39
M  V30 39 1 5 40
M  V30 40 1 40 41
M  V30 41 1 41 2
M  V30 42 1 39 10
M  V30 43 1 36 14
M  V30 44 1 34 19
M  V30 45 1 32 24
M  V30 46 1 1 42
M  V30 47 1 1 43
M  V30 48 1 1 44
M  V30 49 1 3 45
M  V30 50 1 3 46
M  V30 51 1 4 47
M  V30 52 1 4 48
M  V30 53 1 6 49
M  V30 54 1 6 50
M  V30 55 1 7 51
M  V30 56 1 7 52
M  V30 57 1 8 53
M  V30 58 1 8 54
M  V30 59 1 11 55
M  V30 60 1 12 56
M  V30 61 1 18 57
M  V30 62 1 20 58
M  V30 63 1 21 59
M  V30 64 1 25 60
M  V30 65 1 26 61
M  V30 66 1 27 62
M  V30 67 1 30 63
M  V30 68 1 30 64
M  V30 69 1 32 65
M  V30 70 1 33 66
M  V30 71 1 34 67
M  V30 72 1 38 68
M  V30 73 1 39 69
M  V30 74 1 40 70
M  V30 75 1 40 71
M  V30 76 1 41 72
M  V30 77 1 41 73
M  V30 END BOND
M  V30 END CTAB
M  END
>  <Dataset>  (675) 
ChEMBL_Kinases

>  <Ligand_Instance>  (675) 
nan

>  <PDB_ID>  (675) 
nan

>  <Standardized_SMILES>  (675) 
CN1CCN(CCCOc2ccc(N3C(=O)/C(=C/c4ccc(Oc5cccc(C(N)=O)c5)cc4)SC3=S)cc2)CC1

>  <Name>  (675) 
nan

>  <Pocket>  (675) 
nan

>  <ATP_Site>  (675) 
nan

>  <Peripheral>  (675) 
nan

>  <Num_H_Atoms_ProtBoundConf>  (675) 
nan

>  <Num_Resolved_Atoms>  (675) 
nan

>  <Num_Not_Resolved_Atoms>  (675) 
nan

$$$$
CHEMBL593153
     RDKit          3D

  0  0  0  0  0  0  0  0  0  0999 V3000
M  V30 BEGIN CTAB
M  V30 COUNTS 21 22 0 0 0
M  V30 BEGIN ATOM
M  V30 1 O -0.362293 -2.689538 0.331405 0
M  V30 2 C 0.716758 -2.752312 0.969221 0
M  V30 3 O 1.259776 -4.021993 0.885917 0
M  V30 4 C 1.408324 -1.674966 1.742931 0
M  V30 5 N 0.668502 -0.457842 1.689071 0
M  V30 6 C -0.244018 -0.141590 2.656535 0
M  V30 7 N -0.808583 1.048345 2.422894 0
M  V30 8 C -0.299925 1.556197 1.310319 0
M  V30 9 C -0.498471 2.713411 0.604024 0
M  V30 10 I -1.899809 4.134913 1.309521 0
M  V30 11 C 0.222577 2.924629 -0.554132 0
M  V30 12 I -0.155903 4.744026 -1.573837 0
M  V30 13 C 1.132185 1.970104 -0.985624 0
M  V30 14 I 2.191110 2.374975 -2.767220 0
M  V30 15 C 1.319760 0.825811 -0.275155 0
M  V30 16 I 2.697726 -0.535523 -1.034949 0
M  V30 17 C 0.604713 0.608879 0.881028 0
M  V30 18 H 0.717227 -4.877186 0.829839 0
M  V30 19 H 2.448106 -1.635688 1.400226 0
M  V30 20 H 1.455818 -2.090821 2.789868 0
M  V30 21 H -0.525739 -0.738667 3.536675 0
M  V30 END ATOM
M  V30 BEGIN BOND
M  V30 1 2 1 2
M  V30 2 1 2 3
M  V30 3 1 2 4
M  V30 4 1 4 5
M  V30 5 1 5 6
M  V30 6 2 6 7
M  V30 7 1 7 8
M  V30 8 2 8 9
M  V30 9 1 9 10
M  V30 10 1 9 11
M  V30 11 1 11 12
M  V30 12 2 11 13
M  V30 13 1 13 14
M  V30 14 1 13 15
M  V30 15 1 15 16
M  V30 16 2 15 17
M  V30 17 1 17 5
M  V30 18 1 17 8
M  V30 19 1 3 18
M  V30 20 1 4 19
M  V30 21 1 4 20
M  V30 22 1 6 21
M  V30 END BOND
M  V30 END CTAB
M  END
>  <Dataset>  (676) 
ChEMBL_Kinases

>  <Ligand_Instance>  (676) 
nan

>  <PDB_ID>  (676) 
nan

>  <Standardized_SMILES>  (676) 
O=C(O)Cn1cnc2c(I)c(I)c(I)c(I)c21

>  <Name>  (676) 
nan

>  <Pocket>  (676) 
nan

>  <ATP_Site>  (676) 
nan

>  <Peripheral>  (676) 
nan

>  <Num_H_Atoms_ProtBoundConf>  (676) 
nan

>  <Num_Resolved_Atoms>  (676) 
nan

>  <Num_Not_Resolved_Atoms>  (676) 
nan

$$$$
CHEMBL1083150
     RDKit          3D

  0  0  0  0  0  0  0  0  0  0999 V3000
M  V30 BEGIN CTAB
M  V30 COUNTS 39 41 0 0 0
M  V30 BEGIN ATOM
M  V30 1 C -1.069353 -4.665048 4.233844 0
M  V30 2 N 0.262738 -5.005045 3.722660 0
M  V30 3 C 0.894265 -4.136690 2.810391 0
M  V30 4 C 2.140664 -4.428683 2.315010 0
M  V30 5 C 2.769759 -3.597597 1.428193 0
M  V30 6 C 2.201809 -2.406033 0.965047 0
M  V30 7 N 2.864202 -1.562774 0.052766 0
M  V30 8 C 2.444915 -0.342022 -0.525902 0
M  V30 9 N 3.290917 0.257692 -1.369764 0
M  V30 10 C 3.060761 1.409464 -2.004579 0
M  V30 11 C 1.842457 2.005563 -1.748963 0
M  V30 12 C 0.969368 1.417466 -0.898381 0
M  V30 13 C -0.336091 2.107931 -0.658241 0
M  V30 14 S -0.662331 3.695166 -1.523465 0
M  V30 15 C -2.372918 3.851256 -0.719235 0
M  V30 16 C -3.356318 4.969400 -0.929297 0
M  V30 17 N -2.359020 2.910172 -0.111141 0
M  V30 18 C -1.482534 1.950625 0.052004 0
M  V30 19 C -1.585415 0.736689 0.899018 0
M  V30 20 N 1.274574 0.279394 -0.312426 0
M  V30 21 C 0.956419 -2.175989 1.500225 0
M  V30 22 C 0.278578 -2.975614 2.393344 0
M  V30 23 H -1.791764 -4.559741 3.395535 0
M  V30 24 H -1.457247 -5.463593 4.885295 0
M  V30 25 H -1.021745 -3.736336 4.812210 0
M  V30 26 H 0.736593 -5.880758 4.031929 0
M  V30 27 H 2.651536 -5.333492 2.622902 0
M  V30 28 H 3.767633 -3.889246 1.069243 0
M  V30 29 H 3.824767 -1.933772 -0.219909 0
M  V30 30 H 3.795043 1.827496 -2.669635 0
M  V30 31 H 1.707291 2.939345 -2.290954 0
M  V30 32 H -4.236919 4.648111 -1.483803 0
M  V30 33 H -2.861020 5.819828 -1.462346 0
M  V30 34 H -3.584705 5.350158 0.100531 0
M  V30 35 H -0.729970 0.762899 1.603794 0
M  V30 36 H -1.466324 -0.178850 0.279498 0
M  V30 37 H -2.498368 0.711053 1.512820 0
M  V30 38 H 0.425918 -1.290877 1.216661 0
M  V30 39 H -0.701198 -2.728352 2.771235 0
M  V30 END ATOM
M  V30 BEGIN BOND
M  V30 1 1 1 2
M  V30 2 1 2 3
M  V30 3 2 3 4
M  V30 4 1 4 5
M  V30 5 2 5 6
M  V30 6 1 6 7
M  V30 7 1 7 8
M  V30 8 2 8 9
M  V30 9 1 9 10
M  V30 10 2 10 11
M  V30 11 1 11 12
M  V30 12 1 12 13
M  V30 13 1 13 14
M  V30 14 1 14 15
M  V30 15 1 15 16
M  V30 16 2 15 17
M  V30 17 1 17 18
M  V30 18 1 18 19
M  V30 19 2 12 20
M  V30 20 1 6 21
M  V30 21 2 21 22
M  V30 22 1 22 3
M  V30 23 1 20 8
M  V30 24 2 18 13
M  V30 25 1 1 23
M  V30 26 1 1 24
M  V30 27 1 1 25
M  V30 28 1 2 26
M  V30 29 1 4 27
M  V30 30 1 5 28
M  V30 31 1 7 29
M  V30 32 1 10 30
M  V30 33 1 11 31
M  V30 34 1 16 32
M  V30 35 1 16 33
M  V30 36 1 16 34
M  V30 37 1 19 35
M  V30 38 1 19 36
M  V30 39 1 19 37
M  V30 40 1 21 38
M  V30 41 1 22 39
M  V30 END BOND
M  V30 END CTAB
M  END
>  <Dataset>  (677) 
ChEMBL_Kinases

>  <Ligand_Instance>  (677) 
nan

>  <PDB_ID>  (677) 
nan

>  <Standardized_SMILES>  (677) 
CNc1ccc(Nc2nccc(-c3sc(C)nc3C)n2)cc1

>  <Name>  (677) 
nan

>  <Pocket>  (677) 
nan

>  <ATP_Site>  (677) 
nan

>  <Peripheral>  (677) 
nan

>  <Num_H_Atoms_ProtBoundConf>  (677) 
nan

>  <Num_Resolved_Atoms>  (677) 
nan

>  <Num_Not_Resolved_Atoms>  (677) 
nan

$$$$
CHEMBL1095989
     RDKit          3D

  0  0  0  0  0  0  0  0  0  0999 V3000
M  V30 BEGIN CTAB
M  V30 COUNTS 85 90 0 0 0
M  V30 BEGIN ATOM
M  V30 1 C -3.113422 -6.260903 0.309844 0
M  V30 2 C -1.771708 -6.756758 0.727086 0
M  V30 3 N -0.757726 -5.828820 0.317299 0
M  V30 4 C -0.158215 -5.934595 -0.881695 0
M  V30 5 C 0.753104 -4.930496 -0.985746 0
M  V30 6 C 1.766798 -4.352367 -1.899062 0
M  V30 7 C 2.986458 -4.953992 -2.181668 0
M  V30 8 C 3.816029 -4.260934 -3.037403 0
M  V30 9 N 3.493202 -3.077745 -3.578962 0
M  V30 10 C 2.321255 -2.466198 -3.328580 0
M  V30 11 N 1.732882 -1.320823 -3.714241 0
M  V30 12 C 0.514816 -1.161122 -3.174152 0
M  V30 13 C -0.493669 -0.090501 -3.275502 0
M  V30 14 N -0.453204 0.861237 -2.183708 0
M  V30 15 C -1.433805 1.870142 -2.453171 0
M  V30 16 C -1.584417 2.852979 -1.307706 0
M  V30 17 C -2.040799 2.131565 -0.046422 0
M  V30 18 N -3.289317 1.496320 -0.269850 0
M  V30 19 C -4.426716 2.358481 -0.448863 0
M  V30 20 C -5.531149 1.489662 -1.025093 0
M  V30 21 N -5.729432 0.251452 -0.388617 0
M  V30 22 C -6.965344 0.012112 0.262304 0
M  V30 23 C -4.588715 -0.442711 0.060100 0
M  V30 24 C -3.622307 0.523017 0.741411 0
M  V30 25 C 0.336208 -2.293200 -2.394000 0
M  V30 26 C 1.450573 -3.115818 -2.477866 0
M  V30 27 C 0.686848 -4.195752 0.212208 0
M  V30 28 C 1.406267 -3.017705 0.741568 0
M  V30 29 C 2.752208 -3.312740 0.981993 0
M  V30 30 C 3.619318 -2.361458 1.468954 0
M  V30 31 C 3.203386 -1.079307 1.740929 0
M  V30 32 N 4.125817 -0.146219 2.232001 0
M  V30 33 C 3.993679 1.205379 2.567827 0
M  V30 34 O 2.870767 1.750259 2.430542 0
M  V30 35 N 5.024769 2.047067 3.059885 0
M  V30 36 C 4.566325 3.397302 3.305314 0
M  V30 37 C 4.722840 4.172055 2.162179 0
M  V30 38 C 4.321714 5.504633 2.246094 0
M  V30 39 C 3.799644 5.980898 3.434341 0
M  V30 40 C 3.657045 5.186472 4.551229 0
M  V30 41 C 4.047739 3.860098 4.494592 0
M  V30 42 C 1.877625 -0.829267 1.492650 0
M  V30 43 C 0.971208 -1.741776 1.007824 0
M  V30 44 N -0.257480 -4.783593 0.987169 0
M  V30 45 H -3.886442 -7.010370 0.595447 0
M  V30 46 H -3.185287 -6.113055 -0.773606 0
M  V30 47 H -3.314255 -5.330900 0.872633 0
M  V30 48 H -1.563318 -7.773381 0.309340 0
M  V30 49 H -1.739048 -6.856765 1.835251 0
M  V30 50 H -0.204254 -6.569352 -1.740242 0
M  V30 51 H 3.190357 -5.905305 -1.717338 0
M  V30 52 H 4.775401 -4.724496 -3.263421 0
M  V30 53 H 2.163459 -0.612372 -4.368138 0
M  V30 54 H -0.226141 0.485225 -4.208398 0
M  V30 55 H -1.501878 -0.518599 -3.452539 0
M  V30 56 H -0.636330 0.338030 -1.306125 0
M  V30 57 H -1.087406 2.426416 -3.359839 0
M  V30 58 H -2.406198 1.410897 -2.726354 0
M  V30 59 H -0.617683 3.318065 -1.101823 0
M  V30 60 H -2.310907 3.610571 -1.591354 0
M  V30 61 H -2.153729 2.904432 0.737255 0
M  V30 62 H -1.298834 1.411405 0.291925 0
M  V30 63 H -4.257817 3.215820 -1.129058 0
M  V30 64 H -4.759322 2.717353 0.570717 0
M  V30 65 H -5.238272 1.320649 -2.098837 0
M  V30 66 H -6.478519 2.072532 -1.063594 0
M  V30 67 H -6.885397 -0.855839 0.956414 0
M  V30 68 H -7.695351 -0.327365 -0.529674 0
M  V30 69 H -7.435686 0.878340 0.745375 0
M  V30 70 H -4.042397 -0.827359 -0.833894 0
M  V30 71 H -4.869272 -1.296695 0.712810 0
M  V30 72 H -2.767242 0.024229 1.199144 0
M  V30 73 H -4.233067 1.062778 1.525278 0
M  V30 74 H -0.534395 -2.522400 -1.798758 0
M  V30 75 H 3.207810 -4.290841 0.808387 0
M  V30 76 H 4.666605 -2.611548 1.649542 0
M  V30 77 H 5.123492 -0.458280 2.401626 0
M  V30 78 H 5.987449 1.617154 3.194180 0
M  V30 79 H 5.119872 3.853344 1.222195 0
M  V30 80 H 4.410544 6.165831 1.412018 0
M  V30 81 H 3.463687 7.009123 3.581367 0
M  V30 82 H 3.262555 5.465503 5.520204 0
M  V30 83 H 4.026230 3.073730 5.234411 0
M  V30 84 H 1.453824 0.145429 1.673217 0
M  V30 85 H -0.067532 -1.611617 0.793963 0
M  V30 END ATOM
M  V30 BEGIN BOND
M  V30 1 1 1 2
M  V30 2 1 2 3
M  V30 3 1 3 4
M  V30 4 2 4 5
M  V30 5 1 5 6
M  V30 6 2 6 7
M  V30 7 1 7 8
M  V30 8 2 8 9
M  V30 9 1 9 10
M  V30 10 1 10 11
M  V30 11 1 11 12
M  V30 12 1 12 13
M  V30 13 1 13 14
M  V30 14 1 14 15
M  V30 15 1 15 16
M  V30 16 1 16 17
M  V30 17 1 17 18
M  V30 18 1 18 19
M  V30 19 1 19 20
M  V30 20 1 20 21
M  V30 21 1 21 22
M  V30 22 1 21 23
M  V30 23 1 23 24
M  V30 24 2 12 25
M  V30 25 1 25 26
M  V30 26 1 5 27
M  V30 27 1 27 28
M  V30 28 2 28 29
M  V30 29 1 29 30
M  V30 30 2 30 31
M  V30 31 1 31 32
M  V30 32 1 32 33
M  V30 33 2 33 34
M  V30 34 1 33 35
M  V30 35 1 35 36
M  V30 36 2 36 37
M  V30 37 1 37 38
M  V30 38 2 38 39
M  V30 39 1 39 40
M  V30 40 2 40 41
M  V30 41 1 31 42
M  V30 42 2 42 43
M  V30 43 2 27 44
M  V30 44 1 44 3
M  V30 45 1 26 6
M  V30 46 1 43 28
M  V30 47 2 26 10
M  V30 48 1 41 36
M  V30 49 1 24 18
M  V30 50 1 1 45
M  V30 51 1 1 46
M  V30 52 1 1 47
M  V30 53 1 2 48
M  V30 54 1 2 49
M  V30 55 1 4 50
M  V30 56 1 7 51
M  V30 57 1 8 52
M  V30 58 1 11 53
M  V30 59 1 13 54
M  V30 60 1 13 55
M  V30 61 1 14 56
M  V30 62 1 15 57
M  V30 63 1 15 58
M  V30 64 1 16 59
M  V30 65 1 16 60
M  V30 66 1 17 61
M  V30 67 1 17 62
M  V30 68 1 19 63
M  V30 69 1 19 64
M  V30 70 1 20 65
M  V30 71 1 20 66
M  V30 72 1 22 67
M  V30 73 1 22 68
M  V30 74 1 22 69
M  V30 75 1 23 70
M  V30 76 1 23 71
M  V30 77 1 24 72
M  V30 78 1 24 73
M  V30 79 1 25 74
M  V30 80 1 29 75
M  V30 81 1 30 76
M  V30 82 1 32 77
M  V30 83 1 35 78
M  V30 84 1 37 79
M  V30 85 1 38 80
M  V30 86 1 39 81
M  V30 87 1 40 82
M  V30 88 1 41 83
M  V30 89 1 42 84
M  V30 90 1 43 85
M  V30 END BOND
M  V30 END CTAB
M  END
>  <Dataset>  (678) 
ChEMBL_Kinases

>  <Ligand_Instance>  (678) 
nan

>  <PDB_ID>  (678) 
nan

>  <Standardized_SMILES>  (678) 
CCn1cc(-c2ccnc3[nH]c(CNCCCN4CCN(C)CC4)cc23)c(-c2ccc(NC(=O)Nc3ccccc3)cc2)n1

>  <Name>  (678) 
nan

>  <Pocket>  (678) 
nan

>  <ATP_Site>  (678) 
nan

>  <Peripheral>  (678) 
nan

>  <Num_H_Atoms_ProtBoundConf>  (678) 
nan

>  <Num_Resolved_Atoms>  (678) 
nan

>  <Num_Not_Resolved_Atoms>  (678) 
nan

$$$$
CHEMBL214005
     RDKit          3D

  0  0  0  0  0  0  0  0  0  0999 V3000
M  V30 BEGIN CTAB
M  V30 COUNTS 40 44 0 0 0
M  V30 BEGIN ATOM
M  V30 1 C 2.906092 -2.238168 1.997548 0
M  V30 2 N 2.078963 -1.897611 0.846962 0
M  V30 3 C 2.167014 -2.355196 -0.415615 0
M  V30 4 C 3.098899 -3.273650 -0.877553 0
M  V30 5 C 3.098318 -3.674510 -2.197342 0
M  V30 6 C 2.132936 -3.128851 -3.053297 0
M  V30 7 O 2.124814 -3.526301 -4.382664 0
M  V30 8 C 1.243906 -2.224489 -2.520023 0
M  V30 9 C 1.204932 -1.798882 -1.227351 0
M  V30 10 C 0.495549 -0.961263 -0.420687 0
M  V30 11 C -0.566450 -0.163168 -0.710141 0
M  V30 12 C -1.121958 0.603827 0.285932 0
M  V30 13 C -0.611806 0.569157 1.568324 0
M  V30 14 C -1.037735 1.315273 2.744282 0
M  V30 15 C -1.241280 2.672118 2.889147 0
M  V30 16 C -1.664162 3.209817 4.085584 0
M  V30 17 C -1.900771 2.423899 5.183184 0
M  V30 18 C -1.716008 1.058945 5.105705 0
M  V30 19 C -1.292423 0.554620 3.892982 0
M  V30 20 C 0.482997 -0.259549 1.849949 0
M  V30 21 C 1.036153 -1.027840 0.844076 0
M  V30 22 C -2.252908 1.396292 -0.179093 0
M  V30 23 O -2.980622 2.194562 0.462981 0
M  V30 24 N -2.357699 1.056303 -1.567226 0
M  V30 25 C -1.345243 0.120838 -1.883869 0
M  V30 26 O -1.301438 -0.272911 -3.047004 0
M  V30 27 H 3.393021 -3.211582 1.869140 0
M  V30 28 H 3.681412 -1.445881 2.071756 0
M  V30 29 H 2.270613 -2.199687 2.908075 0
M  V30 30 H 3.853336 -3.709574 -0.239876 0
M  V30 31 H 3.830707 -4.390617 -2.541533 0
M  V30 32 H 2.210759 -2.826909 -5.107870 0
M  V30 33 H 0.548362 -1.860242 -3.232947 0
M  V30 34 H -1.034187 3.255365 2.002524 0
M  V30 35 H -1.793878 4.283502 4.094549 0
M  V30 36 H -2.232765 2.867661 6.113932 0
M  V30 37 H -1.890647 0.402462 5.946563 0
M  V30 38 H -1.155497 -0.533323 3.865688 0
M  V30 39 H 0.955987 -0.354124 2.836952 0
M  V30 40 H -3.113813 1.501243 -2.155916 0
M  V30 END ATOM
M  V30 BEGIN BOND
M  V30 1 1 1 2
M  V30 2 1 2 3
M  V30 3 2 3 4
M  V30 4 1 4 5
M  V30 5 2 5 6
M  V30 6 1 6 7
M  V30 7 1 6 8
M  V30 8 2 8 9
M  V30 9 1 9 10
M  V30 10 2 10 11
M  V30 11 1 11 12
M  V30 12 2 12 13
M  V30 13 1 13 14
M  V30 14 2 14 15
M  V30 15 1 15 16
M  V30 16 2 16 17
M  V30 17 1 17 18
M  V30 18 2 18 19
M  V30 19 1 13 20
M  V30 20 2 20 21
M  V30 21 1 12 22
M  V30 22 2 22 23
M  V30 23 1 22 24
M  V30 24 1 24 25
M  V30 25 2 25 26
M  V30 26 1 21 2
M  V30 27 1 9 3
M  V30 28 1 21 10
M  V30 29 1 25 11
M  V30 30 1 19 14
M  V30 31 1 1 27
M  V30 32 1 1 28
M  V30 33 1 1 29
M  V30 34 1 4 30
M  V30 35 1 5 31
M  V30 36 1 7 32
M  V30 37 1 8 33
M  V30 38 1 15 34
M  V30 39 1 16 35
M  V30 40 1 17 36
M  V30 41 1 18 37
M  V30 42 1 19 38
M  V30 43 1 20 39
M  V30 44 1 24 40
M  V30 END BOND
M  V30 END CTAB
M  END
>  <Dataset>  (679) 
ChEMBL_Kinases

>  <Ligand_Instance>  (679) 
nan

>  <PDB_ID>  (679) 
nan

>  <Standardized_SMILES>  (679) 
Cn1c2ccc(O)cc2c2c3c(c(-c4ccccc4)cc21)C(=O)NC3=O

>  <Name>  (679) 
nan

>  <Pocket>  (679) 
nan

>  <ATP_Site>  (679) 
nan

>  <Peripheral>  (679) 
nan

>  <Num_H_Atoms_ProtBoundConf>  (679) 
nan

>  <Num_Resolved_Atoms>  (679) 
nan

>  <Num_Not_Resolved_Atoms>  (679) 
nan

$$$$
CHEMBL2089000
     RDKit          3D

  0  0  0  0  0  0  0  0  0  0999 V3000
M  V30 BEGIN CTAB
M  V30 COUNTS 32 35 0 0 0
M  V30 BEGIN ATOM
M  V30 1 C -1.917349 -2.540989 5.222752 0
M  V30 2 O -1.751235 -1.720459 4.056288 0
M  V30 3 C -0.702546 -1.957318 3.187531 0
M  V30 4 O 0.004821 -2.910161 3.552470 0
M  V30 5 C -0.460063 -1.179033 1.987771 0
M  V30 6 C 0.627829 -1.531258 1.214230 0
M  V30 7 C 0.829599 -0.768186 0.077499 0
M  V30 8 C 1.786229 -0.815967 -0.916758 0
M  V30 9 C 2.888119 -1.649438 -1.128631 0
M  V30 10 C 3.685589 -1.450237 -2.244045 0
M  V30 11 C 3.431626 -0.448709 -3.165708 0
M  V30 12 C 2.338636 0.390827 -2.970893 0
M  V30 13 C 1.556802 0.175006 -1.852741 0
M  V30 14 N 0.450976 0.836573 -1.430410 0
M  V30 15 C 0.010645 0.284379 -0.284307 0
M  V30 16 C -1.075088 0.627030 0.498343 0
M  V30 17 N -2.030591 1.569828 0.418261 0
M  V30 18 C -2.889101 1.489351 1.458475 0
M  V30 19 C -2.414355 0.425735 2.211895 0
M  V30 20 C -1.287721 -0.130613 1.640502 0
M  V30 21 H -0.947570 -2.652535 5.754543 0
M  V30 22 H -2.274788 -3.543439 4.904560 0
M  V30 23 H -2.611615 -2.050395 5.935643 0
M  V30 24 H 1.300709 -2.326696 1.428312 0
M  V30 25 H 3.112360 -2.431465 -0.437480 0
M  V30 26 H 4.555705 -2.070455 -2.456829 0
M  V30 27 H 4.045812 -0.274894 -4.049215 0
M  V30 28 H 2.117578 1.180809 -3.675098 0
M  V30 29 H 0.010391 1.652252 -1.924108 0
M  V30 30 H -2.057233 2.251234 -0.369487 0
M  V30 31 H -3.745723 2.125813 1.637009 0
M  V30 32 H -2.890561 0.099113 3.127001 0
M  V30 END ATOM
M  V30 BEGIN BOND
M  V30 1 1 1 2
M  V30 2 1 2 3
M  V30 3 2 3 4
M  V30 4 1 3 5
M  V30 5 2 5 6
M  V30 6 1 6 7
M  V30 7 1 7 8
M  V30 8 2 8 9
M  V30 9 1 9 10
M  V30 10 2 10 11
M  V30 11 1 11 12
M  V30 12 2 12 13
M  V30 13 1 13 14
M  V30 14 1 14 15
M  V30 15 1 15 16
M  V30 16 1 16 17
M  V30 17 1 17 18
M  V30 18 2 18 19
M  V30 19 1 19 20
M  V30 20 1 20 5
M  V30 21 2 15 7
M  V30 22 2 20 16
M  V30 23 1 13 8
M  V30 24 1 1 21
M  V30 25 1 1 22
M  V30 26 1 1 23
M  V30 27 1 6 24
M  V30 28 1 9 25
M  V30 29 1 10 26
M  V30 30 1 11 27
M  V30 31 1 12 28
M  V30 32 1 14 29
M  V30 33 1 17 30
M  V30 34 1 18 31
M  V30 35 1 19 32
M  V30 END BOND
M  V30 END CTAB
M  END
>  <Dataset>  (680) 
ChEMBL_Kinases

>  <Ligand_Instance>  (680) 
nan

>  <PDB_ID>  (680) 
nan

>  <Standardized_SMILES>  (680) 
COC(=O)c1cc2c3ccccc3[nH]c2c2[nH]ccc12

>  <Name>  (680) 
nan

>  <Pocket>  (680) 
nan

>  <ATP_Site>  (680) 
nan

>  <Peripheral>  (680) 
nan

>  <Num_H_Atoms_ProtBoundConf>  (680) 
nan

>  <Num_Resolved_Atoms>  (680) 
nan

>  <Num_Not_Resolved_Atoms>  (680) 
nan

$$$$
CHEMBL1087421
     RDKit          3D

  0  0  0  0  0  0  0  0  0  0999 V3000
M  V30 BEGIN CTAB
M  V30 COUNTS 33 35 0 0 0
M  V30 BEGIN ATOM
M  V30 1 C -0.902015 -4.763471 3.810141 0
M  V30 2 O 0.067480 -3.811375 3.550198 0
M  V30 3 C 0.063464 -2.849997 2.560786 0
M  V30 4 C -1.016532 -2.792849 1.703465 0
M  V30 5 C -1.045492 -1.841992 0.704986 0
M  V30 6 C -0.073219 -0.912746 0.470198 0
M  V30 7 C 0.967863 -1.017524 1.349880 0
M  V30 8 C 1.099911 -1.924055 2.377182 0
M  V30 9 Cl 2.432612 -2.029950 3.470792 0
M  V30 10 C -0.099792 0.159363 -0.489644 0
M  V30 11 C 0.903805 1.159939 -0.736070 0
M  V30 12 C 2.177903 1.455130 -0.452289 0
M  V30 13 C 2.933276 2.568751 -0.688261 0
M  V30 14 C 2.302676 3.600718 -1.339836 0
M  V30 15 Cl 3.210611 5.056899 -1.672252 0
M  V30 16 C 0.987028 3.469527 -1.711667 0
M  V30 17 Cl 0.222581 4.804926 -2.536592 0
M  V30 18 C 0.367458 2.286350 -1.400160 0
M  V30 19 N -1.206759 0.127688 -1.101675 0
M  V30 20 C -2.339598 -0.675833 -1.047719 0
M  V30 21 C -2.230150 -1.866053 -0.184107 0
M  V30 22 H -1.906435 -4.299951 3.712558 0
M  V30 23 H -0.897678 -5.659063 3.159751 0
M  V30 24 H -0.792167 -5.053270 4.892136 0
M  V30 25 H -1.825521 -3.501323 1.833266 0
M  V30 26 H 1.788793 -0.350896 1.345470 0
M  V30 27 H 2.687825 0.634173 -0.012838 0
M  V30 28 H 3.959104 2.576995 -0.357488 0
M  V30 29 H -0.682480 2.324391 -1.757068 0
M  V30 30 H -2.690778 -1.045504 -2.056670 0
M  V30 31 H -3.200554 -0.049173 -0.632144 0
M  V30 32 H -3.154236 -1.941715 0.466710 0
M  V30 33 H -2.168004 -2.820183 -0.795933 0
M  V30 END ATOM
M  V30 BEGIN BOND
M  V30 1 1 1 2
M  V30 2 1 2 3
M  V30 3 2 3 4
M  V30 4 1 4 5
M  V30 5 2 5 6
M  V30 6 1 6 7
M  V30 7 2 7 8
M  V30 8 1 8 9
M  V30 9 1 6 10
M  V30 10 1 10 11
M  V30 11 2 11 12
M  V30 12 1 12 13
M  V30 13 2 13 14
M  V30 14 1 14 15
M  V30 15 1 14 16
M  V30 16 1 16 17
M  V30 17 2 16 18
M  V30 18 2 10 19
M  V30 19 1 19 20
M  V30 20 1 20 21
M  V30 21 1 8 3
M  V30 22 1 18 11
M  V30 23 1 21 5
M  V30 24 1 1 22
M  V30 25 1 1 23
M  V30 26 1 1 24
M  V30 27 1 4 25
M  V30 28 1 7 26
M  V30 29 1 12 27
M  V30 30 1 13 28
M  V30 31 1 18 29
M  V30 32 1 20 30
M  V30 33 1 20 31
M  V30 34 1 21 32
M  V30 35 1 21 33
M  V30 END BOND
M  V30 END CTAB
M  END
>  <Dataset>  (681) 
ChEMBL_Kinases

>  <Ligand_Instance>  (681) 
nan

>  <PDB_ID>  (681) 
nan

>  <Standardized_SMILES>  (681) 
COc1cc2c(cc1Cl)C(c1ccc(Cl)c(Cl)c1)=NCC2

>  <Name>  (681) 
nan

>  <Pocket>  (681) 
nan

>  <ATP_Site>  (681) 
nan

>  <Peripheral>  (681) 
nan

>  <Num_H_Atoms_ProtBoundConf>  (681) 
nan

>  <Num_Resolved_Atoms>  (681) 
nan

>  <Num_Not_Resolved_Atoms>  (681) 
nan

$$$$
CHEMBL209299
     RDKit          3D

  0  0  0  0  0  0  0  0  0  0999 V3000
M  V30 BEGIN CTAB
M  V30 COUNTS 42 42 0 0 0
M  V30 BEGIN ATOM
M  V30 1 C -2.088639 -2.968819 1.693905 0
M  V30 2 C -1.562836 -4.370873 1.581941 0
M  V30 3 O -0.849753 -4.619071 0.382493 0
M  V30 4 C 0.295777 -3.893384 0.049654 0
M  V30 5 N 0.787183 -2.923726 0.841466 0
M  V30 6 C 1.895053 -2.210710 0.536436 0
M  V30 7 N 2.275806 -1.203198 1.502981 0
M  V30 8 C 1.576423 -0.035878 1.063778 0
M  V30 9 O 0.902376 -0.317159 0.017028 0
M  V30 10 C 1.641809 1.302899 1.745420 0
M  V30 11 N 0.822650 2.233798 1.038715 0
M  V30 12 C -0.591429 1.967858 1.130367 0
M  V30 13 C -1.428537 2.977542 0.346324 0
M  V30 14 C 1.047920 3.601033 1.460202 0
M  V30 15 C 0.581081 3.872864 2.872989 0
M  V30 16 C 2.587820 -2.449572 -0.624798 0
M  V30 17 C 2.118335 -3.437968 -1.468944 0
M  V30 18 N 2.787642 -3.723837 -2.674184 0
M  V30 19 C 0.983810 -4.141031 -1.118935 0
M  V30 20 C 0.534598 -5.156032 -2.029756 0
M  V30 21 N 0.178510 -5.985835 -2.748879 0
M  V30 22 H -3.127463 -3.015624 2.112123 0
M  V30 23 H -2.198023 -2.491294 0.689945 0
M  V30 24 H -1.415939 -2.384477 2.333557 0
M  V30 25 H -0.884735 -4.575326 2.455118 0
M  V30 26 H -2.378792 -5.106646 1.678274 0
M  V30 27 H 2.881984 -1.105813 2.374181 0
M  V30 28 H 2.679762 1.671393 1.780749 0
M  V30 29 H 1.210857 1.206971 2.783553 0
M  V30 30 H -0.915617 2.061558 2.203458 0
M  V30 31 H -0.863704 0.957703 0.833690 0
M  V30 32 H -2.444583 2.506275 0.291712 0
M  V30 33 H -0.966151 3.135097 -0.645546 0
M  V30 34 H -1.563048 3.915615 0.887733 0
M  V30 35 H 2.103382 3.913124 1.325313 0
M  V30 36 H 0.461540 4.275473 0.790588 0
M  V30 37 H 0.397547 2.977567 3.465172 0
M  V30 38 H -0.357964 4.474806 2.877417 0
M  V30 39 H 1.350640 4.459192 3.449772 0
M  V30 40 H 3.468228 -1.860032 -0.832740 0
M  V30 41 H 3.411503 -4.410611 -3.131378 0
M  V30 42 H 2.519866 -2.916394 -3.289179 0
M  V30 END ATOM
M  V30 BEGIN BOND
M  V30 1 1 1 2
M  V30 2 1 2 3
M  V30 3 1 3 4
M  V30 4 2 4 5
M  V30 5 1 5 6
M  V30 6 1 6 7
M  V30 7 1 7 8
M  V30 8 2 8 9
M  V30 9 1 8 10
M  V30 10 1 10 11
M  V30 11 1 11 12
M  V30 12 1 12 13
M  V30 13 1 11 14
M  V30 14 1 14 15
M  V30 15 2 6 16
M  V30 16 1 16 17
M  V30 17 1 17 18
M  V30 18 2 17 19
M  V30 19 1 19 20
M  V30 20 3 20 21
M  V30 21 1 19 4
M  V30 22 1 1 22
M  V30 23 1 1 23
M  V30 24 1 1 24
M  V30 25 1 2 25
M  V30 26 1 2 26
M  V30 27 1 7 27
M  V30 28 1 10 28
M  V30 29 1 10 29
M  V30 30 1 12 30
M  V30 31 1 12 31
M  V30 32 1 13 32
M  V30 33 1 13 33
M  V30 34 1 13 34
M  V30 35 1 14 35
M  V30 36 1 14 36
M  V30 37 1 15 37
M  V30 38 1 15 38
M  V30 39 1 15 39
M  V30 40 1 16 40
M  V30 41 1 18 41
M  V30 42 1 18 42
M  V30 END BOND
M  V30 END CTAB
M  END
>  <Dataset>  (682) 
ChEMBL_Kinases

>  <Ligand_Instance>  (682) 
nan

>  <PDB_ID>  (682) 
nan

>  <Standardized_SMILES>  (682) 
CCOc1nc(NC(=O)CN(CC)CC)cc(N)c1C#N

>  <Name>  (682) 
nan

>  <Pocket>  (682) 
nan

>  <ATP_Site>  (682) 
nan

>  <Peripheral>  (682) 
nan

>  <Num_H_Atoms_ProtBoundConf>  (682) 
nan

>  <Num_Resolved_Atoms>  (682) 
nan

>  <Num_Not_Resolved_Atoms>  (682) 
nan

$$$$
CHEMBL1085626
     RDKit          3D

  0  0  0  0  0  0  0  0  0  0999 V3000
M  V30 BEGIN CTAB
M  V30 COUNTS 47 50 0 0 0
M  V30 BEGIN ATOM
M  V30 1 C 0.449710 -7.130242 -1.191508 0
M  V30 2 C 0.415275 -5.889671 -2.036884 0
M  V30 3 N 0.167407 -5.392542 -3.058535 0
M  V30 4 C 0.284694 -4.158092 -3.462250 0
M  V30 5 C -0.085642 -3.689195 -4.822591 0
M  V30 6 C 0.798292 -3.245924 -2.517223 0
M  V30 7 C 1.102590 -1.791834 -2.517304 0
M  V30 8 C 0.975802 -0.851160 -3.472081 0
M  V30 9 C 1.306013 0.473540 -3.330438 0
M  V30 10 N 1.791281 0.815043 -2.126179 0
M  V30 11 C 1.942776 -0.074422 -1.130180 0
M  V30 12 N 2.464502 0.321990 0.132573 0
M  V30 13 C 1.647034 0.852278 1.170706 0
M  V30 14 C 2.176982 1.190948 2.418949 0
M  V30 15 C 1.369356 1.710173 3.407325 0
M  V30 16 C 0.020158 1.924288 3.234003 0
M  V30 17 N -0.788827 2.450704 4.245093 0
M  V30 18 C -0.380993 2.772356 5.596549 0
M  V30 19 C -1.229576 1.938610 6.545153 0
M  V30 20 O -2.538770 2.365348 6.446283 0
M  V30 21 C -3.019314 2.073869 5.179285 0
M  V30 22 C -2.173127 2.767042 4.103634 0
M  V30 23 C -0.486785 1.593497 2.020901 0
M  V30 24 C 0.290573 1.068714 1.000035 0
M  V30 25 N 1.598515 -1.339209 -1.349371 0
M  V30 26 S 1.045941 -4.344735 -1.131748 0
M  V30 27 H 1.473027 -7.552899 -1.123613 0
M  V30 28 H -0.288079 -7.819936 -1.603282 0
M  V30 29 H 0.166700 -6.911052 -0.123614 0
M  V30 30 H -0.922243 -2.972138 -4.724958 0
M  V30 31 H -0.502285 -4.507023 -5.456012 0
M  V30 32 H 0.779692 -3.315125 -5.408319 0
M  V30 33 H 0.579476 -1.225644 -4.397156 0
M  V30 34 H 1.144271 1.101378 -4.193751 0
M  V30 35 H 3.484654 0.229992 0.330494 0
M  V30 36 H 3.250202 1.024710 2.568618 0
M  V30 37 H 1.891712 1.931619 4.325461 0
M  V30 38 H 0.679142 2.537478 5.817288 0
M  V30 39 H -0.627379 3.833961 5.796666 0
M  V30 40 H -1.181935 0.896375 6.168418 0
M  V30 41 H -0.843524 1.971558 7.579113 0
M  V30 42 H -3.076579 1.002331 4.951379 0
M  V30 43 H -4.044308 2.524357 5.087494 0
M  V30 44 H -2.289967 3.862305 4.269472 0
M  V30 45 H -2.647984 2.545056 3.157618 0
M  V30 46 H -1.499522 1.694644 1.727206 0
M  V30 47 H -0.078854 0.792410 0.018879 0
M  V30 END ATOM
M  V30 BEGIN BOND
M  V30 1 1 1 2
M  V30 2 2 2 3
M  V30 3 1 3 4
M  V30 4 1 4 5
M  V30 5 2 4 6
M  V30 6 1 6 7
M  V30 7 2 7 8
M  V30 8 1 8 9
M  V30 9 2 9 10
M  V30 10 1 10 11
M  V30 11 1 11 12
M  V30 12 1 12 13
M  V30 13 2 13 14
M  V30 14 1 14 15
M  V30 15 2 15 16
M  V30 16 1 16 17
M  V30 17 1 17 18
M  V30 18 1 18 19
M  V30 19 1 19 20
M  V30 20 1 20 21
M  V30 21 1 21 22
M  V30 22 1 16 23
M  V30 23 2 23 24
M  V30 24 2 11 25
M  V30 25 1 6 26
M  V30 26 1 26 2
M  V30 27 1 25 7
M  V30 28 1 24 13
M  V30 29 1 22 17
M  V30 30 1 1 27
M  V30 31 1 1 28
M  V30 32 1 1 29
M  V30 33 1 5 30
M  V30 34 1 5 31
M  V30 35 1 5 32
M  V30 36 1 8 33
M  V30 37 1 9 34
M  V30 38 1 12 35
M  V30 39 1 14 36
M  V30 40 1 15 37
M  V30 41 1 18 38
M  V30 42 1 18 39
M  V30 43 1 19 40
M  V30 44 1 19 41
M  V30 45 1 21 42
M  V30 46 1 21 43
M  V30 47 1 22 44
M  V30 48 1 22 45
M  V30 49 1 23 46
M  V30 50 1 24 47
M  V30 END BOND
M  V30 END CTAB
M  END
>  <Dataset>  (683) 
ChEMBL_Kinases

>  <Ligand_Instance>  (683) 
nan

>  <PDB_ID>  (683) 
nan

>  <Standardized_SMILES>  (683) 
Cc1nc(C)c(-c2ccnc(Nc3ccc(N4CCOCC4)cc3)n2)s1

>  <Name>  (683) 
nan

>  <Pocket>  (683) 
nan

>  <ATP_Site>  (683) 
nan

>  <Peripheral>  (683) 
nan

>  <Num_H_Atoms_ProtBoundConf>  (683) 
nan

>  <Num_Resolved_Atoms>  (683) 
nan

>  <Num_Not_Resolved_Atoms>  (683) 
nan

$$$$
CHEMBL1086088
     RDKit          3D

  0  0  0  0  0  0  0  0  0  0999 V3000
M  V30 BEGIN CTAB
M  V30 COUNTS 51 53 0 0 0
M  V30 BEGIN ATOM
M  V30 1 C 0.617239 -2.774500 4.530271 0
M  V30 2 C 1.848501 -3.587020 4.119258 0
M  V30 3 N 3.048090 -2.782054 4.220670 0
M  V30 4 C 3.304571 -1.605852 3.485989 0
M  V30 5 N 4.041719 -0.781679 3.326717 0
M  V30 6 C 4.084820 0.268426 2.542370 0
M  V30 7 C 5.187196 1.266839 2.479635 0
M  V30 8 C 3.023914 0.402196 1.750664 0
M  V30 9 C 2.509882 1.301873 0.713648 0
M  V30 10 C 3.088035 2.446111 0.270228 0
M  V30 11 C 2.631944 3.289095 -0.694629 0
M  V30 12 N 1.477465 2.942470 -1.268797 0
M  V30 13 C 0.817963 1.806559 -0.890652 0
M  V30 14 N -0.400540 1.513666 -1.544908 0
M  V30 15 C -1.268447 0.402301 -1.404500 0
M  V30 16 C -1.015293 -0.695941 -0.616300 0
M  V30 17 C -1.891323 -1.752119 -0.510718 0
M  V30 18 O -1.733035 -2.898548 0.249138 0
M  V30 19 C -0.544750 -3.015434 1.007420 0
M  V30 20 C -3.074184 -1.726757 -1.214434 0
M  V30 21 O -4.025660 -2.757558 -1.167410 0
M  V30 22 C -5.016231 -2.612415 -0.144397 0
M  V30 23 C -3.380172 -0.658733 -2.015649 0
M  V30 24 O -4.564370 -0.615748 -2.730261 0
M  V30 25 C -4.829223 0.508216 -3.540352 0
M  V30 26 C -2.462011 0.360930 -2.075691 0
M  V30 27 N 1.363112 1.058178 0.067392 0
M  V30 28 S 2.049556 -1.006945 2.208131 0
M  V30 29 H 0.758513 -1.703109 4.285781 0
M  V30 30 H 0.526847 -2.783966 5.657108 0
M  V30 31 H -0.316676 -3.216866 4.156119 0
M  V30 32 H 1.963648 -4.487873 4.753289 0
M  V30 33 H 1.724730 -3.978139 3.082956 0
M  V30 34 H 3.834648 -3.014594 4.859780 0
M  V30 35 H 4.893520 2.276047 2.764691 0
M  V30 36 H 6.005740 0.961576 3.194710 0
M  V30 37 H 5.634104 1.315714 1.445825 0
M  V30 38 H 4.016962 2.778980 0.695653 0
M  V30 39 H 3.127504 4.190146 -1.014781 0
M  V30 40 H -0.727041 2.222088 -2.249416 0
M  V30 41 H -0.110706 -0.767525 -0.048174 0
M  V30 42 H 0.342831 -2.700325 0.430233 0
M  V30 43 H -0.582062 -2.390453 1.924648 0
M  V30 44 H -0.353913 -4.060771 1.323886 0
M  V30 45 H -4.676428 -2.007772 0.700412 0
M  V30 46 H -5.295144 -3.619025 0.284395 0
M  V30 47 H -5.939868 -2.160492 -0.543808 0
M  V30 48 H -4.798191 1.463892 -2.985469 0
M  V30 49 H -4.097737 0.598879 -4.390918 0
M  V30 50 H -5.818255 0.465364 -4.022310 0
M  V30 51 H -2.754093 1.195960 -2.732782 0
M  V30 END ATOM
M  V30 BEGIN BOND
M  V30 1 1 1 2
M  V30 2 1 2 3
M  V30 3 1 3 4
M  V30 4 2 4 5
M  V30 5 1 5 6
M  V30 6 1 6 7
M  V30 7 2 6 8
M  V30 8 1 8 9
M  V30 9 2 9 10
M  V30 10 1 10 11
M  V30 11 2 11 12
M  V30 12 1 12 13
M  V30 13 1 13 14
M  V30 14 1 14 15
M  V30 15 2 15 16
M  V30 16 1 16 17
M  V30 17 1 17 18
M  V30 18 1 18 19
M  V30 19 2 17 20
M  V30 20 1 20 21
M  V30 21 1 21 22
M  V30 22 1 20 23
M  V30 23 1 23 24
M  V30 24 1 24 25
M  V30 25 2 23 26
M  V30 26 2 13 27
M  V30 27 1 8 28
M  V30 28 1 28 4
M  V30 29 1 27 9
M  V30 30 1 26 15
M  V30 31 1 1 29
M  V30 32 1 1 30
M  V30 33 1 1 31
M  V30 34 1 2 32
M  V30 35 1 2 33
M  V30 36 1 3 34
M  V30 37 1 7 35
M  V30 38 1 7 36
M  V30 39 1 7 37
M  V30 40 1 10 38
M  V30 41 1 11 39
M  V30 42 1 14 40
M  V30 43 1 16 41
M  V30 44 1 19 42
M  V30 45 1 19 43
M  V30 46 1 19 44
M  V30 47 1 22 45
M  V30 48 1 22 46
M  V30 49 1 22 47
M  V30 50 1 25 48
M  V30 51 1 25 49
M  V30 52 1 25 50
M  V30 53 1 26 51
M  V30 END BOND
M  V30 END CTAB
M  END
>  <Dataset>  (684) 
ChEMBL_Kinases

>  <Ligand_Instance>  (684) 
nan

>  <PDB_ID>  (684) 
nan

>  <Standardized_SMILES>  (684) 
CCNc1nc(C)c(-c2ccnc(Nc3cc(OC)c(OC)c(OC)c3)n2)s1

>  <Name>  (684) 
nan

>  <Pocket>  (684) 
nan

>  <ATP_Site>  (684) 
nan

>  <Peripheral>  (684) 
nan

>  <Num_H_Atoms_ProtBoundConf>  (684) 
nan

>  <Num_Resolved_Atoms>  (684) 
nan

>  <Num_Not_Resolved_Atoms>  (684) 
nan

$$$$
CHEMBL211140
     RDKit          3D

  0  0  0  0  0  0  0  0  0  0999 V3000
M  V30 BEGIN CTAB
M  V30 COUNTS 39 43 0 0 0
M  V30 BEGIN ATOM
M  V30 1 N 2.802203 -5.253408 2.498527 0
M  V30 2 C 2.050911 -4.749952 1.396652 0
M  V30 3 C 1.795379 -5.626425 0.341397 0
M  V30 4 C 1.070752 -5.165523 -0.737409 0
M  V30 5 C 0.591461 -3.870488 -0.807854 0
M  V30 6 Cl -0.326269 -3.189589 -2.111018 0
M  V30 7 C 0.841690 -3.004494 0.230507 0
M  V30 8 C 0.445552 -1.608925 0.383485 0
M  V30 9 C 1.295935 -0.630073 -0.088501 0
M  V30 10 C 0.939305 0.694665 0.046755 0
M  V30 11 N 1.574361 1.821968 -0.320030 0
M  V30 12 C 0.770931 2.860711 0.054968 0
M  V30 13 C 1.033258 4.214662 -0.128617 0
M  V30 14 C 0.126230 5.161971 0.302881 0
M  V30 15 C -1.048634 4.723642 0.921937 0
M  V30 16 O -1.963698 5.670347 1.357579 0
M  V30 17 C -1.231658 3.367621 1.064882 0
M  V30 18 C -0.373509 2.392712 0.659480 0
M  V30 19 C -0.250533 1.037079 0.645306 0
M  V30 20 C -1.091388 0.079332 1.111639 0
M  V30 21 C -0.754239 -1.246221 0.986415 0
M  V30 22 C -1.754822 -2.147010 1.532708 0
M  V30 23 O -1.735834 -3.402996 1.568332 0
M  V30 24 N -2.771104 -1.250124 2.022121 0
M  V30 25 C -2.367445 0.082387 1.766722 0
M  V30 26 O -3.149202 0.956977 2.136517 0
M  V30 27 C 1.575852 -3.459358 1.331367 0
M  V30 28 H 3.852700 -5.265954 2.613519 0
M  V30 29 H 2.560676 -5.704479 3.408147 0
M  V30 30 H 2.162149 -6.645114 0.377341 0
M  V30 31 H 0.841208 -5.801173 -1.586826 0
M  V30 32 H 2.239112 -0.880406 -0.563733 0
M  V30 33 H 2.499036 1.870407 -0.796548 0
M  V30 34 H 1.930703 4.543675 -0.601296 0
M  V30 35 H 0.327609 6.210981 0.161590 0
M  V30 36 H -1.979056 5.991256 2.331267 0
M  V30 37 H -2.145267 3.116454 1.543051 0
M  V30 38 H -3.634901 -1.666506 2.480686 0
M  V30 39 H 1.837508 -2.869438 2.212168 0
M  V30 END ATOM
M  V30 BEGIN BOND
M  V30 1 1 1 2
M  V30 2 2 2 3
M  V30 3 1 3 4
M  V30 4 2 4 5
M  V30 5 1 5 6
M  V30 6 1 5 7
M  V30 7 1 7 8
M  V30 8 2 8 9
M  V30 9 1 9 10
M  V30 10 1 10 11
M  V30 11 1 11 12
M  V30 12 2 12 13
M  V30 13 1 13 14
M  V30 14 2 14 15
M  V30 15 1 15 16
M  V30 16 1 15 17
M  V30 17 2 17 18
M  V30 18 1 18 19
M  V30 19 1 19 20
M  V30 20 2 20 21
M  V30 21 1 21 22
M  V30 22 2 22 23
M  V30 23 1 22 24
M  V30 24 1 24 25
M  V30 25 2 25 26
M  V30 26 2 7 27
M  V30 27 1 27 2
M  V30 28 1 21 8
M  V30 29 2 19 10
M  V30 30 1 25 20
M  V30 31 1 18 12
M  V30 32 1 1 28
M  V30 33 1 1 29
M  V30 34 1 3 30
M  V30 35 1 4 31
M  V30 36 1 9 32
M  V30 37 1 11 33
M  V30 38 1 13 34
M  V30 39 1 14 35
M  V30 40 1 16 36
M  V30 41 1 17 37
M  V30 42 1 24 38
M  V30 43 1 27 39
M  V30 END BOND
M  V30 END CTAB
M  END
>  <Dataset>  (685) 
ChEMBL_Kinases

>  <Ligand_Instance>  (685) 
nan

>  <PDB_ID>  (685) 
nan

>  <Standardized_SMILES>  (685) 
Nc1ccc(Cl)c(-c2cc3[nH]c4ccc(O)cc4c3c3c2C(=O)NC3=O)c1

>  <Name>  (685) 
nan

>  <Pocket>  (685) 
nan

>  <ATP_Site>  (685) 
nan

>  <Peripheral>  (685) 
nan

>  <Num_H_Atoms_ProtBoundConf>  (685) 
nan

>  <Num_Resolved_Atoms>  (685) 
nan

>  <Num_Not_Resolved_Atoms>  (685) 
nan

$$$$
CHEMBL2064518
     RDKit          3D

  0  0  0  0  0  0  0  0  0  0999 V3000
M  V30 BEGIN CTAB
M  V30 COUNTS 38 41 0 0 0
M  V30 BEGIN ATOM
M  V30 1 N 0.081835 -3.929214 2.841732 0
M  V30 2 C 0.882639 -4.061285 2.014078 0
M  V30 3 C 1.875931 -4.204234 0.996175 0
M  V30 4 C 2.184679 -5.419889 0.399128 0
M  V30 5 C 3.145478 -5.536478 -0.579920 0
M  V30 6 C 3.861077 -4.422441 -1.022055 0
M  V30 7 C 3.564299 -3.206851 -0.436959 0
M  V30 8 C 4.250430 -1.916455 -0.808608 0
M  V30 9 S 3.295492 -1.150705 -2.178157 0
M  V30 10 C 1.712944 -0.705749 -1.436270 0
M  V30 11 N 0.706420 -1.605088 -1.437864 0
M  V30 12 N -0.305156 -0.996362 -0.832912 0
M  V30 13 C 0.046600 0.246939 -0.460216 0
M  V30 14 C -0.718295 1.284156 0.227775 0
M  V30 15 C -0.101091 2.494869 0.470863 0
M  V30 16 C -0.850297 3.463514 1.129028 0
M  V30 17 C -2.145617 3.167622 1.496857 0
M  V30 18 C -2.762410 1.937534 1.245913 0
M  V30 19 C -2.011805 0.960976 0.583909 0
M  V30 20 O -4.079726 1.830110 1.695852 0
M  V30 21 C -4.476227 2.359646 2.956082 0
M  V30 22 C -3.767309 3.651364 3.280647 0
M  V30 23 O -2.969721 4.094036 2.167392 0
M  V30 24 O 1.309527 0.413014 -0.844218 0
M  V30 25 C 2.587141 -3.128265 0.549699 0
M  V30 26 H 1.636345 -6.290300 0.732501 0
M  V30 27 H 3.398693 -6.487491 -1.058362 0
M  V30 28 H 4.627139 -4.432980 -1.783622 0
M  V30 29 H 4.231457 -1.234552 0.063086 0
M  V30 30 H 5.289350 -2.080306 -1.121718 0
M  V30 31 H 0.914206 2.694520 0.170502 0
M  V30 32 H -0.418654 4.426812 1.343667 0
M  V30 33 H -2.516830 0.043854 0.412317 0
M  V30 34 H -4.212967 1.569104 3.709995 0
M  V30 35 H -5.557562 2.546073 2.911735 0
M  V30 36 H -3.104578 3.526356 4.173442 0
M  V30 37 H -4.480894 4.446670 3.497739 0
M  V30 38 H 2.352175 -2.169658 1.012945 0
M  V30 END ATOM
M  V30 BEGIN BOND
M  V30 1 3 1 2
M  V30 2 1 2 3
M  V30 3 2 3 4
M  V30 4 1 4 5
M  V30 5 2 5 6
M  V30 6 1 6 7
M  V30 7 1 7 8
M  V30 8 1 8 9
M  V30 9 1 9 10
M  V30 10 2 10 11
M  V30 11 1 11 12
M  V30 12 2 12 13
M  V30 13 1 13 14
M  V30 14 2 14 15
M  V30 15 1 15 16
M  V30 16 2 16 17
M  V30 17 1 17 18
M  V30 18 2 18 19
M  V30 19 1 18 20
M  V30 20 1 20 21
M  V30 21 1 21 22
M  V30 22 1 22 23
M  V30 23 1 13 24
M  V30 24 2 7 25
M  V30 25 1 25 3
M  V30 26 1 24 10
M  V30 27 1 19 14
M  V30 28 1 23 17
M  V30 29 1 4 26
M  V30 30 1 5 27
M  V30 31 1 6 28
M  V30 32 1 8 29
M  V30 33 1 8 30
M  V30 34 1 15 31
M  V30 35 1 16 32
M  V30 36 1 19 33
M  V30 37 1 21 34
M  V30 38 1 21 35
M  V30 39 1 22 36
M  V30 40 1 22 37
M  V30 41 1 25 38
M  V30 END BOND
M  V30 END CTAB
M  END
>  <Dataset>  (686) 
ChEMBL_Kinases

>  <Ligand_Instance>  (686) 
nan

>  <PDB_ID>  (686) 
nan

>  <Standardized_SMILES>  (686) 
N#Cc1cccc(CSc2nnc(-c3ccc4c(c3)OCCO4)o2)c1

>  <Name>  (686) 
nan

>  <Pocket>  (686) 
nan

>  <ATP_Site>  (686) 
nan

>  <Peripheral>  (686) 
nan

>  <Num_H_Atoms_ProtBoundConf>  (686) 
nan

>  <Num_Resolved_Atoms>  (686) 
nan

>  <Num_Not_Resolved_Atoms>  (686) 
nan

$$$$
CHEMBL2088587
     RDKit          3D

  0  0  0  0  0  0  0  0  0  0999 V3000
M  V30 BEGIN CTAB
M  V30 COUNTS 42 45 0 0 0
M  V30 BEGIN ATOM
M  V30 1 C 0.881157 1.154527 -3.532054 0
M  V30 2 O 1.507171 0.902309 -2.299950 0
M  V30 3 C 1.727959 1.886736 -1.366130 0
M  V30 4 C 1.424112 3.234393 -1.394179 0
M  V30 5 C 1.748414 4.038913 -0.320875 0
M  V30 6 C 2.377174 3.534564 0.799817 0
M  V30 7 C 2.691436 2.188025 0.850825 0
M  V30 8 C 2.365366 1.391941 -0.222346 0
M  V30 9 C 2.760762 -0.020220 -0.027035 0
M  V30 10 C 4.001846 -0.479643 -0.418735 0
M  V30 11 O 4.801772 0.325414 -0.949633 0
M  V30 12 C 4.294644 -1.810333 -0.202078 0
M  V30 13 C 3.322555 -2.586532 0.391982 0
M  V30 14 N 2.089097 -2.154536 0.787489 0
M  V30 15 N 1.267584 -3.031162 1.345193 0
M  V30 16 C 0.036129 -2.592363 1.738015 0
M  V30 17 O -0.730137 -3.598058 2.305964 0
M  V30 18 C -2.020778 -3.434431 2.783988 0
M  V30 19 C -2.228835 -3.698622 4.132887 0
M  V30 20 C -3.498073 -3.551333 4.661277 0
M  V30 21 C -4.598734 -3.146923 3.908313 0
M  V30 22 F -5.835223 -3.008644 4.445963 0
M  V30 23 C -4.372510 -2.889433 2.571613 0
M  V30 24 C -3.092352 -3.038451 2.040447 0
M  V30 25 F -2.913535 -2.779276 0.724555 0
M  V30 26 C -0.297058 -1.270528 1.540250 0
M  V30 27 C 0.591617 -0.391172 0.954330 0
M  V30 28 C 1.831705 -0.853456 0.563813 0
M  V30 29 H -0.223087 1.009422 -3.389905 0
M  V30 30 H 0.995062 2.216649 -3.872398 0
M  V30 31 H 1.283462 0.456100 -4.319211 0
M  V30 32 H 0.935019 3.528491 -2.311643 0
M  V30 33 H 1.466231 5.093364 -0.438591 0
M  V30 34 H 2.586714 4.254444 1.586329 0
M  V30 35 H 3.177182 1.851589 1.741523 0
M  V30 36 H 5.238794 -2.209743 -0.487457 0
M  V30 37 H 3.594576 -3.623327 0.542782 0
M  V30 38 H -1.448450 -4.019026 4.814314 0
M  V30 39 H -3.699406 -3.746494 5.701663 0
M  V30 40 H -5.211589 -2.575043 1.971029 0
M  V30 41 H -1.262765 -0.992192 1.866972 0
M  V30 42 H 0.299880 0.641513 0.812602 0
M  V30 END ATOM
M  V30 BEGIN BOND
M  V30 1 1 1 2
M  V30 2 1 2 3
M  V30 3 2 3 4
M  V30 4 1 4 5
M  V30 5 2 5 6
M  V30 6 1 6 7
M  V30 7 2 7 8
M  V30 8 1 8 9
M  V30 9 1 9 10
M  V30 10 2 10 11
M  V30 11 1 10 12
M  V30 12 2 12 13
M  V30 13 1 13 14
M  V30 14 1 14 15
M  V30 15 2 15 16
M  V30 16 1 16 17
M  V30 17 1 17 18
M  V30 18 2 18 19
M  V30 19 1 19 20
M  V30 20 2 20 21
M  V30 21 1 21 22
M  V30 22 1 21 23
M  V30 23 2 23 24
M  V30 24 1 24 25
M  V30 25 1 16 26
M  V30 26 2 26 27
M  V30 27 1 27 28
M  V30 28 1 8 3
M  V30 29 2 28 9
M  V30 30 1 28 14
M  V30 31 1 24 18
M  V30 32 1 1 29
M  V30 33 1 1 30
M  V30 34 1 1 31
M  V30 35 1 4 32
M  V30 36 1 5 33
M  V30 37 1 6 34
M  V30 38 1 7 35
M  V30 39 1 12 36
M  V30 40 1 13 37
M  V30 41 1 19 38
M  V30 42 1 20 39
M  V30 43 1 23 40
M  V30 44 1 26 41
M  V30 45 1 27 42
M  V30 END BOND
M  V30 END CTAB
M  END
>  <Dataset>  (687) 
ChEMBL_Kinases

>  <Ligand_Instance>  (687) 
nan

>  <PDB_ID>  (687) 
nan

>  <Standardized_SMILES>  (687) 
COc1ccccc1-c1c(=O)ccn2nc(Oc3ccc(F)cc3F)ccc12

>  <Name>  (687) 
nan

>  <Pocket>  (687) 
nan

>  <ATP_Site>  (687) 
nan

>  <Peripheral>  (687) 
nan

>  <Num_H_Atoms_ProtBoundConf>  (687) 
nan

>  <Num_Resolved_Atoms>  (687) 
nan

>  <Num_Not_Resolved_Atoms>  (687) 
nan

$$$$
CHEMBL2064531
     RDKit          3D

  0  0  0  0  0  0  0  0  0  0999 V3000
M  V30 BEGIN CTAB
M  V30 COUNTS 44 48 0 0 0
M  V30 BEGIN ATOM
M  V30 1 C -1.097784 -6.054588 1.693694 0
M  V30 2 C -0.146439 -6.532761 0.794327 0
M  V30 3 C 0.634432 -5.606685 0.130088 0
M  V30 4 C 0.488185 -4.260152 0.339829 0
M  V30 5 C 1.266167 -3.218018 -0.316957 0
M  V30 6 C 1.752420 -3.349336 -1.609379 0
M  V30 7 C 2.480581 -2.334929 -2.186000 0
M  V30 8 C 2.759754 -1.163797 -1.529270 0
M  V30 9 C 3.551391 -0.033518 -2.120685 0
M  V30 10 S 2.523402 1.133981 -3.014789 0
M  V30 11 C 1.392228 2.024339 -1.961800 0
M  V30 12 N 0.544815 2.943803 -2.481611 0
M  V30 13 N -0.167332 3.439211 -1.478093 0
M  V30 14 C 0.217766 2.846599 -0.334757 0
M  V30 15 C -0.240099 3.024403 1.039438 0
M  V30 16 C 0.360615 2.262311 2.019964 0
M  V30 17 C -0.006469 2.356423 3.360532 0
M  V30 18 C -1.013570 3.249960 3.722788 0
M  V30 19 C -1.598557 4.004597 2.702908 0
M  V30 20 C -1.239111 3.916768 1.366907 0
M  V30 21 O -2.540945 4.773187 3.391979 0
M  V30 22 C -2.834462 4.147914 4.642628 0
M  V30 23 O -1.571929 3.550908 4.939159 0
M  V30 24 O 1.148926 2.012493 -0.678306 0
M  V30 25 C 2.281374 -1.018144 -0.238496 0
M  V30 26 C 1.549552 -2.029383 0.349853 0
M  V30 27 C -0.472040 -3.802903 1.246198 0
M  V30 28 C -1.273918 -4.699527 1.931264 0
M  V30 29 H -1.672357 -6.851119 2.175745 0
M  V30 30 H 0.000119 -7.581843 0.600491 0
M  V30 31 H 1.390182 -5.915685 -0.580487 0
M  V30 32 H 1.550087 -4.258909 -2.153759 0
M  V30 33 H 2.856433 -2.452580 -3.203181 0
M  V30 34 H 4.118313 0.436695 -1.283581 0
M  V30 35 H 4.283386 -0.467944 -2.826398 0
M  V30 36 H 1.161737 1.537417 1.806268 0
M  V30 37 H 0.478254 1.749244 4.112036 0
M  V30 38 H -1.719298 4.520277 0.611669 0
M  V30 39 H -3.005255 4.933514 5.398806 0
M  V30 40 H -3.643216 3.421470 4.593522 0
M  V30 41 H 2.427258 -0.161380 0.386743 0
M  V30 42 H 1.157440 -1.950354 1.361865 0
M  V30 43 H -0.701638 -2.776837 1.514195 0
M  V30 44 H -2.032515 -4.435942 2.642243 0
M  V30 END ATOM
M  V30 BEGIN BOND
M  V30 1 2 1 2
M  V30 2 1 2 3
M  V30 3 2 3 4
M  V30 4 1 4 5
M  V30 5 2 5 6
M  V30 6 1 6 7
M  V30 7 2 7 8
M  V30 8 1 8 9
M  V30 9 1 9 10
M  V30 10 1 10 11
M  V30 11 2 11 12
M  V30 12 1 12 13
M  V30 13 2 13 14
M  V30 14 1 14 15
M  V30 15 2 15 16
M  V30 16 1 16 17
M  V30 17 2 17 18
M  V30 18 1 18 19
M  V30 19 2 19 20
M  V30 20 1 19 21
M  V30 21 1 21 22
M  V30 22 1 22 23
M  V30 23 1 14 24
M  V30 24 1 8 25
M  V30 25 2 25 26
M  V30 26 1 4 27
M  V30 27 2 27 28
M  V30 28 1 28 1
M  V30 29 1 26 5
M  V30 30 1 24 11
M  V30 31 1 20 15
M  V30 32 1 23 18
M  V30 33 1 1 29
M  V30 34 1 2 30
M  V30 35 1 3 31
M  V30 36 1 6 32
M  V30 37 1 7 33
M  V30 38 1 9 34
M  V30 39 1 9 35
M  V30 40 1 16 36
M  V30 41 1 17 37
M  V30 42 1 20 38
M  V30 43 1 22 39
M  V30 44 1 22 40
M  V30 45 1 25 41
M  V30 46 1 26 42
M  V30 47 1 27 43
M  V30 48 1 28 44
M  V30 END BOND
M  V30 END CTAB
M  END
>  <Dataset>  (688) 
ChEMBL_Kinases

>  <Ligand_Instance>  (688) 
nan

>  <PDB_ID>  (688) 
nan

>  <Standardized_SMILES>  (688) 
c1ccc(-c2ccc(CSc3nnc(-c4ccc5c(c4)OCO5)o3)cc2)cc1

>  <Name>  (688) 
nan

>  <Pocket>  (688) 
nan

>  <ATP_Site>  (688) 
nan

>  <Peripheral>  (688) 
nan

>  <Num_H_Atoms_ProtBoundConf>  (688) 
nan

>  <Num_Resolved_Atoms>  (688) 
nan

>  <Num_Not_Resolved_Atoms>  (688) 
nan

$$$$
CHEMBL211626
     RDKit          3D

  0  0  0  0  0  0  0  0  0  0999 V3000
M  V30 BEGIN CTAB
M  V30 COUNTS 37 41 0 0 0
M  V30 BEGIN ATOM
M  V30 1 O 2.597286 -0.570902 3.804297 0
M  V30 2 C 2.001323 -1.274932 2.941517 0
M  V30 3 N 1.991506 -2.704103 2.868567 0
M  V30 4 C 1.203840 -3.084508 1.753471 0
M  V30 5 O 1.094594 -4.297094 1.550803 0
M  V30 6 C 0.700508 -1.922281 1.099119 0
M  V30 7 C 1.185830 -0.858262 1.819851 0
M  V30 8 C 0.881392 0.440282 1.457215 0
M  V30 9 C 1.314072 1.687873 2.071989 0
M  V30 10 C 2.589987 2.099542 2.395410 0
M  V30 11 C 2.815455 3.321358 2.992983 0
M  V30 12 C 1.778317 4.180556 3.291061 0
M  V30 13 C 0.479062 3.826674 2.991917 0
M  V30 14 C 0.296563 2.595852 2.394750 0
M  V30 15 C 0.066228 0.668494 0.340154 0
M  V30 16 C -0.418257 -0.405037 -0.379387 0
M  V30 17 N -1.216518 -0.461160 -1.486537 0
M  V30 18 C -1.361809 -1.772783 -1.748053 0
M  V30 19 C -2.102007 -2.300542 -2.796770 0
M  V30 20 C -2.186411 -3.664164 -2.976624 0
M  V30 21 O -2.927184 -4.188956 -4.025989 0
M  V30 22 C -1.507821 -4.493293 -2.075913 0
M  V30 23 C -0.796701 -3.892619 -1.064060 0
M  V30 24 C -0.681466 -2.554680 -0.842696 0
M  V30 25 C -0.088625 -1.680983 0.017964 0
M  V30 26 H 2.520923 -3.272179 3.583908 0
M  V30 27 H 3.368695 1.408839 2.139975 0
M  V30 28 H 3.844882 3.565019 3.212719 0
M  V30 29 H 2.001596 5.131600 3.761094 0
M  V30 30 H -0.344135 4.472974 3.211546 0
M  V30 31 H -0.742599 2.349030 2.172508 0
M  V30 32 H -0.227119 1.649097 -0.020472 0
M  V30 33 H -1.614696 0.364347 -1.999440 0
M  V30 34 H -2.634821 -1.691877 -3.505952 0
M  V30 35 H -2.393581 -4.473190 -4.858442 0
M  V30 36 H -1.577137 -5.562700 -2.221296 0
M  V30 37 H -0.313524 -4.591719 -0.428216 0
M  V30 END ATOM
M  V30 BEGIN BOND
M  V30 1 2 1 2
M  V30 2 1 2 3
M  V30 3 1 3 4
M  V30 4 2 4 5
M  V30 5 1 4 6
M  V30 6 2 6 7
M  V30 7 1 7 8
M  V30 8 1 8 9
M  V30 9 2 9 10
M  V30 10 1 10 11
M  V30 11 2 11 12
M  V30 12 1 12 13
M  V30 13 2 13 14
M  V30 14 2 8 15
M  V30 15 1 15 16
M  V30 16 1 16 17
M  V30 17 1 17 18
M  V30 18 2 18 19
M  V30 19 1 19 20
M  V30 20 1 20 21
M  V30 21 2 20 22
M  V30 22 1 22 23
M  V30 23 2 23 24
M  V30 24 1 24 25
M  V30 25 1 7 2
M  V30 26 1 14 9
M  V30 27 2 25 16
M  V30 28 1 25 6
M  V30 29 1 24 18
M  V30 30 1 3 26
M  V30 31 1 10 27
M  V30 32 1 11 28
M  V30 33 1 12 29
M  V30 34 1 13 30
M  V30 35 1 14 31
M  V30 36 1 15 32
M  V30 37 1 17 33
M  V30 38 1 19 34
M  V30 39 1 21 35
M  V30 40 1 22 36
M  V30 41 1 23 37
M  V30 END BOND
M  V30 END CTAB
M  END
>  <Dataset>  (689) 
ChEMBL_Kinases

>  <Ligand_Instance>  (689) 
nan

>  <PDB_ID>  (689) 
nan

>  <Standardized_SMILES>  (689) 
O=C1NC(=O)c2c1c(-c1ccccc1)cc1[nH]c3cc(O)ccc3c21

>  <Name>  (689) 
nan

>  <Pocket>  (689) 
nan

>  <ATP_Site>  (689) 
nan

>  <Peripheral>  (689) 
nan

>  <Num_H_Atoms_ProtBoundConf>  (689) 
nan

>  <Num_Resolved_Atoms>  (689) 
nan

>  <Num_Not_Resolved_Atoms>  (689) 
nan

$$$$
CHEMBL2064522
     RDKit          3D

  0  0  0  0  0  0  0  0  0  0999 V3000
M  V30 BEGIN CTAB
M  V30 COUNTS 39 43 0 0 0
M  V30 BEGIN ATOM
M  V30 1 C 1.488555 0.709161 -1.137773 0
M  V30 2 C 2.425089 -0.198830 -1.569030 0
M  V30 3 C 3.750752 0.151455 -1.715610 0
M  V30 4 C 4.826701 -0.737913 -2.166931 0
M  V30 5 N 4.722720 -2.033460 -2.514237 0
M  V30 6 N 5.920976 -2.508369 -2.871384 0
M  V30 7 N 6.755259 -1.502367 -2.741793 0
M  V30 8 N 6.134723 -0.435876 -2.324531 0
M  V30 9 C 4.068606 1.454783 -1.404992 0
M  V30 10 C 3.178886 2.419937 -0.966289 0
M  V30 11 C 1.855605 2.016392 -0.835169 0
M  V30 12 C 0.810433 2.988515 -0.366198 0
M  V30 13 S 0.696847 2.903596 1.444587 0
M  V30 14 C 0.070180 1.306325 1.958082 0
M  V30 15 N 0.995036 0.329309 2.176129 0
M  V30 16 N 0.319821 -0.757207 2.543538 0
M  V30 17 C -0.991714 -0.440893 2.547176 0
M  V30 18 C -2.048135 -1.382122 2.900027 0
M  V30 19 C -1.779922 -2.685189 3.260817 0
M  V30 20 C -2.713404 -3.638616 3.608526 0
M  V30 21 C -4.024227 -3.213712 3.581608 0
M  V30 22 C -4.337069 -1.917676 3.226191 0
M  V30 23 C -3.380763 -0.982896 2.882152 0
M  V30 24 O -5.735113 -1.814161 3.299539 0
M  V30 25 C -6.311840 -3.103930 3.394175 0
M  V30 26 O -5.215757 -3.874242 3.862993 0
M  V30 27 O -1.131173 0.814167 2.190225 0
M  V30 28 H 0.460723 0.373191 -1.041907 0
M  V30 29 H 2.182343 -1.241615 -1.819663 0
M  V30 30 H 6.569548 0.508070 -2.137935 0
M  V30 31 H 5.100349 1.775272 -1.505251 0
M  V30 32 H 3.453985 3.422318 -0.733344 0
M  V30 33 H 1.182094 4.008543 -0.621277 0
M  V30 34 H -0.148104 2.739385 -0.845900 0
M  V30 35 H -0.725141 -2.955088 3.261554 0
M  V30 36 H -2.421737 -4.642220 3.879853 0
M  V30 37 H -3.657327 0.023577 2.608770 0
M  V30 38 H -7.171535 -3.144191 4.092350 0
M  V30 39 H -6.589308 -3.374227 2.347036 0
M  V30 END ATOM
M  V30 BEGIN BOND
M  V30 1 2 1 2
M  V30 2 1 2 3
M  V30 3 1 3 4
M  V30 4 2 4 5
M  V30 5 1 5 6
M  V30 6 2 6 7
M  V30 7 1 7 8
M  V30 8 2 3 9
M  V30 9 1 9 10
M  V30 10 2 10 11
M  V30 11 1 11 12
M  V30 12 1 12 13
M  V30 13 1 13 14
M  V30 14 2 14 15
M  V30 15 1 15 16
M  V30 16 2 16 17
M  V30 17 1 17 18
M  V30 18 2 18 19
M  V30 19 1 19 20
M  V30 20 2 20 21
M  V30 21 1 21 22
M  V30 22 2 22 23
M  V30 23 1 22 24
M  V30 24 1 24 25
M  V30 25 1 25 26
M  V30 26 1 17 27
M  V30 27 1 11 1
M  V30 28 1 27 14
M  V30 29 1 8 4
M  V30 30 1 23 18
M  V30 31 1 26 21
M  V30 32 1 1 28
M  V30 33 1 2 29
M  V30 34 1 8 30
M  V30 35 1 9 31
M  V30 36 1 10 32
M  V30 37 1 12 33
M  V30 38 1 12 34
M  V30 39 1 19 35
M  V30 40 1 20 36
M  V30 41 1 23 37
M  V30 42 1 25 38
M  V30 43 1 25 39
M  V30 END BOND
M  V30 END CTAB
M  END
>  <Dataset>  (690) 
ChEMBL_Kinases

>  <Ligand_Instance>  (690) 
nan

>  <PDB_ID>  (690) 
nan

>  <Standardized_SMILES>  (690) 
c1cc(-c2nnn[nH]2)ccc1CSc1nnc(-c2ccc3c(c2)OCO3)o1

>  <Name>  (690) 
nan

>  <Pocket>  (690) 
nan

>  <ATP_Site>  (690) 
nan

>  <Peripheral>  (690) 
nan

>  <Num_H_Atoms_ProtBoundConf>  (690) 
nan

>  <Num_Resolved_Atoms>  (690) 
nan

>  <Num_Not_Resolved_Atoms>  (690) 
nan

$$$$
CHEMBL4593810
     RDKit          3D

  0  0  0  0  0  0  0  0  0  0999 V3000
M  V30 BEGIN CTAB
M  V30 COUNTS 43 45 0 0 0
M  V30 BEGIN ATOM
M  V30 1 C 0.271113 -5.876756 2.113891 0
M  V30 2 C 1.428201 -4.894258 2.252311 0
M  V30 3 O 1.555929 -4.551855 3.599837 0
M  V30 4 C 1.221577 -3.720945 1.400648 0
M  V30 5 C 1.034760 -2.755936 0.698765 0
M  V30 6 C 0.797556 -1.619619 -0.147272 0
M  V30 7 C 1.091680 -1.611549 -1.497782 0
M  V30 8 Cl 1.784162 -2.921823 -2.426352 0
M  V30 9 C 0.713234 -0.351407 -1.911609 0
M  V30 10 C 0.785598 0.200194 -3.174541 0
M  V30 11 Cl 1.417212 -0.687636 -4.541766 0
M  V30 12 C 0.357993 1.489214 -3.413840 0
M  V30 13 C -0.138828 2.178429 -2.322879 0
M  V30 14 C -0.607522 3.549454 -2.514354 0
M  V30 15 N -1.125062 4.287028 -1.411238 0
M  V30 16 O -0.563350 4.106321 -3.658017 0
M  V30 17 N -0.196334 1.612153 -1.102585 0
M  V30 18 C 0.210253 0.361977 -0.833545 0
M  V30 19 N 0.273929 -0.444887 0.243387 0
M  V30 20 C -0.166270 -0.024605 1.532420 0 CFG=1
M  V30 21 C 0.166912 -0.910809 2.665893 0
M  V30 22 C -0.173264 -0.135508 3.950088 0
M  V30 23 C 0.732591 1.036688 4.140508 0
M  V30 24 N 1.415785 1.285524 2.908358 0
M  V30 25 C 0.440635 1.348929 1.841002 0
M  V30 26 H -0.614755 -5.254307 1.864990 0
M  V30 27 H 0.438229 -6.533742 1.224861 0
M  V30 28 H 0.095356 -6.446250 3.040702 0
M  V30 29 H 2.376164 -5.351081 1.900774 0
M  V30 30 H 0.664608 -4.403226 4.000629 0
M  V30 31 H 0.415621 1.922563 -4.409513 0
M  V30 32 H -1.423825 3.753217 -0.544303 0
M  V30 33 H -1.213386 5.321051 -1.440741 0
M  V30 34 H -1.286090 0.080901 1.494935 0
M  V30 35 H 1.246776 -1.139073 2.721288 0
M  V30 36 H -0.492495 -1.803745 2.741780 0
M  V30 37 H -0.108506 -0.852731 4.796169 0
M  V30 38 H -1.231899 0.172816 3.832733 0
M  V30 39 H 1.412352 0.821855 4.987438 0
M  V30 40 H 0.121895 1.920363 4.410209 0
M  V30 41 H 2.226551 0.682119 2.718774 0
M  V30 42 H -0.360086 2.023704 2.195483 0
M  V30 43 H 0.979970 1.757865 0.961253 0
M  V30 END ATOM
M  V30 BEGIN BOND
M  V30 1 1 1 2
M  V30 2 1 2 3
M  V30 3 1 2 4
M  V30 4 3 4 5
M  V30 5 1 5 6
M  V30 6 2 6 7
M  V30 7 1 7 8
M  V30 8 1 7 9
M  V30 9 2 9 10
M  V30 10 1 10 11
M  V30 11 1 10 12
M  V30 12 2 12 13
M  V30 13 1 13 14
M  V30 14 1 14 15
M  V30 15 2 14 16
M  V30 16 1 13 17
M  V30 17 2 17 18
M  V30 18 1 18 19
M  V30 19 1 19 20
M  V30 20 1 20 21
M  V30 21 1 21 22
M  V30 22 1 22 23
M  V30 23 1 23 24
M  V30 24 1 24 25
M  V30 25 1 19 6
M  V30 26 1 25 20
M  V30 27 1 18 9
M  V30 28 1 1 26
M  V30 29 1 1 27
M  V30 30 1 1 28
M  V30 31 1 2 29
M  V30 32 1 3 30
M  V30 33 1 12 31
M  V30 34 1 15 32
M  V30 35 1 15 33
M  V30 36 1 20 34 CFG=3
M  V30 37 1 21 35
M  V30 38 1 21 36
M  V30 39 1 22 37
M  V30 40 1 22 38
M  V30 41 1 23 39
M  V30 42 1 23 40
M  V30 43 1 24 41
M  V30 44 1 25 42
M  V30 45 1 25 43
M  V30 END BOND
M  V30 END CTAB
M  END
>  <Dataset>  (691) 
ChEMBL_Kinases

>  <Ligand_Instance>  (691) 
nan

>  <PDB_ID>  (691) 
nan

>  <Standardized_SMILES>  (691) 
CC(O)C#Cc1c(Cl)c2c(Cl)cc(C(N)=O)nc2n1[C@H]1CCCNC1

>  <Name>  (691) 
nan

>  <Pocket>  (691) 
nan

>  <ATP_Site>  (691) 
nan

>  <Peripheral>  (691) 
nan

>  <Num_H_Atoms_ProtBoundConf>  (691) 
nan

>  <Num_Resolved_Atoms>  (691) 
nan

>  <Num_Not_Resolved_Atoms>  (691) 
nan

$$$$
CHEMBL604263
     RDKit          3D

  0  0  0  0  0  0  0  0  0  0999 V3000
M  V30 BEGIN CTAB
M  V30 COUNTS 34 37 0 0 0
M  V30 BEGIN ATOM
M  V30 1 N -0.136262 -5.182123 -0.033643 0
M  V30 2 C -0.095848 -4.175943 0.998887 0
M  V30 3 C -0.104432 -4.712599 2.293498 0
M  V30 4 C -0.067902 -3.829235 3.349480 0
M  V30 5 C -0.024697 -2.458045 3.068548 0
M  V30 6 C -0.015298 -1.904644 1.811411 0
M  V30 7 C -0.052219 -2.814494 0.823763 0
M  V30 8 C 0.032385 -0.495055 1.990209 0
M  V30 9 C 0.055006 0.389723 1.051566 0
M  V30 10 N 0.101912 1.780747 1.207834 0
M  V30 11 C 0.117286 2.504499 -0.020838 0
M  V30 12 C 0.160596 3.865291 -0.241264 0
M  V30 13 C 0.163881 4.241794 -1.563856 0
M  V30 14 C 0.127692 3.359602 -2.597092 0
M  V30 15 C 0.085629 2.019953 -2.296510 0
M  V30 16 C 0.077669 1.506014 -0.995543 0
M  V30 17 C 0.039023 0.201310 -0.366516 0
M  V30 18 N 0.001611 -0.774398 -1.134461 0
M  V30 19 O -0.010763 -0.870019 -2.472136 0
M  V30 20 C 0.051153 -0.225658 3.400036 0
M  V30 21 O 0.091654 0.876837 3.996378 0
M  V30 22 N 0.015584 -1.456266 4.107043 0
M  V30 23 H -0.670985 -5.288567 -0.938215 0
M  V30 24 H 0.466814 -6.030937 0.050667 0
M  V30 25 H -0.137724 -5.764564 2.487376 0
M  V30 26 H -0.074568 -4.240531 4.329349 0
M  V30 27 H -0.053050 -2.624078 -0.182691 0
M  V30 28 H 0.123763 2.247311 2.146908 0
M  V30 29 H 0.189270 4.566114 0.568108 0
M  V30 30 H 0.197245 5.299830 -1.780567 0
M  V30 31 H 0.131273 3.686570 -3.639480 0
M  V30 32 H 0.057596 1.342240 -3.123966 0
M  V30 33 H -0.864199 -1.019680 -2.978949 0
M  V30 34 H 0.019298 -1.564483 5.142908 0
M  V30 END ATOM
M  V30 BEGIN BOND
M  V30 1 1 1 2
M  V30 2 2 2 3
M  V30 3 1 3 4
M  V30 4 2 4 5
M  V30 5 1 5 6
M  V30 6 2 6 7
M  V30 7 1 6 8
M  V30 8 2 8 9
M  V30 9 1 9 10
M  V30 10 1 10 11
M  V30 11 2 11 12
M  V30 12 1 12 13
M  V30 13 2 13 14
M  V30 14 1 14 15
M  V30 15 2 15 16
M  V30 16 1 16 17
M  V30 17 2 17 18
M  V30 18 1 18 19
M  V30 19 1 8 20
M  V30 20 2 20 21
M  V30 21 1 20 22
M  V30 22 1 7 2
M  V30 23 1 17 9
M  V30 24 1 22 5
M  V30 25 1 16 11
M  V30 26 1 1 23
M  V30 27 1 1 24
M  V30 28 1 3 25
M  V30 29 1 4 26
M  V30 30 1 7 27
M  V30 31 1 10 28
M  V30 32 1 12 29
M  V30 33 1 13 30
M  V30 34 1 14 31
M  V30 35 1 15 32
M  V30 36 1 19 33
M  V30 37 1 22 34
M  V30 END BOND
M  V30 END CTAB
M  END
>  <Dataset>  (692) 
ChEMBL_Kinases

>  <Ligand_Instance>  (692) 
nan

>  <PDB_ID>  (692) 
nan

>  <Standardized_SMILES>  (692) 
Nc1ccc2c(c1)/C(=C1/Nc3ccccc3/C1=N\O)C(=O)N2

>  <Name>  (692) 
nan

>  <Pocket>  (692) 
nan

>  <ATP_Site>  (692) 
nan

>  <Peripheral>  (692) 
nan

>  <Num_H_Atoms_ProtBoundConf>  (692) 
nan

>  <Num_Resolved_Atoms>  (692) 
nan

>  <Num_Not_Resolved_Atoms>  (692) 
nan

$$$$
CHEMBL211878
     RDKit          3D

  0  0  0  0  0  0  0  0  0  0999 V3000
M  V30 BEGIN CTAB
M  V30 COUNTS 40 44 0 0 0
M  V30 BEGIN ATOM
M  V30 1 C -1.753105 -5.411694 5.000963 0
M  V30 2 O -1.574398 -4.873193 3.711974 0
M  V30 3 C -1.022295 -3.595963 3.571249 0
M  V30 4 C -0.659021 -2.880299 4.718419 0
M  V30 5 C -0.116049 -1.621508 4.553227 0
M  V30 6 C 0.056403 -1.099669 3.287801 0
M  V30 7 N 0.578955 0.125868 2.988810 0
M  V30 8 C 0.565038 0.228887 1.648332 0
M  V30 9 C 0.974873 1.250077 0.817362 0
M  V30 10 C 0.848334 1.098047 -0.548926 0
M  V30 11 C 1.284342 2.183618 -1.424361 0
M  V30 12 C 2.603443 2.156604 -1.851295 0
M  V30 13 C 3.152571 3.110037 -2.676293 0
M  V30 14 C 2.378350 4.163568 -3.121960 0
M  V30 15 C 1.053925 4.202884 -2.701480 0
M  V30 16 C 0.505629 3.242041 -1.871792 0
M  V30 17 Cl -1.150230 3.268105 -1.330585 0
M  V30 18 C 0.311203 -0.078844 -1.064934 0
M  V30 19 C -0.091161 -1.084324 -0.220245 0
M  V30 20 C 0.036685 -0.927027 1.123416 0
M  V30 21 C -0.288325 -1.772658 2.138186 0
M  V30 22 C -0.818906 -3.007484 2.346842 0
M  V30 23 C -0.583132 -2.123014 -1.082759 0
M  V30 24 O -1.065166 -3.244993 -0.891525 0
M  V30 25 N -0.466431 -1.720095 -2.433786 0
M  V30 26 C 0.105148 -0.408362 -2.474876 0
M  V30 27 O 0.371375 0.301540 -3.477029 0
M  V30 28 H -0.802388 -5.369407 5.577544 0
M  V30 29 H -2.479845 -4.727817 5.519237 0
M  V30 30 H -2.157998 -6.435200 4.932020 0
M  V30 31 H -0.786802 -3.273098 5.717052 0
M  V30 32 H 0.157379 -1.084438 5.432571 0
M  V30 33 H 0.927474 0.856518 3.651404 0
M  V30 34 H 1.388634 2.153527 1.246052 0
M  V30 35 H 3.250856 1.364743 -1.538424 0
M  V30 36 H 4.188883 3.057199 -2.990491 0
M  V30 37 H 2.749532 4.945358 -3.771757 0
M  V30 38 H 0.360626 4.984172 -2.991786 0
M  V30 39 H -1.119469 -3.612964 1.530362 0
M  V30 40 H -0.711458 -2.189185 -3.342689 0
M  V30 END ATOM
M  V30 BEGIN BOND
M  V30 1 1 1 2
M  V30 2 1 2 3
M  V30 3 2 3 4
M  V30 4 1 4 5
M  V30 5 2 5 6
M  V30 6 1 6 7
M  V30 7 1 7 8
M  V30 8 2 8 9
M  V30 9 1 9 10
M  V30 10 1 10 11
M  V30 11 2 11 12
M  V30 12 1 12 13
M  V30 13 2 13 14
M  V30 14 1 14 15
M  V30 15 2 15 16
M  V30 16 1 16 17
M  V30 17 2 10 18
M  V30 18 1 18 19
M  V30 19 2 19 20
M  V30 20 1 20 21
M  V30 21 2 21 22
M  V30 22 1 19 23
M  V30 23 2 23 24
M  V30 24 1 23 25
M  V30 25 1 25 26
M  V30 26 2 26 27
M  V30 27 1 22 3
M  V30 28 1 21 6
M  V30 29 1 20 8
M  V30 30 1 16 11
M  V30 31 1 26 18
M  V30 32 1 1 28
M  V30 33 1 1 29
M  V30 34 1 1 30
M  V30 35 1 4 31
M  V30 36 1 5 32
M  V30 37 1 7 33
M  V30 38 1 9 34
M  V30 39 1 12 35
M  V30 40 1 13 36
M  V30 41 1 14 37
M  V30 42 1 15 38
M  V30 43 1 22 39
M  V30 44 1 25 40
M  V30 END BOND
M  V30 END CTAB
M  END
>  <Dataset>  (693) 
ChEMBL_Kinases

>  <Ligand_Instance>  (693) 
nan

>  <PDB_ID>  (693) 
nan

>  <Standardized_SMILES>  (693) 
COc1ccc2[nH]c3cc(-c4ccccc4Cl)c4c(c3c2c1)C(=O)NC4=O

>  <Name>  (693) 
nan

>  <Pocket>  (693) 
nan

>  <ATP_Site>  (693) 
nan

>  <Peripheral>  (693) 
nan

>  <Num_H_Atoms_ProtBoundConf>  (693) 
nan

>  <Num_Resolved_Atoms>  (693) 
nan

>  <Num_Not_Resolved_Atoms>  (693) 
nan

$$$$
CHEMBL208877
     RDKit          3D

  0  0  0  0  0  0  0  0  0  0999 V3000
M  V30 BEGIN CTAB
M  V30 COUNTS 41 42 0 0 0
M  V30 BEGIN ATOM
M  V30 1 C 0.659892 -6.319428 2.212174 0
M  V30 2 C -0.441437 -5.430149 2.786142 0
M  V30 3 O -0.726327 -4.343215 2.116826 0
M  V30 4 C -0.987780 -3.278191 1.466539 0
M  V30 5 N -0.082679 -2.310812 1.238086 0
M  V30 6 C -0.369124 -1.188690 0.551797 0
M  V30 7 N 0.611443 -0.188963 0.335136 0
M  V30 8 C 1.585531 0.128639 -0.641213 0
M  V30 9 O 1.804656 -0.535139 -1.681223 0
M  V30 10 C 2.469528 1.304295 -0.534092 0
M  V30 11 N 2.189173 2.056940 0.633683 0
M  V30 12 C 0.938497 2.748887 0.628145 0
M  V30 13 C 1.079208 4.225644 0.340905 0
M  V30 14 O 2.058330 4.814386 1.139495 0
M  V30 15 C 3.276746 4.267924 0.740266 0
M  V30 16 C 3.289991 2.822344 1.138821 0
M  V30 17 C -1.652324 -1.040694 0.068407 0
M  V30 18 C -2.667195 -1.970165 0.241424 0
M  V30 19 N -3.973962 -1.804263 -0.261013 0
M  V30 20 C -2.275803 -3.098273 0.964412 0
M  V30 21 C -3.294712 -4.110925 1.179781 0
M  V30 22 N -4.099073 -4.927361 1.353571 0
M  V30 23 H 1.074689 -6.903367 3.033809 0
M  V30 24 H 1.403489 -5.679466 1.733501 0
M  V30 25 H 0.181759 -7.019646 1.487918 0
M  V30 26 H -1.342718 -6.118103 2.892378 0
M  V30 27 H -0.119787 -5.228322 3.862180 0
M  V30 28 H 0.451728 0.366787 1.196527 0
M  V30 29 H 2.440153 1.898383 -1.473679 0
M  V30 30 H 3.542071 0.958437 -0.454220 0
M  V30 31 H 0.490391 2.677434 1.637086 0
M  V30 32 H 0.236721 2.336581 -0.110327 0
M  V30 33 H 1.396002 4.352160 -0.699650 0
M  V30 34 H 0.099190 4.716261 0.496333 0
M  V30 35 H 4.128519 4.755132 1.260757 0
M  V30 36 H 3.436652 4.378528 -0.355948 0
M  V30 37 H 3.219593 2.808163 2.256827 0
M  V30 38 H 4.252190 2.372203 0.853392 0
M  V30 39 H -1.911202 -0.150306 -0.485508 0
M  V30 40 H -4.438996 -1.515034 0.626671 0
M  V30 41 H -4.380188 -1.924667 -1.221037 0
M  V30 END ATOM
M  V30 BEGIN BOND
M  V30 1 1 1 2
M  V30 2 1 2 3
M  V30 3 1 3 4
M  V30 4 2 4 5
M  V30 5 1 5 6
M  V30 6 1 6 7
M  V30 7 1 7 8
M  V30 8 2 8 9
M  V30 9 1 8 10
M  V30 10 1 10 11
M  V30 11 1 11 12
M  V30 12 1 12 13
M  V30 13 1 13 14
M  V30 14 1 14 15
M  V30 15 1 15 16
M  V30 16 2 6 17
M  V30 17 1 17 18
M  V30 18 1 18 19
M  V30 19 2 18 20
M  V30 20 1 20 21
M  V30 21 3 21 22
M  V30 22 1 20 4
M  V30 23 1 16 11
M  V30 24 1 1 23
M  V30 25 1 1 24
M  V30 26 1 1 25
M  V30 27 1 2 26
M  V30 28 1 2 27
M  V30 29 1 7 28
M  V30 30 1 10 29
M  V30 31 1 10 30
M  V30 32 1 12 31
M  V30 33 1 12 32
M  V30 34 1 13 33
M  V30 35 1 13 34
M  V30 36 1 15 35
M  V30 37 1 15 36
M  V30 38 1 16 37
M  V30 39 1 16 38
M  V30 40 1 17 39
M  V30 41 1 19 40
M  V30 42 1 19 41
M  V30 END BOND
M  V30 END CTAB
M  END
>  <Dataset>  (694) 
ChEMBL_Kinases

>  <Ligand_Instance>  (694) 
nan

>  <PDB_ID>  (694) 
nan

>  <Standardized_SMILES>  (694) 
CCOc1nc(NC(=O)CN2CCOCC2)cc(N)c1C#N

>  <Name>  (694) 
nan

>  <Pocket>  (694) 
nan

>  <ATP_Site>  (694) 
nan

>  <Peripheral>  (694) 
nan

>  <Num_H_Atoms_ProtBoundConf>  (694) 
nan

>  <Num_Resolved_Atoms>  (694) 
nan

>  <Num_Not_Resolved_Atoms>  (694) 
nan

$$$$
CHEMBL211605
     RDKit          3D

  0  0  0  0  0  0  0  0  0  0999 V3000
M  V30 BEGIN CTAB
M  V30 COUNTS 28 28 0 0 0
M  V30 BEGIN ATOM
M  V30 1 C -1.965286 -0.715426 2.791262 0
M  V30 2 C -0.762405 -0.220742 3.560216 0
M  V30 3 O -0.049962 0.778522 2.895908 0
M  V30 4 C 0.501220 0.508118 1.650234 0
M  V30 5 N 0.398277 -0.665873 1.024258 0
M  V30 6 C 0.930369 -0.933752 -0.183090 0
M  V30 7 C 0.768907 -2.248980 -0.795958 0
M  V30 8 O 1.243635 -2.529529 -1.902319 0
M  V30 9 N 0.038659 -3.251720 -0.099846 0
M  V30 10 C -0.135136 -4.575790 -0.695239 0
M  V30 11 C 1.641186 0.053183 -0.852977 0
M  V30 12 C 1.745011 1.275939 -0.194482 0
M  V30 13 N 2.477898 2.279428 -0.895061 0
M  V30 14 C 1.194797 1.539086 1.044267 0
M  V30 15 C 1.348409 2.835977 1.659373 0
M  V30 16 N 1.477614 3.857505 2.160422 0
M  V30 17 H -2.876101 -0.206102 3.176273 0
M  V30 18 H -1.878571 -0.528550 1.703176 0
M  V30 19 H -2.086142 -1.812854 2.933388 0
M  V30 20 H -0.078290 -1.099519 3.729879 0
M  V30 21 H -1.112890 0.130271 4.549054 0
M  V30 22 H -0.376787 -3.051206 0.836760 0
M  V30 23 H -0.501918 -4.404049 -1.731857 0
M  V30 24 H 0.835041 -5.127480 -0.687897 0
M  V30 25 H -0.833635 -5.163868 -0.079630 0
M  V30 26 H 2.086900 -0.112065 -1.822834 0
M  V30 27 H 2.415513 3.168597 -1.434507 0
M  V30 28 H 1.759291 2.967892 -1.236164 0
M  V30 END ATOM
M  V30 BEGIN BOND
M  V30 1 1 1 2
M  V30 2 1 2 3
M  V30 3 1 3 4
M  V30 4 2 4 5
M  V30 5 1 5 6
M  V30 6 1 6 7
M  V30 7 2 7 8
M  V30 8 1 7 9
M  V30 9 1 9 10
M  V30 10 2 6 11
M  V30 11 1 11 12
M  V30 12 1 12 13
M  V30 13 2 12 14
M  V30 14 1 14 15
M  V30 15 3 15 16
M  V30 16 1 14 4
M  V30 17 1 1 17
M  V30 18 1 1 18
M  V30 19 1 1 19
M  V30 20 1 2 20
M  V30 21 1 2 21
M  V30 22 1 9 22
M  V30 23 1 10 23
M  V30 24 1 10 24
M  V30 25 1 10 25
M  V30 26 1 11 26
M  V30 27 1 13 27
M  V30 28 1 13 28
M  V30 END BOND
M  V30 END CTAB
M  END
>  <Dataset>  (695) 
ChEMBL_Kinases

>  <Ligand_Instance>  (695) 
nan

>  <PDB_ID>  (695) 
nan

>  <Standardized_SMILES>  (695) 
CCOc1nc(C(=O)NC)cc(N)c1C#N

>  <Name>  (695) 
nan

>  <Pocket>  (695) 
nan

>  <ATP_Site>  (695) 
nan

>  <Peripheral>  (695) 
nan

>  <Num_H_Atoms_ProtBoundConf>  (695) 
nan

>  <Num_Resolved_Atoms>  (695) 
nan

>  <Num_Not_Resolved_Atoms>  (695) 
nan

$$$$
CHEMBL1031
     RDKit          3D

  0  0  0  0  0  0  0  0  0  0999 V3000
M  V30 BEGIN CTAB
M  V30 COUNTS 31 32 0 0 0
M  V30 BEGIN ATOM
M  V30 1 O -1.446062 -2.464977 2.951654 0
M  V30 2 C -0.487096 -2.012488 3.647237 0
M  V30 3 O -0.956663 -1.891475 4.940237 0
M  V30 4 C 0.893799 -1.656734 3.236923 0
M  V30 5 C 1.107143 -1.895308 1.785760 0
M  V30 6 C 1.823278 -3.025644 1.385700 0
M  V30 7 C 2.077723 -3.350695 0.074755 0
M  V30 8 O 2.791276 -4.479147 -0.283969 0
M  V30 9 C 1.563288 -2.458762 -0.863643 0
M  V30 10 C 0.844887 -1.318404 -0.555082 0
M  V30 11 C 0.635749 -1.067836 0.789745 0
M  V30 12 N -0.097499 0.099367 1.148984 0
M  V30 13 C -0.604287 0.981217 0.152679 0
M  V30 14 C 0.253517 1.988027 -0.229215 0
M  V30 15 Cl 1.852958 2.177242 0.448350 0
M  V30 16 C -0.115081 2.914665 -1.185740 0
M  V30 17 C -1.358022 2.839223 -1.773297 0
M  V30 18 C -2.249705 1.825889 -1.404399 0
M  V30 19 C -1.848673 0.923300 -0.450073 0
M  V30 20 Cl -2.899513 -0.363749 0.066201 0
M  V30 21 H -1.512257 -2.593388 5.419952 0
M  V30 22 H 1.124889 -0.590432 3.524713 0
M  V30 23 H 1.609969 -2.258509 3.825200 0
M  V30 24 H 2.205282 -3.693416 2.151343 0
M  V30 25 H 2.363296 -5.120478 -0.946805 0
M  V30 26 H 1.746832 -2.686931 -1.904981 0
M  V30 27 H 0.477268 -0.674099 -1.335092 0
M  V30 28 H -0.292292 0.356408 2.137469 0
M  V30 29 H 0.535793 3.704618 -1.495784 0
M  V30 30 H -1.646778 3.547341 -2.510164 0
M  V30 31 H -3.238384 1.720865 -1.833196 0
M  V30 END ATOM
M  V30 BEGIN BOND
M  V30 1 2 1 2
M  V30 2 1 2 3
M  V30 3 1 2 4
M  V30 4 1 4 5
M  V30 5 2 5 6
M  V30 6 1 6 7
M  V30 7 1 7 8
M  V30 8 2 7 9
M  V30 9 1 9 10
M  V30 10 2 10 11
M  V30 11 1 11 12
M  V30 12 1 12 13
M  V30 13 2 13 14
M  V30 14 1 14 15
M  V30 15 1 14 16
M  V30 16 2 16 17
M  V30 17 1 17 18
M  V30 18 2 18 19
M  V30 19 1 19 20
M  V30 20 1 11 5
M  V30 21 1 19 13
M  V30 22 1 3 21
M  V30 23 1 4 22
M  V30 24 1 4 23
M  V30 25 1 6 24
M  V30 26 1 8 25
M  V30 27 1 9 26
M  V30 28 1 10 27
M  V30 29 1 12 28
M  V30 30 1 16 29
M  V30 31 1 17 30
M  V30 32 1 18 31
M  V30 END BOND
M  V30 END CTAB
M  END
>  <Dataset>  (696) 
ChEMBL_Kinases

>  <Ligand_Instance>  (696) 
nan

>  <PDB_ID>  (696) 
nan

>  <Standardized_SMILES>  (696) 
O=C(O)Cc1cc(O)ccc1Nc1c(Cl)cccc1Cl

>  <Name>  (696) 
5-HYDROXY-DICLOFENAC

>  <Pocket>  (696) 
nan

>  <ATP_Site>  (696) 
nan

>  <Peripheral>  (696) 
nan

>  <Num_H_Atoms_ProtBoundConf>  (696) 
nan

>  <Num_Resolved_Atoms>  (696) 
nan

>  <Num_Not_Resolved_Atoms>  (696) 
nan

$$$$
CHEMBL1098666
     RDKit          3D

  0  0  0  0  0  0  0  0  0  0999 V3000
M  V30 BEGIN CTAB
M  V30 COUNTS 60 64 0 0 0
M  V30 BEGIN ATOM
M  V30 1 C 3.666867 -0.011860 3.685309 0
M  V30 2 C 2.379860 -0.239840 2.882103 0
M  V30 3 C 1.406834 -0.907204 3.790260 0
M  V30 4 C 2.758365 -1.168318 1.747205 0
M  V30 5 N 1.978348 1.061846 2.406494 0
M  V30 6 N 2.380908 2.265786 2.825866 0
M  V30 7 C 1.755273 3.214563 2.107495 0
M  V30 8 C 0.917179 2.605225 1.189604 0
M  V30 9 C 0.119148 3.421152 0.285386 0
M  V30 10 C 0.181965 3.514992 -1.078529 0
M  V30 11 C -0.660699 4.341152 -1.789179 0
M  V30 12 N -1.578608 5.082616 -1.116084 0
M  V30 13 C -1.675677 5.021509 0.227872 0
M  V30 14 N -2.509488 5.669555 1.067486 0
M  V30 15 C -2.245419 5.296229 2.332882 0
M  V30 16 C -1.207741 4.379225 2.291321 0
M  V30 17 C -0.832218 4.191485 0.966276 0
M  V30 18 C 1.073225 1.228224 1.395309 0
M  V30 19 C 0.327576 0.277162 0.582923 0
M  V30 20 C -0.712268 -0.470523 1.138435 0
M  V30 21 C -1.500529 -1.405347 0.498261 0
M  V30 22 C -1.218608 -1.614481 -0.840708 0
M  V30 23 N -2.017974 -2.572709 -1.527017 0
M  V30 24 C -1.535796 -3.916005 -1.501912 0
M  V30 25 O -0.488745 -4.264678 -0.926232 0
M  V30 26 N -2.309532 -4.895520 -2.178342 0
M  V30 27 C -1.825911 -6.255737 -2.153580 0
M  V30 28 C -2.287562 -7.003506 -1.098077 0
M  V30 29 C -1.807149 -8.313014 -1.092210 0
M  V30 30 C -0.941000 -8.811620 -2.066552 0
M  V30 31 C -0.555311 -7.942279 -3.077836 0
M  V30 32 C -0.977624 -6.621870 -3.172451 0
M  V30 33 C -0.203724 -0.909001 -1.453028 0
M  V30 34 C 0.551389 0.013936 -0.759992 0
M  V30 35 H 3.805124 -0.811720 4.449330 0
M  V30 36 H 4.568425 -0.020152 3.049234 0
M  V30 37 H 3.610353 0.959700 4.242273 0
M  V30 38 H 0.721498 -0.217307 4.324010 0
M  V30 39 H 1.968033 -1.461061 4.570245 0
M  V30 40 H 0.849162 -1.706832 3.239330 0
M  V30 41 H 1.972012 -1.938338 1.617817 0
M  V30 42 H 3.707110 -1.731255 1.969898 0
M  V30 43 H 2.913279 -0.548613 0.828329 0
M  V30 44 H 1.942138 4.266067 2.290625 0
M  V30 45 H 0.936764 2.896967 -1.530599 0
M  V30 46 H -0.507383 4.320687 -2.857442 0
M  V30 47 H -3.250334 6.356113 0.806275 0
M  V30 48 H -2.757416 5.653453 3.222334 0
M  V30 49 H -0.742054 3.874673 3.118198 0
M  V30 50 H -0.918981 -0.290167 2.190742 0
M  V30 51 H -2.271877 -1.910326 1.054778 0
M  V30 52 H -2.903130 -2.314605 -2.019531 0
M  V30 53 H -3.191497 -4.727104 -2.690192 0
M  V30 54 H -2.946843 -6.617460 -0.360312 0
M  V30 55 H -2.133563 -8.968166 -0.277282 0
M  V30 56 H -0.589406 -9.832255 -2.027828 0
M  V30 57 H 0.116122 -8.343739 -3.825615 0
M  V30 58 H -0.674271 -5.951237 -3.960048 0
M  V30 59 H -0.018641 -1.106934 -2.505741 0
M  V30 60 H 1.346700 0.563501 -1.242716 0
M  V30 END ATOM
M  V30 BEGIN BOND
M  V30 1 1 1 2
M  V30 2 1 2 3
M  V30 3 1 2 4
M  V30 4 1 2 5
M  V30 5 1 5 6
M  V30 6 2 6 7
M  V30 7 1 7 8
M  V30 8 1 8 9
M  V30 9 2 9 10
M  V30 10 1 10 11
M  V30 11 2 11 12
M  V30 12 1 12 13
M  V30 13 1 13 14
M  V30 14 1 14 15
M  V30 15 2 15 16
M  V30 16 1 16 17
M  V30 17 2 8 18
M  V30 18 1 18 19
M  V30 19 2 19 20
M  V30 20 1 20 21
M  V30 21 2 21 22
M  V30 22 1 22 23
M  V30 23 1 23 24
M  V30 24 2 24 25
M  V30 25 1 24 26
M  V30 26 1 26 27
M  V30 27 2 27 28
M  V30 28 1 28 29
M  V30 29 2 29 30
M  V30 30 1 30 31
M  V30 31 2 31 32
M  V30 32 1 22 33
M  V30 33 2 33 34
M  V30 34 1 18 5
M  V30 35 1 34 19
M  V30 36 1 17 9
M  V30 37 1 32 27
M  V30 38 2 17 13
M  V30 39 1 1 35
M  V30 40 1 1 36
M  V30 41 1 1 37
M  V30 42 1 3 38
M  V30 43 1 3 39
M  V30 44 1 3 40
M  V30 45 1 4 41
M  V30 46 1 4 42
M  V30 47 1 4 43
M  V30 48 1 7 44
M  V30 49 1 10 45
M  V30 50 1 11 46
M  V30 51 1 14 47
M  V30 52 1 15 48
M  V30 53 1 16 49
M  V30 54 1 20 50
M  V30 55 1 21 51
M  V30 56 1 23 52
M  V30 57 1 26 53
M  V30 58 1 28 54
M  V30 59 1 29 55
M  V30 60 1 30 56
M  V30 61 1 31 57
M  V30 62 1 32 58
M  V30 63 1 33 59
M  V30 64 1 34 60
M  V30 END BOND
M  V30 END CTAB
M  END
>  <Dataset>  (697) 
ChEMBL_Kinases

>  <Ligand_Instance>  (697) 
nan

>  <PDB_ID>  (697) 
nan

>  <Standardized_SMILES>  (697) 
CC(C)(C)n1ncc(-c2ccnc3[nH]ccc23)c1-c1ccc(NC(=O)Nc2ccccc2)cc1

>  <Name>  (697) 
nan

>  <Pocket>  (697) 
nan

>  <ATP_Site>  (697) 
nan

>  <Peripheral>  (697) 
nan

>  <Num_H_Atoms_ProtBoundConf>  (697) 
nan

>  <Num_Resolved_Atoms>  (697) 
nan

>  <Num_Not_Resolved_Atoms>  (697) 
nan

$$$$
CHEMBL4633273
     RDKit          3D

  0  0  0  0  0  0  0  0  0  0999 V3000
M  V30 BEGIN CTAB
M  V30 COUNTS 54 57 0 0 0
M  V30 BEGIN ATOM
M  V30 1 C 4.229596 -0.857091 3.080120 0
M  V30 2 C 4.391440 -1.045487 1.614576 0
M  V30 3 N 4.907908 -2.120499 0.957358 0
M  V30 4 O 4.870630 -1.885832 -0.329849 0
M  V30 5 C 4.346458 -0.688900 -0.562660 0
M  V30 6 C 4.125862 -0.041633 -1.880299 0
M  V30 7 C 4.028736 -0.123836 0.659724 0
M  V30 8 C 3.428417 1.183443 0.933476 0
M  V30 9 C 4.188282 2.320635 1.126868 0
M  V30 10 N 3.620278 3.527978 1.380266 0
M  V30 11 C 2.276536 3.624078 1.445816 0
M  V30 12 N 1.693841 4.894391 1.711794 0
M  V30 13 C 1.502580 2.498616 1.255208 0
M  V30 14 O 0.116218 2.648553 1.332651 0
M  V30 15 C -0.754451 1.581662 1.157655 0
M  V30 16 C -1.011040 0.968005 2.373262 0
M  V30 17 C -1.859537 -0.134572 2.468840 0
M  V30 18 C -2.443674 -0.598504 1.284702 0
M  V30 19 C -3.336379 -1.750853 1.352608 0
M  V30 20 O -4.302218 -1.438858 2.117455 0
M  V30 21 N -3.084278 -2.967374 0.649554 0
M  V30 22 C -1.963298 -3.294270 -0.222826 0
M  V30 23 C -2.447867 -3.405403 -1.648040 0
M  V30 24 N -3.815554 -3.871805 -1.611777 0
M  V30 25 C -4.783576 -2.806765 -1.691234 0
M  V30 26 C -4.083456 -4.760139 -0.522517 0
M  V30 27 C -4.076311 -4.024491 0.824671 0
M  V30 28 C -2.187539 0.013388 0.074050 0
M  V30 29 C -1.343912 1.103581 0.004845 0
M  V30 30 N 2.070103 1.299493 1.003410 0
M  V30 31 H 4.823932 0.038969 3.368751 0
M  V30 32 H 3.141445 -0.624573 3.250459 0
M  V30 33 H 4.533990 -1.751217 3.636999 0
M  V30 34 H 4.790843 0.863352 -1.972330 0
M  V30 35 H 4.519781 -0.734449 -2.671853 0
M  V30 36 H 3.062739 0.211236 -2.068410 0
M  V30 37 H 5.267535 2.271089 1.079618 0
M  V30 38 H 0.763138 5.096341 1.239014 0
M  V30 39 H 2.098639 5.635113 2.324477 0
M  V30 40 H -0.614708 1.241333 3.352581 0
M  V30 41 H -2.094865 -0.650315 3.385503 0
M  V30 42 H -1.586986 -4.314856 0.058585 0
M  V30 43 H -1.114642 -2.607672 -0.096120 0
M  V30 44 H -1.799720 -4.148032 -2.191738 0
M  V30 45 H -2.342596 -2.457168 -2.197882 0
M  V30 46 H -5.200199 -2.636769 -0.686878 0
M  V30 47 H -4.298067 -1.907193 -2.140170 0
M  V30 48 H -5.583526 -3.104421 -2.412320 0
M  V30 49 H -3.320465 -5.556391 -0.497970 0
M  V30 50 H -5.070835 -5.223676 -0.687791 0
M  V30 51 H -5.063955 -3.665203 1.113828 0
M  V30 52 H -3.638870 -4.695230 1.615335 0
M  V30 53 H -2.620844 -0.317951 -0.858424 0
M  V30 54 H -1.064602 1.666718 -0.874272 0
M  V30 END ATOM
M  V30 BEGIN BOND
M  V30 1 1 1 2
M  V30 2 2 2 3
M  V30 3 1 3 4
M  V30 4 1 4 5
M  V30 5 1 5 6
M  V30 6 2 5 7
M  V30 7 1 7 8
M  V30 8 2 8 9
M  V30 9 1 9 10
M  V30 10 2 10 11
M  V30 11 1 11 12
M  V30 12 1 11 13
M  V30 13 1 13 14
M  V30 14 1 14 15
M  V30 15 2 15 16
M  V30 16 1 16 17
M  V30 17 2 17 18
M  V30 18 1 18 19
M  V30 19 2 19 20
M  V30 20 1 19 21
M  V30 21 1 21 22
M  V30 22 1 22 23
M  V30 23 1 23 24
M  V30 24 1 24 25
M  V30 25 1 24 26
M  V30 26 1 26 27
M  V30 27 1 18 28
M  V30 28 2 28 29
M  V30 29 2 13 30
M  V30 30 1 7 2
M  V30 31 1 30 8
M  V30 32 1 29 15
M  V30 33 1 27 21
M  V30 34 1 1 31
M  V30 35 1 1 32
M  V30 36 1 1 33
M  V30 37 1 6 34
M  V30 38 1 6 35
M  V30 39 1 6 36
M  V30 40 1 9 37
M  V30 41 1 12 38
M  V30 42 1 12 39
M  V30 43 1 16 40
M  V30 44 1 17 41
M  V30 45 1 22 42
M  V30 46 1 22 43
M  V30 47 1 23 44
M  V30 48 1 23 45
M  V30 49 1 25 46
M  V30 50 1 25 47
M  V30 51 1 25 48
M  V30 52 1 26 49
M  V30 53 1 26 50
M  V30 54 1 27 51
M  V30 55 1 27 52
M  V30 56 1 28 53
M  V30 57 1 29 54
M  V30 END BOND
M  V30 END CTAB
M  END
>  <Dataset>  (698) 
ChEMBL_Kinases

>  <Ligand_Instance>  (698) 
nan

>  <PDB_ID>  (698) 
nan

>  <Standardized_SMILES>  (698) 
Cc1noc(C)c1-c1cnc(N)c(Oc2ccc(C(=O)N3CCN(C)CC3)cc2)n1

>  <Name>  (698) 
nan

>  <Pocket>  (698) 
nan

>  <ATP_Site>  (698) 
nan

>  <Peripheral>  (698) 
nan

>  <Num_H_Atoms_ProtBoundConf>  (698) 
nan

>  <Num_Resolved_Atoms>  (698) 
nan

>  <Num_Not_Resolved_Atoms>  (698) 
nan

$$$$
CHEMBL103628
     RDKit          3D

  0  0  0  0  0  0  0  0  0  0999 V3000
M  V30 BEGIN CTAB
M  V30 COUNTS 75 80 0 0 0
M  V30 BEGIN ATOM
M  V30 1 C 4.543941 -3.476813 0.797517 0
M  V30 2 N 3.204402 -4.145242 0.710817 0
M  V30 3 C 2.407257 -3.641786 1.774586 0
M  V30 4 C 1.999702 -2.225484 1.680802 0
M  V30 5 N 1.366572 -1.780091 2.944767 0
M  V30 6 C 0.116686 -2.539126 3.182313 0
M  V30 7 C 0.796746 -0.436894 2.618968 0
M  V30 8 C 1.788189 0.630464 2.379321 0
M  V30 9 N 1.094458 1.838253 1.837302 0
M  V30 10 C 0.783006 1.574048 0.538136 0
M  V30 11 C 0.103443 2.607363 -0.057659 0
M  V30 12 C 0.024088 3.531024 0.973030 0
M  V30 13 C -0.521903 4.800720 1.080523 0
M  V30 14 C -0.436103 5.503464 2.290389 0
M  V30 15 C 0.198620 4.937190 3.402055 0
M  V30 16 C 0.758284 3.656388 3.320290 0
M  V30 17 C 0.616277 3.065557 2.096313 0
M  V30 18 C -0.402565 2.648688 -1.418137 0
M  V30 19 C -1.137137 1.772870 -2.083704 0
M  V30 20 C -1.392771 2.268267 -3.429708 0
M  V30 21 O -2.048408 1.752566 -4.389994 0
M  V30 22 N -0.754107 3.557866 -3.586757 0
M  V30 23 C -0.148157 3.762476 -2.317094 0
M  V30 24 O 0.504283 4.850035 -2.155663 0
M  V30 25 C -1.678441 0.487642 -1.662134 0
M  V30 26 C -1.056320 -0.710140 -1.392269 0
M  V30 27 N -1.924344 -1.639062 -0.991581 0
M  V30 28 C -3.177642 -1.103803 -0.980041 0
M  V30 29 C -4.395599 -1.614273 -0.663285 0
M  V30 30 C -5.473558 -0.768102 -0.772303 0
M  V30 31 C -5.437309 0.563469 -1.177121 0
M  V30 32 C -4.152133 1.022431 -1.486993 0
M  V30 33 C -3.003559 0.219541 -1.399770 0
M  V30 34 C -1.521772 -2.964734 -0.580409 0
M  V30 35 C -0.211800 -3.322725 -1.226560 0
M  V30 36 N 0.270305 -4.560620 -0.620221 0
M  V30 37 C -0.661472 -5.627636 -1.008520 0
M  V30 38 C 1.578888 -4.904838 -1.017853 0
M  V30 39 C 2.767750 -4.157615 -0.620783 0
M  V30 40 H 4.768205 -3.270556 1.862031 0
M  V30 41 H 5.269049 -4.243622 0.460819 0
M  V30 42 H 4.580415 -2.586916 0.156589 0
M  V30 43 H 1.583309 -4.371345 1.979720 0
M  V30 44 H 3.053934 -3.730904 2.698692 0
M  V30 45 H 1.295237 -1.933328 0.912656 0
M  V30 46 H 2.933279 -1.631718 1.515258 0
M  V30 47 H 0.269143 -3.608318 3.268979 0
M  V30 48 H -0.168911 -2.199322 4.231031 0
M  V30 49 H -0.692735 -2.178975 2.553910 0
M  V30 50 H 0.047091 -0.565148 1.826756 0
M  V30 51 H 0.208038 -0.176817 3.546574 0
M  V30 52 H 2.310328 0.932261 3.327435 0
M  V30 53 H 2.534908 0.320306 1.642816 0
M  V30 54 H 0.995818 0.718715 -0.080208 0
M  V30 55 H -1.019276 5.254319 0.223065 0
M  V30 56 H -0.856408 6.506008 2.407674 0
M  V30 57 H 0.240296 5.518039 4.317886 0
M  V30 58 H 1.252372 3.205222 4.172580 0
M  V30 59 H -0.771109 4.150231 -4.455944 0
M  V30 60 H -0.000342 -0.667065 -1.573941 0
M  V30 61 H -4.527361 -2.634444 -0.340035 0
M  V30 62 H -6.460805 -1.179674 -0.516591 0
M  V30 63 H -6.302122 1.200843 -1.253015 0
M  V30 64 H -4.121352 2.063162 -1.803831 0
M  V30 65 H -1.470107 -3.046127 0.536955 0
M  V30 66 H -2.318989 -3.717393 -0.844699 0
M  V30 67 H 0.476110 -2.515524 -1.129359 0
M  V30 68 H -0.450442 -3.596005 -2.293014 0
M  V30 69 H -1.169857 -5.409977 -1.968279 0
M  V30 70 H -0.066208 -6.550832 -1.160223 0
M  V30 71 H -1.348578 -5.766604 -0.156291 0
M  V30 72 H 1.738535 -5.995546 -0.699504 0
M  V30 73 H 1.517729 -5.046457 -2.156451 0
M  V30 74 H 2.800443 -3.118520 -1.095902 0
M  V30 75 H 3.638684 -4.640423 -1.201862 0
M  V30 END ATOM
M  V30 BEGIN BOND
M  V30 1 1 1 2
M  V30 2 1 2 3
M  V30 3 1 3 4
M  V30 4 1 4 5
M  V30 5 1 5 6
M  V30 6 1 5 7
M  V30 7 1 7 8
M  V30 8 1 8 9
M  V30 9 1 9 10
M  V30 10 2 10 11
M  V30 11 1 11 12
M  V30 12 2 12 13
M  V30 13 1 13 14
M  V30 14 2 14 15
M  V30 15 1 15 16
M  V30 16 2 16 17
M  V30 17 1 11 18
M  V30 18 2 18 19
M  V30 19 1 19 20
M  V30 20 2 20 21
M  V30 21 1 20 22
M  V30 22 1 22 23
M  V30 23 2 23 24
M  V30 24 1 19 25
M  V30 25 2 25 26
M  V30 26 1 26 27
M  V30 27 1 27 28
M  V30 28 2 28 29
M  V30 29 1 29 30
M  V30 30 2 30 31
M  V30 31 1 31 32
M  V30 32 2 32 33
M  V30 33 1 27 34
M  V30 34 1 34 35
M  V30 35 1 35 36
M  V30 36 1 36 37
M  V30 37 1 36 38
M  V30 38 1 38 39
M  V30 39 1 39 2
M  V30 40 1 17 9
M  V30 41 1 23 18
M  V30 42 1 33 25
M  V30 43 1 17 12
M  V30 44 1 33 28
M  V30 45 1 1 40
M  V30 46 1 1 41
M  V30 47 1 1 42
M  V30 48 1 3 43
M  V30 49 1 3 44
M  V30 50 1 4 45
M  V30 51 1 4 46
M  V30 52 1 6 47
M  V30 53 1 6 48
M  V30 54 1 6 49
M  V30 55 1 7 50
M  V30 56 1 7 51
M  V30 57 1 8 52
M  V30 58 1 8 53
M  V30 59 1 10 54
M  V30 60 1 13 55
M  V30 61 1 14 56
M  V30 62 1 15 57
M  V30 63 1 16 58
M  V30 64 1 22 59
M  V30 65 1 26 60
M  V30 66 1 29 61
M  V30 67 1 30 62
M  V30 68 1 31 63
M  V30 69 1 32 64
M  V30 70 1 34 65
M  V30 71 1 34 66
M  V30 72 1 35 67
M  V30 73 1 35 68
M  V30 74 1 37 69
M  V30 75 1 37 70
M  V30 76 1 37 71
M  V30 77 1 38 72
M  V30 78 1 38 73
M  V30 79 1 39 74
M  V30 80 1 39 75
M  V30 END BOND
M  V30 END CTAB
M  END
>  <Dataset>  (699) 
ChEMBL_Kinases

>  <Ligand_Instance>  (699) 
nan

>  <PDB_ID>  (699) 
nan

>  <Standardized_SMILES>  (699) 
CN1CCN(C)CCn2cc(c3ccccc32)C2=C(C(=O)NC2=O)c2cn(c3ccccc23)CCN(C)CC1

>  <Name>  (699) 
nan

>  <Pocket>  (699) 
nan

>  <ATP_Site>  (699) 
nan

>  <Peripheral>  (699) 
nan

>  <Num_H_Atoms_ProtBoundConf>  (699) 
nan

>  <Num_Resolved_Atoms>  (699) 
nan

>  <Num_Not_Resolved_Atoms>  (699) 
nan

$$$$
CHEMBL4640153
     RDKit          3D

  0  0  0  0  0  0  0  0  0  0999 V3000
M  V30 BEGIN CTAB
M  V30 COUNTS 46 48 0 0 0
M  V30 BEGIN ATOM
M  V30 1 C -3.425583 -0.690843 2.298407 0
M  V30 2 C -2.341955 -0.617970 3.379771 0
M  V30 3 O -1.218020 -0.003630 2.778525 0
M  V30 4 C -0.031018 0.248876 3.410916 0
M  V30 5 O 0.042215 -0.105027 4.631533 0
M  V30 6 C 1.102018 0.885485 2.749512 0
M  V30 7 C 2.263785 1.101659 3.468074 0
M  V30 8 N 3.355429 1.682848 2.934135 0
M  V30 9 C 3.322355 2.072243 1.648627 0
M  V30 10 C 4.442813 2.675072 1.080594 0
M  V30 11 C 4.362870 3.059873 -0.246983 0
M  V30 12 C 3.257063 2.893265 -1.056130 0
M  V30 13 Br 3.248273 3.459313 -2.876935 0
M  V30 14 C 2.170754 2.292664 -0.453783 0
M  V30 15 C 2.180617 1.884635 0.863012 0
M  V30 16 C 1.073224 1.287256 1.429623 0
M  V30 17 N -0.122533 1.065629 0.687397 0
M  V30 18 C -0.585806 -0.024050 -0.113529 0
M  V30 19 C -1.825399 0.102177 -0.702523 0
M  V30 20 C -2.217337 -0.979146 -1.461509 0
M  V30 21 C -1.449447 -2.103800 -1.631182 0
M  V30 22 C -0.213122 -2.200227 -1.028685 0
M  V30 23 N 0.707111 -3.281671 -1.096055 0
M  V30 24 S 0.101390 -4.885715 -0.902321 0
M  V30 25 C -0.643893 -5.142504 0.676445 0
M  V30 26 O -0.922511 -5.135527 -1.960617 0
M  V30 27 O 1.234711 -5.883702 -1.039038 0
M  V30 28 C 0.241369 -1.133907 -0.244410 0
M  V30 29 H -3.599178 0.310643 1.862591 0
M  V30 30 H -4.361638 -1.131783 2.720260 0
M  V30 31 H -3.094466 -1.416674 1.519683 0
M  V30 32 H -2.702246 -0.111494 4.275421 0
M  V30 33 H -2.107433 -1.676595 3.670570 0
M  V30 34 H 2.326017 0.802969 4.498832 0
M  V30 35 H 5.358262 2.844085 1.651031 0
M  V30 36 H 5.227328 3.539957 -0.733152 0
M  V30 37 H 1.274968 2.140480 -1.054217 0
M  V30 38 H -0.670131 1.922302 0.837512 0
M  V30 39 H -2.425599 0.990201 -0.565310 0
M  V30 40 H -3.175475 -0.966742 -1.960263 0
M  V30 41 H -1.735637 -2.959655 -2.219267 0
M  V30 42 H 1.738331 -3.090502 -1.262055 0
M  V30 43 H -0.119589 -5.920622 1.266456 0
M  V30 44 H -1.711027 -5.489199 0.571794 0
M  V30 45 H -0.643222 -4.237043 1.317308 0
M  V30 46 H 1.199659 -1.120075 0.267840 0
M  V30 END ATOM
M  V30 BEGIN BOND
M  V30 1 1 1 2
M  V30 2 1 2 3
M  V30 3 1 3 4
M  V30 4 2 4 5
M  V30 5 1 4 6
M  V30 6 2 6 7
M  V30 7 1 7 8
M  V30 8 2 8 9
M  V30 9 1 9 10
M  V30 10 2 10 11
M  V30 11 1 11 12
M  V30 12 1 12 13
M  V30 13 2 12 14
M  V30 14 1 14 15
M  V30 15 2 15 16
M  V30 16 1 16 17
M  V30 17 1 17 18
M  V30 18 2 18 19
M  V30 19 1 19 20
M  V30 20 2 20 21
M  V30 21 1 21 22
M  V30 22 1 22 23
M  V30 23 1 23 24
M  V30 24 1 24 25
M  V30 25 2 24 26
M  V30 26 2 24 27
M  V30 27 2 22 28
M  V30 28 1 16 6
M  V30 29 1 28 18
M  V30 30 1 15 9
M  V30 31 1 1 29
M  V30 32 1 1 30
M  V30 33 1 1 31
M  V30 34 1 2 32
M  V30 35 1 2 33
M  V30 36 1 7 34
M  V30 37 1 10 35
M  V30 38 1 11 36
M  V30 39 1 14 37
M  V30 40 1 17 38
M  V30 41 1 19 39
M  V30 42 1 20 40
M  V30 43 1 21 41
M  V30 44 1 23 42
M  V30 45 1 25 43
M  V30 46 1 25 44
M  V30 47 1 25 45
M  V30 48 1 28 46
M  V30 END BOND
M  V30 END CTAB
M  END
>  <Dataset>  (700) 
ChEMBL_Kinases

>  <Ligand_Instance>  (700) 
nan

>  <PDB_ID>  (700) 
nan

>  <Standardized_SMILES>  (700) 
CCOC(=O)c1cnc2ccc(Br)cc2c1Nc1cccc(NS(C)(=O)=O)c1

>  <Name>  (700) 
nan

>  <Pocket>  (700) 
nan

>  <ATP_Site>  (700) 
nan

>  <Peripheral>  (700) 
nan

>  <Num_H_Atoms_ProtBoundConf>  (700) 
nan

>  <Num_Resolved_Atoms>  (700) 
nan

>  <Num_Not_Resolved_Atoms>  (700) 
nan

$$$$
CHEMBL1095828
     RDKit          3D

  0  0  0  0  0  0  0  0  0  0999 V3000
M  V30 BEGIN CTAB
M  V30 COUNTS 54 58 0 0 0
M  V30 BEGIN ATOM
M  V30 1 C 3.070577 -2.261898 2.706163 0
M  V30 2 C 2.258207 -1.124618 3.339812 0
M  V30 3 N 2.652002 0.102651 2.633566 0
M  V30 4 N 3.639952 0.926062 2.960566 0
M  V30 5 C 3.700665 1.943773 2.079457 0
M  V30 6 C 2.679678 1.725952 1.151979 0
M  V30 7 C 2.484890 2.668385 0.058670 0
M  V30 8 C 2.626553 2.485580 -1.301695 0
M  V30 9 C 2.398943 3.486645 -2.198379 0
M  V30 10 N 2.026329 4.689188 -1.765247 0
M  V30 11 C 1.873248 4.920268 -0.441199 0
M  V30 12 N 1.507638 6.054086 0.184126 0
M  V30 13 C 1.475232 5.861402 1.518164 0
M  V30 14 C 1.843319 4.531880 1.707957 0
M  V30 15 C 2.096368 3.925203 0.498100 0
M  V30 16 C 2.045310 0.579017 1.517999 0
M  V30 17 C 0.941842 0.008194 0.826516 0
M  V30 18 C -0.216909 0.025047 1.614070 0
M  V30 19 C -1.428644 -0.488351 1.137619 0
M  V30 20 C -1.488806 -1.024037 -0.135078 0
M  V30 21 N -2.691666 -1.563436 -0.683772 0
M  V30 22 C -2.949988 -2.945961 -0.470340 0
M  V30 23 O -2.065773 -3.555457 0.196692 0
M  V30 24 N -4.085709 -3.613622 -0.947612 0
M  V30 25 C -4.231820 -5.007636 -0.665794 0
M  V30 26 C -3.676979 -5.821807 -1.621100 0
M  V30 27 C -3.747684 -7.205877 -1.471375 0
M  V30 28 C -4.388754 -7.672265 -0.340688 0
M  V30 29 C -4.940863 -6.851383 0.609943 0
M  V30 30 C -4.873001 -5.482586 0.465104 0
M  V30 31 C -0.355476 -1.047760 -0.923306 0
M  V30 32 C 0.830452 -0.536555 -0.435388 0
M  V30 33 H 2.670680 -3.249213 2.984592 0
M  V30 34 H 3.004293 -2.134921 1.596206 0
M  V30 35 H 4.144975 -2.190402 2.972406 0
M  V30 36 H 1.212439 -1.374377 3.166654 0
M  V30 37 H 2.585137 -1.096314 4.393964 0
M  V30 38 H 4.472946 2.702249 2.228076 0
M  V30 39 H 2.932533 1.485379 -1.564582 0
M  V30 40 H 2.556305 3.174535 -3.234541 0
M  V30 41 H 1.280320 6.957828 -0.289692 0
M  V30 42 H 1.210673 6.621357 2.232797 0
M  V30 43 H 1.921141 4.041154 2.668236 0
M  V30 44 H -0.307249 0.420171 2.638661 0
M  V30 45 H -2.334322 -0.486929 1.727326 0
M  V30 46 H -3.414560 -1.038007 -1.235713 0
M  V30 47 H -4.796954 -3.081399 -1.495667 0
M  V30 48 H -3.173313 -5.463056 -2.509437 0
M  V30 49 H -3.317736 -7.860257 -2.211911 0
M  V30 50 H -4.442937 -8.753382 -0.225799 0
M  V30 51 H -5.442815 -7.217720 1.496402 0
M  V30 52 H -5.273871 -4.741759 1.150732 0
M  V30 53 H -0.373466 -1.455348 -1.910719 0
M  V30 54 H 1.767606 -0.513131 -0.974823 0
M  V30 END ATOM
M  V30 BEGIN BOND
M  V30 1 1 1 2
M  V30 2 1 2 3
M  V30 3 1 3 4
M  V30 4 2 4 5
M  V30 5 1 5 6
M  V30 6 1 6 7
M  V30 7 2 7 8
M  V30 8 1 8 9
M  V30 9 2 9 10
M  V30 10 1 10 11
M  V30 11 1 11 12
M  V30 12 1 12 13
M  V30 13 2 13 14
M  V30 14 1 14 15
M  V30 15 2 6 16
M  V30 16 1 16 17
M  V30 17 2 17 18
M  V30 18 1 18 19
M  V30 19 2 19 20
M  V30 20 1 20 21
M  V30 21 1 21 22
M  V30 22 2 22 23
M  V30 23 1 22 24
M  V30 24 1 24 25
M  V30 25 2 25 26
M  V30 26 1 26 27
M  V30 27 2 27 28
M  V30 28 1 28 29
M  V30 29 2 29 30
M  V30 30 1 20 31
M  V30 31 2 31 32
M  V30 32 1 16 3
M  V30 33 1 32 17
M  V30 34 1 15 7
M  V30 35 1 30 25
M  V30 36 2 15 11
M  V30 37 1 1 33
M  V30 38 1 1 34
M  V30 39 1 1 35
M  V30 40 1 2 36
M  V30 41 1 2 37
M  V30 42 1 5 38
M  V30 43 1 8 39
M  V30 44 1 9 40
M  V30 45 1 12 41
M  V30 46 1 13 42
M  V30 47 1 14 43
M  V30 48 1 18 44
M  V30 49 1 19 45
M  V30 50 1 21 46
M  V30 51 1 24 47
M  V30 52 1 26 48
M  V30 53 1 27 49
M  V30 54 1 28 50
M  V30 55 1 29 51
M  V30 56 1 30 52
M  V30 57 1 31 53
M  V30 58 1 32 54
M  V30 END BOND
M  V30 END CTAB
M  END
>  <Dataset>  (701) 
ChEMBL_Kinases

>  <Ligand_Instance>  (701) 
nan

>  <PDB_ID>  (701) 
nan

>  <Standardized_SMILES>  (701) 
CCn1ncc(-c2ccnc3[nH]ccc23)c1-c1ccc(NC(=O)Nc2ccccc2)cc1

>  <Name>  (701) 
nan

>  <Pocket>  (701) 
nan

>  <ATP_Site>  (701) 
nan

>  <Peripheral>  (701) 
nan

>  <Num_H_Atoms_ProtBoundConf>  (701) 
nan

>  <Num_Resolved_Atoms>  (701) 
nan

>  <Num_Not_Resolved_Atoms>  (701) 
nan

$$$$
CHEMBL211157
     RDKit          3D

  0  0  0  0  0  0  0  0  0  0999 V3000
M  V30 BEGIN CTAB
M  V30 COUNTS 40 44 0 0 0
M  V30 BEGIN ATOM
M  V30 1 C 0.576505 -2.853056 3.088889 0
M  V30 2 C 0.617355 -2.119623 1.806315 0
M  V30 3 C 1.070700 -2.707130 0.627991 0
M  V30 4 C 1.091830 -1.989217 -0.541774 0
M  V30 5 C 0.671477 -0.703364 -0.557794 0
M  V30 6 C 0.219832 -0.103652 0.594562 0
M  V30 7 N -0.133053 1.161295 0.303558 0
M  V30 8 C 0.101798 1.340415 -1.030151 0
M  V30 9 C -0.119563 2.495056 -1.752979 0
M  V30 10 C 0.165320 2.536685 -3.108028 0
M  V30 11 C 0.678859 1.382343 -3.711516 0
M  V30 12 O 0.967837 1.412659 -5.068212 0
M  V30 13 C 0.869608 0.274316 -2.919508 0
M  V30 14 C 0.605201 0.185744 -1.587150 0
M  V30 15 C 0.190656 -0.807985 1.780536 0
M  V30 16 C -0.295510 -0.149982 3.002330 0
M  V30 17 C -1.654633 -0.275470 3.226504 0
M  V30 18 C -2.221276 0.312027 4.359125 0
M  V30 19 C -1.425481 1.012314 5.245904 0
M  V30 20 C -0.065782 1.108567 4.974067 0
M  V30 21 C 0.533427 0.543177 3.867097 0
M  V30 22 C 1.607520 -2.898792 -1.521285 0
M  V30 23 O 1.850619 -2.828896 -2.728961 0
M  V30 24 N 1.887334 -4.149871 -0.919619 0
M  V30 25 C 1.557635 -4.085301 0.479896 0
M  V30 26 O 1.654090 -4.962710 1.354654 0
M  V30 27 H 1.457519 -3.497642 3.165145 0
M  V30 28 H 0.630746 -2.147551 3.944506 0
M  V30 29 H -0.392749 -3.415930 3.150085 0
M  V30 30 H -0.510760 1.840671 1.001237 0
M  V30 31 H -0.512690 3.379424 -1.292026 0
M  V30 32 H -0.021212 3.458413 -3.640460 0
M  V30 33 H 0.333394 1.860693 -5.724777 0
M  V30 34 H 1.259974 -0.556703 -3.447748 0
M  V30 35 H -2.337535 -0.805913 2.580028 0
M  V30 36 H -3.274412 0.239186 4.572455 0
M  V30 37 H -1.871921 1.465151 6.121951 0
M  V30 38 H 0.592305 1.660714 5.663600 0
M  V30 39 H 1.576086 0.607772 3.643679 0
M  V30 40 H 2.272428 -5.066281 -1.296297 0
M  V30 END ATOM
M  V30 BEGIN BOND
M  V30 1 1 1 2
M  V30 2 2 2 3
M  V30 3 1 3 4
M  V30 4 2 4 5
M  V30 5 1 5 6
M  V30 6 1 6 7
M  V30 7 1 7 8
M  V30 8 2 8 9
M  V30 9 1 9 10
M  V30 10 2 10 11
M  V30 11 1 11 12
M  V30 12 1 11 13
M  V30 13 2 13 14
M  V30 14 2 6 15
M  V30 15 1 15 16
M  V30 16 2 16 17
M  V30 17 1 17 18
M  V30 18 2 18 19
M  V30 19 1 19 20
M  V30 20 2 20 21
M  V30 21 1 4 22
M  V30 22 2 22 23
M  V30 23 1 22 24
M  V30 24 1 24 25
M  V30 25 2 25 26
M  V30 26 1 15 2
M  V30 27 1 21 16
M  V30 28 1 25 3
M  V30 29 1 14 5
M  V30 30 1 14 8
M  V30 31 1 1 27
M  V30 32 1 1 28
M  V30 33 1 1 29
M  V30 34 1 7 30
M  V30 35 1 9 31
M  V30 36 1 10 32
M  V30 37 1 12 33
M  V30 38 1 13 34
M  V30 39 1 17 35
M  V30 40 1 18 36
M  V30 41 1 19 37
M  V30 42 1 20 38
M  V30 43 1 21 39
M  V30 44 1 24 40
M  V30 END BOND
M  V30 END CTAB
M  END
>  <Dataset>  (702) 
ChEMBL_Kinases

>  <Ligand_Instance>  (702) 
nan

>  <PDB_ID>  (702) 
nan

>  <Standardized_SMILES>  (702) 
Cc1c2c(c3c([nH]c4ccc(O)cc43)c1-c1ccccc1)C(=O)NC2=O

>  <Name>  (702) 
nan

>  <Pocket>  (702) 
nan

>  <ATP_Site>  (702) 
nan

>  <Peripheral>  (702) 
nan

>  <Num_H_Atoms_ProtBoundConf>  (702) 
nan

>  <Num_Resolved_Atoms>  (702) 
nan

>  <Num_Not_Resolved_Atoms>  (702) 
nan

$$$$
CHEMBL1204914
     RDKit          3D

  0  0  0  0  0  0  0  0  0  0999 V3000
M  V30 BEGIN CTAB
M  V30 COUNTS 27 29 0 0 0
M  V30 BEGIN ATOM
M  V30 1 O -0.229612 -3.252881 5.687489 0
M  V30 2 C -0.215354 -3.767373 4.531766 0
M  V30 3 O -0.325966 -5.133982 4.443472 0
M  V30 4 C -0.085832 -2.934278 3.340479 0
M  V30 5 C 0.030843 -1.559633 3.324336 0
M  V30 6 C 0.125289 -1.227803 1.990542 0
M  V30 7 C 0.259217 -0.035749 1.319648 0
M  V30 8 C 0.330639 0.004176 -0.047264 0
M  V30 9 C 0.472715 1.195702 -0.881051 0
M  V30 10 C -0.061635 1.277146 -2.148977 0
M  V30 11 C 0.093717 2.422532 -2.908439 0
M  V30 12 C 0.805018 3.439956 -2.306704 0
M  V30 13 N 1.329943 3.358001 -1.059373 0
M  V30 14 C 1.180582 2.230763 -0.304166 0
M  V30 15 C 0.266727 -1.179190 -0.767108 0
M  V30 16 C 0.131813 -2.396991 -0.119634 0
M  V30 17 C 0.063274 -2.395952 1.258790 0
M  V30 18 O -0.062334 -3.379152 2.116326 0
M  V30 19 H -0.639517 -5.760553 5.175300 0
M  V30 20 H 0.048895 -0.858805 4.150150 0
M  V30 21 H 0.313511 0.913210 1.828945 0
M  V30 22 H -0.612091 0.431931 -2.558434 0
M  V30 23 H -0.306908 2.532002 -3.906578 0
M  V30 24 H 0.930789 4.345589 -2.900217 0
M  V30 25 H 1.612810 2.206875 0.680509 0
M  V30 26 H 0.312747 -1.268443 -1.842706 0
M  V30 27 H 0.076380 -3.351462 -0.618866 0
M  V30 END ATOM
M  V30 BEGIN BOND
M  V30 1 2 1 2
M  V30 2 1 2 3
M  V30 3 1 2 4
M  V30 4 2 4 5
M  V30 5 1 5 6
M  V30 6 2 6 7
M  V30 7 1 7 8
M  V30 8 1 8 9
M  V30 9 2 9 10
M  V30 10 1 10 11
M  V30 11 2 11 12
M  V30 12 1 12 13
M  V30 13 2 13 14
M  V30 14 2 8 15
M  V30 15 1 15 16
M  V30 16 2 16 17
M  V30 17 1 17 18
M  V30 18 1 18 4
M  V30 19 1 17 6
M  V30 20 1 14 9
M  V30 21 1 3 19
M  V30 22 1 5 20
M  V30 23 1 7 21
M  V30 24 1 10 22
M  V30 25 1 11 23
M  V30 26 1 12 24
M  V30 27 1 14 25
M  V30 28 1 15 26
M  V30 29 1 16 27
M  V30 END BOND
M  V30 END CTAB
M  END
>  <Dataset>  (703) 
ChEMBL_Kinases

>  <Ligand_Instance>  (703) 
nan

>  <PDB_ID>  (703) 
nan

>  <Standardized_SMILES>  (703) 
O=C(O)c1cc2cc(-c3cccnc3)ccc2o1

>  <Name>  (703) 
nan

>  <Pocket>  (703) 
nan

>  <ATP_Site>  (703) 
nan

>  <Peripheral>  (703) 
nan

>  <Num_H_Atoms_ProtBoundConf>  (703) 
nan

>  <Num_Resolved_Atoms>  (703) 
nan

>  <Num_Not_Resolved_Atoms>  (703) 
nan

$$$$
CHEMBL2088588
     RDKit          3D

  0  0  0  0  0  0  0  0  0  0999 V3000
M  V30 BEGIN CTAB
M  V30 COUNTS 48 51 0 0 0
M  V30 BEGIN ATOM
M  V30 1 C 3.306479 -5.438467 2.871105 0
M  V30 2 O 3.054349 -4.104860 2.477279 0
M  V30 3 C 3.724214 -3.495703 1.420526 0
M  V30 4 O 4.607442 -4.035245 0.707164 0
M  V30 5 C 3.373684 -2.103758 1.107220 0
M  V30 6 C 4.039805 -1.482238 0.048540 0
M  V30 7 C 3.746465 -0.170672 -0.287936 0
M  V30 8 C 2.794041 0.545028 0.413421 0
M  V30 9 O 2.494476 1.861341 0.081480 0
M  V30 10 C 3.128878 2.544232 -0.972760 0
M  V30 11 C 2.152649 -0.100212 1.456505 0
M  V30 12 C 1.154456 0.667537 2.182933 0
M  V30 13 C 1.512727 1.423757 3.292337 0
M  V30 14 O 2.727215 1.408309 3.628447 0
M  V30 15 C 0.521113 2.132195 3.941928 0
M  V30 16 C -0.775936 2.067039 3.474543 0
M  V30 17 N -1.135790 1.326449 2.385416 0
M  V30 18 N -2.413142 1.317103 1.997892 0
M  V30 19 C -2.768985 0.576769 0.910193 0
M  V30 20 O -4.110051 0.669215 0.638556 0
M  V30 21 C -4.697156 -0.000380 -0.401576 0
M  V30 22 C -5.363785 0.535446 -1.486652 0
M  V30 23 C -5.914575 -0.256253 -2.473173 0
M  V30 24 C -5.809378 -1.630973 -2.396022 0
M  V30 25 F -6.369947 -2.361940 -3.394786 0
M  V30 26 C -5.140597 -2.187058 -1.308601 0
M  V30 27 C -4.595882 -1.380078 -0.331037 0
M  V30 28 F -3.994856 -2.148761 0.637183 0
M  V30 29 C -1.773020 -0.127941 0.266498 0
M  V30 30 C -0.476626 -0.126914 0.648707 0
M  V30 31 C -0.161278 0.640688 1.760929 0
M  V30 32 C 2.417986 -1.411618 1.824180 0
M  V30 33 H 3.237893 -5.594489 3.966797 0
M  V30 34 H 2.593961 -6.153743 2.379764 0
M  V30 35 H 4.317679 -5.780850 2.569646 0
M  V30 36 H 4.780766 -1.995652 -0.519091 0
M  V30 37 H 4.287247 0.293088 -1.126741 0
M  V30 38 H 2.950385 3.620611 -0.871760 0
M  V30 39 H 4.220206 2.374221 -0.905324 0
M  V30 40 H 2.708570 2.236939 -1.969130 0
M  V30 41 H 0.804258 2.718278 4.803368 0
M  V30 42 H -1.502866 2.630266 4.009135 0
M  V30 43 H -5.419363 1.634711 -1.500138 0
M  V30 44 H -6.430869 0.203190 -3.310378 0
M  V30 45 H -5.121385 -3.267476 -1.355003 0
M  V30 46 H -2.105672 -0.680997 -0.571545 0
M  V30 47 H 0.268987 -0.678754 0.134729 0
M  V30 48 H 1.899253 -1.878596 2.639954 0
M  V30 END ATOM
M  V30 BEGIN BOND
M  V30 1 1 1 2
M  V30 2 1 2 3
M  V30 3 2 3 4
M  V30 4 1 3 5
M  V30 5 2 5 6
M  V30 6 1 6 7
M  V30 7 2 7 8
M  V30 8 1 8 9
M  V30 9 1 9 10
M  V30 10 1 8 11
M  V30 11 1 11 12
M  V30 12 1 12 13
M  V30 13 2 13 14
M  V30 14 1 13 15
M  V30 15 2 15 16
M  V30 16 1 16 17
M  V30 17 1 17 18
M  V30 18 2 18 19
M  V30 19 1 19 20
M  V30 20 1 20 21
M  V30 21 2 21 22
M  V30 22 1 22 23
M  V30 23 2 23 24
M  V30 24 1 24 25
M  V30 25 1 24 26
M  V30 26 2 26 27
M  V30 27 1 27 28
M  V30 28 1 19 29
M  V30 29 2 29 30
M  V30 30 1 30 31
M  V30 31 2 11 32
M  V30 32 1 32 5
M  V30 33 2 31 12
M  V30 34 1 31 17
M  V30 35 1 27 21
M  V30 36 1 1 33
M  V30 37 1 1 34
M  V30 38 1 1 35
M  V30 39 1 6 36
M  V30 40 1 7 37
M  V30 41 1 10 38
M  V30 42 1 10 39
M  V30 43 1 10 40
M  V30 44 1 15 41
M  V30 45 1 16 42
M  V30 46 1 22 43
M  V30 47 1 23 44
M  V30 48 1 26 45
M  V30 49 1 29 46
M  V30 50 1 30 47
M  V30 51 1 32 48
M  V30 END BOND
M  V30 END CTAB
M  END
>  <Dataset>  (704) 
ChEMBL_Kinases

>  <Ligand_Instance>  (704) 
nan

>  <PDB_ID>  (704) 
nan

>  <Standardized_SMILES>  (704) 
COC(=O)c1ccc(OC)c(-c2c(=O)ccn3nc(Oc4ccc(F)cc4F)ccc23)c1

>  <Name>  (704) 
nan

>  <Pocket>  (704) 
nan

>  <ATP_Site>  (704) 
nan

>  <Peripheral>  (704) 
nan

>  <Num_H_Atoms_ProtBoundConf>  (704) 
nan

>  <Num_Resolved_Atoms>  (704) 
nan

>  <Num_Not_Resolved_Atoms>  (704) 
nan

$$$$
CHEMBL2063464
     RDKit          3D

  0  0  0  0  0  0  0  0  0  0999 V3000
M  V30 BEGIN CTAB
M  V30 COUNTS 49 52 0 0 0
M  V30 BEGIN ATOM
M  V30 1 C 3.168388 -3.976294 -0.948578 0
M  V30 2 C 4.198839 -2.995297 -0.496659 0
M  V30 3 C 5.576160 -3.234440 -0.610226 0
M  V30 4 C 6.444326 -2.278437 -0.167998 0
M  V30 5 C 6.037543 -1.065951 0.395216 0
M  V30 6 C 4.690488 -0.839577 0.502521 0
M  V30 7 N 4.342055 0.405719 1.083121 0
M  V30 8 C 3.049205 0.944672 1.329822 0
M  V30 9 O 2.017441 0.270138 1.011201 0
M  V30 10 N 2.624587 2.167842 1.901107 0
M  V30 11 C 1.180194 2.062451 1.857056 0
M  V30 12 C 0.739651 1.460833 3.007185 0
M  V30 13 C -0.641501 1.237684 3.098371 0
M  V30 14 C -1.415565 1.652476 2.010916 0
M  V30 15 N -2.786059 1.330331 2.199636 0
M  V30 16 C -2.840346 0.036558 1.673319 0
M  V30 17 O -1.623308 -0.206994 1.276753 0
M  V30 18 C -3.574914 -1.166491 1.352087 0
M  V30 19 C -3.420134 -2.430501 1.894310 0
M  V30 20 C -4.337803 -3.220467 1.245405 0
M  V30 21 N -5.054118 -2.502771 0.325809 0
M  V30 22 N -6.028925 -2.901316 -0.503176 0
M  V30 23 C -6.582062 -1.964099 -1.333044 0
M  V30 24 N -6.130231 -0.694384 -1.283194 0
M  V30 25 C -5.148560 -0.362620 -0.426281 0
M  V30 26 N -4.828161 1.002981 -0.477213 0
M  V30 27 C -4.568490 -1.278613 0.421523 0
M  V30 28 C -0.945592 2.256266 0.869374 0
M  V30 29 C 0.411213 2.469832 0.791871 0
M  V30 30 C 3.817394 -1.798084 0.059929 0
M  V30 31 H 2.834631 -4.664110 -0.151516 0
M  V30 32 H 2.293907 -3.347846 -1.282625 0
M  V30 33 H 3.485323 -4.544810 -1.853736 0
M  V30 34 H 5.846738 -4.180674 -1.049016 0
M  V30 35 H 7.464410 -2.574598 -0.309421 0
M  V30 36 H 6.882539 -0.468812 0.665527 0
M  V30 37 H 5.035869 1.101375 1.413560 0
M  V30 38 H 3.403569 2.792935 2.190697 0
M  V30 39 H 1.348452 1.140100 3.852644 0
M  V30 40 H -1.052064 0.761764 3.990649 0
M  V30 41 H -3.778565 1.499485 2.490978 0
M  V30 42 H -2.710736 -2.668715 2.657126 0
M  V30 43 H -4.436830 -4.259481 1.466584 0
M  V30 44 H -7.385777 -2.225219 -2.037086 0
M  V30 45 H -5.262906 1.943090 -0.484529 0
M  V30 46 H -3.811773 1.361483 -0.527728 0
M  V30 47 H -1.597054 2.552767 0.069739 0
M  V30 48 H 0.902346 2.931674 -0.049952 0
M  V30 49 H 2.759105 -1.639303 0.133540 0
M  V30 END ATOM
M  V30 BEGIN BOND
M  V30 1 1 1 2
M  V30 2 2 2 3
M  V30 3 1 3 4
M  V30 4 2 4 5
M  V30 5 1 5 6
M  V30 6 1 6 7
M  V30 7 1 7 8
M  V30 8 2 8 9
M  V30 9 1 8 10
M  V30 10 1 10 11
M  V30 11 2 11 12
M  V30 12 1 12 13
M  V30 13 2 13 14
M  V30 14 1 14 15
M  V30 15 1 15 16
M  V30 16 2 16 17
M  V30 17 1 16 18
M  V30 18 1 18 19
M  V30 19 2 19 20
M  V30 20 1 20 21
M  V30 21 1 21 22
M  V30 22 2 22 23
M  V30 23 1 23 24
M  V30 24 2 24 25
M  V30 25 1 25 26
M  V30 26 1 25 27
M  V30 27 1 14 28
M  V30 28 2 28 29
M  V30 29 2 6 30
M  V30 30 1 30 2
M  V30 31 1 29 11
M  V30 32 2 27 18
M  V30 33 1 27 21
M  V30 34 1 1 31
M  V30 35 1 1 32
M  V30 36 1 1 33
M  V30 37 1 3 34
M  V30 38 1 4 35
M  V30 39 1 5 36
M  V30 40 1 7 37
M  V30 41 1 10 38
M  V30 42 1 12 39
M  V30 43 1 13 40
M  V30 44 1 15 41
M  V30 45 1 19 42
M  V30 46 1 20 43
M  V30 47 1 23 44
M  V30 48 1 26 45
M  V30 49 1 26 46
M  V30 50 1 28 47
M  V30 51 1 29 48
M  V30 52 1 30 49
M  V30 END BOND
M  V30 END CTAB
M  END
>  <Dataset>  (705) 
ChEMBL_Kinases

>  <Ligand_Instance>  (705) 
nan

>  <PDB_ID>  (705) 
nan

>  <Standardized_SMILES>  (705) 
Cc1cccc(NC(=O)Nc2ccc(NC(=O)c3ccn4ncnc(N)c34)cc2)c1

>  <Name>  (705) 
nan

>  <Pocket>  (705) 
nan

>  <ATP_Site>  (705) 
nan

>  <Peripheral>  (705) 
nan

>  <Num_H_Atoms_ProtBoundConf>  (705) 
nan

>  <Num_Resolved_Atoms>  (705) 
nan

>  <Num_Not_Resolved_Atoms>  (705) 
nan

$$$$
CHEMBL2064536
     RDKit          3D

  0  0  0  0  0  0  0  0  0  0999 V3000
M  V30 BEGIN CTAB
M  V30 COUNTS 41 44 0 0 0
M  V30 BEGIN ATOM
M  V30 1 N 1.909263 -3.936538 -1.812968 0
M  V30 2 C 2.400852 -3.556847 -0.835932 0
M  V30 3 C 2.986529 -3.085687 0.382279 0
M  V30 4 C 3.718829 -3.904868 1.235282 0
M  V30 5 C 4.283532 -3.434263 2.417599 0
M  V30 6 C 4.076857 -2.097467 2.702958 0
M  V30 7 C 3.354692 -1.268057 1.871013 0
M  V30 8 C 2.798394 -1.749114 0.698127 0
M  V30 9 C 2.052829 -0.782917 -0.104912 0
M  V30 10 C 0.822936 -1.023659 -0.682916 0
M  V30 11 C 0.247330 0.006099 -1.416554 0
M  V30 12 C 0.823842 1.243700 -1.602266 0
M  V30 13 C 0.058340 2.250006 -2.426519 0
M  V30 14 S -1.023276 3.217377 -1.327252 0
M  V30 15 C -2.299751 2.148374 -0.623984 0
M  V30 16 N -3.544965 1.702215 -0.873803 0
M  V30 17 N -3.890150 0.901163 0.119621 0
M  V30 18 C -2.890226 0.825095 1.000518 0
M  V30 19 C -2.836229 0.053426 2.251791 0
M  V30 20 C -1.691790 0.118071 3.014753 0
M  V30 21 C -1.624857 -0.605734 4.199907 0
M  V30 22 N -2.694282 -1.345816 4.552922 0
M  V30 23 C -3.823348 -1.429727 3.831926 0
M  V30 24 C -3.903453 -0.718278 2.656450 0
M  V30 25 O -1.967444 1.583179 0.514872 0
M  V30 26 C 2.061621 1.471092 -1.014893 0
M  V30 27 C 2.643578 0.452856 -0.281880 0
M  V30 28 H 3.843597 -4.935710 0.959659 0
M  V30 29 H 4.835041 -4.146235 3.014955 0
M  V30 30 H 4.530599 -1.745076 3.638959 0
M  V30 31 H 3.270421 -0.251750 2.212425 0
M  V30 32 H 0.370780 -1.981946 -0.541746 0
M  V30 33 H -0.714807 -0.240195 -1.844307 0
M  V30 34 H -0.510462 1.762930 -3.217183 0
M  V30 35 H 0.806132 2.932130 -2.831116 0
M  V30 36 H -0.884315 0.719976 2.683347 0
M  V30 37 H -0.705062 -0.525020 4.765108 0
M  V30 38 H -4.624494 -2.054940 4.212993 0
M  V30 39 H -4.822746 -0.785859 2.068228 0
M  V30 40 H 2.496879 2.448325 -1.172861 0
M  V30 41 H 3.611618 0.673641 0.160481 0
M  V30 END ATOM
M  V30 BEGIN BOND
M  V30 1 3 1 2
M  V30 2 1 2 3
M  V30 3 2 3 4
M  V30 4 1 4 5
M  V30 5 2 5 6
M  V30 6 1 6 7
M  V30 7 2 7 8
M  V30 8 1 8 9
M  V30 9 2 9 10
M  V30 10 1 10 11
M  V30 11 2 11 12
M  V30 12 1 12 13
M  V30 13 1 13 14
M  V30 14 1 14 15
M  V30 15 2 15 16
M  V30 16 1 16 17
M  V30 17 2 17 18
M  V30 18 1 18 19
M  V30 19 2 19 20
M  V30 20 1 20 21
M  V30 21 2 21 22
M  V30 22 1 22 23
M  V30 23 2 23 24
M  V30 24 1 18 25
M  V30 25 1 12 26
M  V30 26 2 26 27
M  V30 27 1 8 3
M  V30 28 1 27 9
M  V30 29 1 25 15
M  V30 30 1 24 19
M  V30 31 1 4 28
M  V30 32 1 5 29
M  V30 33 1 6 30
M  V30 34 1 7 31
M  V30 35 1 10 32
M  V30 36 1 11 33
M  V30 37 1 13 34
M  V30 38 1 13 35
M  V30 39 1 20 36
M  V30 40 1 21 37
M  V30 41 1 23 38
M  V30 42 1 24 39
M  V30 43 1 26 40
M  V30 44 1 27 41
M  V30 END BOND
M  V30 END CTAB
M  END
>  <Dataset>  (706) 
ChEMBL_Kinases

>  <Ligand_Instance>  (706) 
nan

>  <PDB_ID>  (706) 
nan

>  <Standardized_SMILES>  (706) 
N#Cc1ccccc1-c1ccc(CSc2nnc(-c3ccncc3)o2)cc1

>  <Name>  (706) 
nan

>  <Pocket>  (706) 
nan

>  <ATP_Site>  (706) 
nan

>  <Peripheral>  (706) 
nan

>  <Num_H_Atoms_ProtBoundConf>  (706) 
nan

>  <Num_Resolved_Atoms>  (706) 
nan

>  <Num_Not_Resolved_Atoms>  (706) 
nan

$$$$
CHEMBL1257781
     RDKit          3D

  0  0  0  0  0  0  0  0  0  0999 V3000
M  V30 BEGIN CTAB
M  V30 COUNTS 30 32 0 0 0
M  V30 BEGIN ATOM
M  V30 1 F 2.513402 -1.166144 5.709055 0
M  V30 2 C 2.268510 -2.438539 5.215918 0
M  V30 3 F 1.923851 -3.307786 6.246933 0
M  V30 4 F 3.458755 -2.925028 4.722173 0
M  V30 5 O 1.310489 -2.493769 4.207920 0
M  V30 6 C 1.303758 -1.878815 2.984645 0
M  V30 7 C 1.863962 -2.538587 1.907433 0
M  V30 8 C 1.858614 -1.922233 0.659878 0
M  V30 9 C 1.318893 -0.667662 0.413406 0
M  V30 10 N 1.388515 -0.199065 -0.924866 0
M  V30 11 C 0.352193 0.770593 -1.196170 0
M  V30 12 N 0.348714 2.087444 -1.397548 0
M  V30 13 C -0.787540 2.745367 -1.638658 0
M  V30 14 N -1.987897 2.125217 -1.692928 0
M  V30 15 C -2.052339 0.776972 -1.494976 0
M  V30 16 N -3.120941 -0.041253 -1.495129 0
M  V30 17 C -2.701149 -1.292027 -1.245402 0
M  V30 18 C -1.317892 -1.208901 -1.089882 0
M  V30 19 C -0.875846 0.105142 -1.246340 0
M  V30 20 C 0.770549 -0.037816 1.508836 0
M  V30 21 C 0.762896 -0.624097 2.755625 0
M  V30 22 H 2.305453 -3.526727 2.042852 0
M  V30 23 H 2.308004 -2.483631 -0.159530 0
M  V30 24 H 2.108346 -0.534502 -1.574031 0
M  V30 25 H -0.678654 3.821963 -1.790143 0
M  V30 26 H -4.119292 0.203314 -1.654847 0
M  V30 27 H -3.306030 -2.181212 -1.178500 0
M  V30 28 H -0.693332 -2.047991 -0.878405 0
M  V30 29 H 0.354546 0.951389 1.277013 0
M  V30 30 H 0.324341 -0.088757 3.588573 0
M  V30 END ATOM
M  V30 BEGIN BOND
M  V30 1 1 1 2
M  V30 2 1 2 3
M  V30 3 1 2 4
M  V30 4 1 2 5
M  V30 5 1 5 6
M  V30 6 2 6 7
M  V30 7 1 7 8
M  V30 8 2 8 9
M  V30 9 1 9 10
M  V30 10 1 10 11
M  V30 11 2 11 12
M  V30 12 1 12 13
M  V30 13 2 13 14
M  V30 14 1 14 15
M  V30 15 1 15 16
M  V30 16 1 16 17
M  V30 17 2 17 18
M  V30 18 1 18 19
M  V30 19 1 9 20
M  V30 20 2 20 21
M  V30 21 1 21 6
M  V30 22 1 19 11
M  V30 23 2 19 15
M  V30 24 1 7 22
M  V30 25 1 8 23
M  V30 26 1 10 24
M  V30 27 1 13 25
M  V30 28 1 16 26
M  V30 29 1 17 27
M  V30 30 1 18 28
M  V30 31 1 20 29
M  V30 32 1 21 30
M  V30 END BOND
M  V30 END CTAB
M  END
>  <Dataset>  (707) 
ChEMBL_Kinases

>  <Ligand_Instance>  (707) 
nan

>  <PDB_ID>  (707) 
nan

>  <Standardized_SMILES>  (707) 
FC(F)(F)Oc1ccc(Nc2ncnc3[nH]ccc23)cc1

>  <Name>  (707) 
nan

>  <Pocket>  (707) 
nan

>  <ATP_Site>  (707) 
nan

>  <Peripheral>  (707) 
nan

>  <Num_H_Atoms_ProtBoundConf>  (707) 
nan

>  <Num_Resolved_Atoms>  (707) 
nan

>  <Num_Not_Resolved_Atoms>  (707) 
nan

$$$$
CHEMBL2064517
     RDKit          3D

  0  0  0  0  0  0  0  0  0  0999 V3000
M  V30 BEGIN CTAB
M  V30 COUNTS 35 38 0 0 0
M  V30 BEGIN ATOM
M  V30 1 N 0.846569 -4.158455 5.273422 0
M  V30 2 C 1.274007 -3.868196 4.241728 0
M  V30 3 C 1.790998 -3.493627 2.956522 0
M  V30 4 C 0.912342 -2.918719 2.057119 0
M  V30 5 C 1.369537 -2.546667 0.815931 0
M  V30 6 C 2.665218 -2.706974 0.391643 0
M  V30 7 C 3.191347 -2.315016 -0.941274 0
M  V30 8 S 3.833020 -0.617649 -0.928174 0
M  V30 9 C 2.548206 0.594797 -0.669035 0
M  V30 10 N 2.808849 1.921959 -0.624403 0
M  V30 11 N 1.663029 2.551297 -0.421305 0
M  V30 12 C 0.671836 1.645451 -0.335345 0
M  V30 13 C -0.751141 1.893073 -0.115855 0
M  V30 14 C -1.246853 3.173409 0.032857 0
M  V30 15 C -2.607210 3.416915 0.243710 0
M  V30 16 C -3.442616 2.298247 0.296663 0
M  V30 17 C -2.950589 1.030479 0.149194 0
M  V30 18 C -1.606443 0.810576 -0.057927 0
M  V30 19 O -4.022540 0.135482 0.249730 0
M  V30 20 C -5.210936 0.884807 -0.015781 0
M  V30 21 O -4.825770 2.146132 0.487174 0
M  V30 22 O 1.260921 0.487987 -0.491238 0
M  V30 23 C 3.522223 -3.292501 1.331960 0
M  V30 24 C 3.114606 -3.679791 2.580444 0
M  V30 25 H -0.125222 -2.761642 2.324862 0
M  V30 26 H 0.671698 -2.110172 0.146563 0
M  V30 27 H 4.020932 -2.999067 -1.201628 0
M  V30 28 H 2.335513 -2.417442 -1.657121 0
M  V30 29 H -0.586634 4.039051 -0.009613 0
M  V30 30 H -3.012920 4.393878 0.361030 0
M  V30 31 H -1.173093 -0.194876 -0.181022 0
M  V30 32 H -6.086073 0.441154 0.495499 0
M  V30 33 H -5.293215 0.920385 -1.113979 0
M  V30 34 H 4.568480 -3.446063 1.049959 0
M  V30 35 H 3.766085 -4.129675 3.306984 0
M  V30 END ATOM
M  V30 BEGIN BOND
M  V30 1 3 1 2
M  V30 2 1 2 3
M  V30 3 2 3 4
M  V30 4 1 4 5
M  V30 5 2 5 6
M  V30 6 1 6 7
M  V30 7 1 7 8
M  V30 8 1 8 9
M  V30 9 2 9 10
M  V30 10 1 10 11
M  V30 11 2 11 12
M  V30 12 1 12 13
M  V30 13 2 13 14
M  V30 14 1 14 15
M  V30 15 2 15 16
M  V30 16 1 16 17
M  V30 17 2 17 18
M  V30 18 1 17 19
M  V30 19 1 19 20
M  V30 20 1 20 21
M  V30 21 1 12 22
M  V30 22 1 6 23
M  V30 23 2 23 24
M  V30 24 1 24 3
M  V30 25 1 22 9
M  V30 26 1 18 13
M  V30 27 1 21 16
M  V30 28 1 4 25
M  V30 29 1 5 26
M  V30 30 1 7 27
M  V30 31 1 7 28
M  V30 32 1 14 29
M  V30 33 1 15 30
M  V30 34 1 18 31
M  V30 35 1 20 32
M  V30 36 1 20 33
M  V30 37 1 23 34
M  V30 38 1 24 35
M  V30 END BOND
M  V30 END CTAB
M  END
>  <Dataset>  (708) 
ChEMBL_Kinases

>  <Ligand_Instance>  (708) 
nan

>  <PDB_ID>  (708) 
nan

>  <Standardized_SMILES>  (708) 
N#Cc1ccc(CSc2nnc(-c3ccc4c(c3)OCO4)o2)cc1

>  <Name>  (708) 
nan

>  <Pocket>  (708) 
nan

>  <ATP_Site>  (708) 
nan

>  <Peripheral>  (708) 
nan

>  <Num_H_Atoms_ProtBoundConf>  (708) 
nan

>  <Num_Resolved_Atoms>  (708) 
nan

>  <Num_Not_Resolved_Atoms>  (708) 
nan

$$$$
CHEMBL2063465
     RDKit          3D

  0  0  0  0  0  0  0  0  0  0999 V3000
M  V30 BEGIN CTAB
M  V30 COUNTS 46 49 0 0 0
M  V30 BEGIN ATOM
M  V30 1 N 3.815715 -1.334933 1.559323 0
M  V30 2 C 4.990969 -0.810727 0.986239 0
M  V30 3 N 6.069548 -1.622155 1.012838 0
M  V30 4 C 7.226487 -1.189504 0.484264 0
M  V30 5 N 7.262521 0.037879 -0.051201 0
M  V30 6 N 6.218878 0.838385 -0.083371 0
M  V30 7 C 6.050755 2.089437 -0.567983 0
M  V30 8 C 4.748928 2.514311 -0.363085 0
M  V30 9 C 4.104025 1.454028 0.281590 0
M  V30 10 C 2.713617 1.382640 0.725123 0
M  V30 11 O 2.052681 0.349486 0.437822 0
M  V30 12 N 1.989989 2.375430 1.469493 0
M  V30 13 C 0.659852 1.855431 1.668602 0
M  V30 14 C 0.338544 1.097126 2.772291 0
M  V30 15 C -0.955713 0.630666 2.897976 0
M  V30 16 C -1.868107 0.948668 1.906797 0
M  V30 17 N -3.245521 0.513562 1.937378 0
M  V30 18 C -3.466760 -0.743364 1.302942 0
M  V30 19 O -2.454981 -1.307182 0.805003 0
M  V30 20 N -4.703417 -1.432255 1.169497 0
M  V30 21 C -4.717618 -2.703484 0.488197 0
M  V30 22 C -4.529774 -3.859236 1.189896 0
M  V30 23 C -4.543882 -5.064766 0.537488 0
M  V30 24 C -4.746552 -5.095672 -0.812230 0
M  V30 25 F -4.767378 -6.283817 -1.502596 0
M  V30 26 C -4.935201 -3.909765 -1.505717 0
M  V30 27 C -4.929682 -2.654196 -0.887114 0
M  V30 28 C -1.528634 1.713581 0.801289 0
M  V30 29 C -0.235353 2.188029 0.661863 0
M  V30 30 C 5.040736 0.453637 0.430896 0
M  V30 31 H 3.359500 -2.042202 0.911045 0
M  V30 32 H 3.185732 -1.313343 2.389808 0
M  V30 33 H 8.188110 -1.684297 0.410376 0
M  V30 34 H 6.760720 2.739791 -1.056562 0
M  V30 35 H 4.199159 3.412502 -0.583982 0
M  V30 36 H 2.562128 3.237387 1.702150 0
M  V30 37 H 1.081695 0.872107 3.522354 0
M  V30 38 H -1.283928 0.029687 3.735845 0
M  V30 39 H -4.112435 0.963461 2.346503 0
M  V30 40 H -5.536003 -0.928113 1.600658 0
M  V30 41 H -4.370050 -3.830605 2.257107 0
M  V30 42 H -4.394060 -5.956322 1.110721 0
M  V30 43 H -5.094346 -3.964003 -2.581950 0
M  V30 44 H -5.079285 -1.753841 -1.456903 0
M  V30 45 H -2.268339 1.956789 0.022461 0
M  V30 46 H 0.035023 2.783295 -0.195240 0
M  V30 END ATOM
M  V30 BEGIN BOND
M  V30 1 1 1 2
M  V30 2 2 2 3
M  V30 3 1 3 4
M  V30 4 2 4 5
M  V30 5 1 5 6
M  V30 6 1 6 7
M  V30 7 2 7 8
M  V30 8 1 8 9
M  V30 9 1 9 10
M  V30 10 2 10 11
M  V30 11 1 10 12
M  V30 12 1 12 13
M  V30 13 2 13 14
M  V30 14 1 14 15
M  V30 15 2 15 16
M  V30 16 1 16 17
M  V30 17 1 17 18
M  V30 18 2 18 19
M  V30 19 1 18 20
M  V30 20 1 20 21
M  V30 21 2 21 22
M  V30 22 1 22 23
M  V30 23 2 23 24
M  V30 24 1 24 25
M  V30 25 1 24 26
M  V30 26 2 26 27
M  V30 27 1 16 28
M  V30 28 2 28 29
M  V30 29 2 9 30
M  V30 30 1 30 2
M  V30 31 1 30 6
M  V30 32 1 29 13
M  V30 33 1 27 21
M  V30 34 1 1 31
M  V30 35 1 1 32
M  V30 36 1 4 33
M  V30 37 1 7 34
M  V30 38 1 8 35
M  V30 39 1 12 36
M  V30 40 1 14 37
M  V30 41 1 15 38
M  V30 42 1 17 39
M  V30 43 1 20 40
M  V30 44 1 22 41
M  V30 45 1 23 42
M  V30 46 1 26 43
M  V30 47 1 27 44
M  V30 48 1 28 45
M  V30 49 1 29 46
M  V30 END BOND
M  V30 END CTAB
M  END
>  <Dataset>  (709) 
ChEMBL_Kinases

>  <Ligand_Instance>  (709) 
nan

>  <PDB_ID>  (709) 
nan

>  <Standardized_SMILES>  (709) 
Nc1ncnn2ccc(C(=O)Nc3ccc(NC(=O)Nc4ccc(F)cc4)cc3)c12

>  <Name>  (709) 
nan

>  <Pocket>  (709) 
nan

>  <ATP_Site>  (709) 
nan

>  <Peripheral>  (709) 
nan

>  <Num_H_Atoms_ProtBoundConf>  (709) 
nan

>  <Num_Resolved_Atoms>  (709) 
nan

>  <Num_Not_Resolved_Atoms>  (709) 
nan

$$$$
CHEMBL2063466
     RDKit          3D

  0  0  0  0  0  0  0  0  0  0999 V3000
M  V30 BEGIN CTAB
M  V30 COUNTS 49 52 0 0 0
M  V30 BEGIN ATOM
M  V30 1 N 3.213107 -1.605879 1.645441 0
M  V30 2 C 4.607837 -1.635028 1.416688 0
M  V30 3 N 5.349891 -2.009510 2.497759 0
M  V30 4 C 6.677618 -2.044488 2.310567 0
M  V30 5 N 7.331406 -1.741336 1.150550 0
M  V30 6 N 6.547467 -1.375661 0.103179 0
M  V30 7 C 7.030680 -1.051257 -1.101293 0
M  V30 8 C 5.861217 -0.758344 -1.828181 0
M  V30 9 C 4.785608 -0.931245 -0.993005 0
M  V30 10 C 3.413458 -0.698837 -1.398363 0
M  V30 11 O 2.383253 -1.097132 -0.740444 0
M  V30 12 N 2.751129 -0.055488 -2.481877 0
M  V30 13 C 1.389261 -0.292862 -2.040374 0
M  V30 14 C 0.753448 -1.441476 -2.442744 0
M  V30 15 C -0.520455 -1.677000 -1.912654 0
M  V30 16 C -1.009990 -0.732642 -1.040901 0
M  V30 17 N -2.233389 -1.050442 -0.414421 0
M  V30 18 C -3.050567 -0.388048 0.503276 0
M  V30 19 O -2.708892 0.776220 0.849298 0
M  V30 20 N -4.221758 -0.819944 1.133600 0
M  V30 21 C -4.904295 0.040446 2.064570 0
M  V30 22 C -4.220583 -0.099116 3.458018 0
M  V30 23 C -5.189190 0.764006 4.258800 0
M  V30 24 C -6.554251 0.488440 3.647510 0
M  V30 25 C -6.277330 -0.393492 2.414715 0
M  V30 26 C -0.379723 0.410735 -0.648238 0
M  V30 27 C 0.878405 0.659044 -1.159664 0
M  V30 28 C 5.230274 -1.325551 0.239953 0
M  V30 29 H 2.750561 -0.681518 1.891365 0
M  V30 30 H 2.502503 -2.400262 1.616810 0
M  V30 31 H 7.218498 -2.358054 3.224820 0
M  V30 32 H 8.052818 -1.019867 -1.451149 0
M  V30 33 H 5.832420 -0.451032 -2.854098 0
M  V30 34 H 3.445206 0.337218 -3.171933 0
M  V30 35 H 1.194838 -2.135328 -3.130676 0
M  V30 36 H -1.066560 -2.564866 -2.193628 0
M  V30 37 H -2.711731 -1.985985 -0.625705 0
M  V30 38 H -4.539153 -1.794282 0.870252 0
M  V30 39 H -4.809574 1.104711 1.851464 0
M  V30 40 H -3.214458 0.308063 3.418807 0
M  V30 41 H -4.323248 -1.131401 3.786643 0
M  V30 42 H -4.880708 1.810157 4.096978 0
M  V30 43 H -5.137430 0.539182 5.334246 0
M  V30 44 H -7.217384 -0.032655 4.354862 0
M  V30 45 H -6.967548 1.451154 3.268595 0
M  V30 46 H -7.030336 -0.280600 1.633007 0
M  V30 47 H -6.233229 -1.466043 2.739462 0
M  V30 48 H -0.699602 1.187302 0.016851 0
M  V30 49 H 1.493380 1.542540 -0.923141 0
M  V30 END ATOM
M  V30 BEGIN BOND
M  V30 1 1 1 2
M  V30 2 2 2 3
M  V30 3 1 3 4
M  V30 4 2 4 5
M  V30 5 1 5 6
M  V30 6 1 6 7
M  V30 7 2 7 8
M  V30 8 1 8 9
M  V30 9 1 9 10
M  V30 10 2 10 11
M  V30 11 1 10 12
M  V30 12 1 12 13
M  V30 13 2 13 14
M  V30 14 1 14 15
M  V30 15 2 15 16
M  V30 16 1 16 17
M  V30 17 1 17 18
M  V30 18 2 18 19
M  V30 19 1 18 20
M  V30 20 1 20 21
M  V30 21 1 21 22
M  V30 22 1 22 23
M  V30 23 1 23 24
M  V30 24 1 24 25
M  V30 25 1 16 26
M  V30 26 2 26 27
M  V30 27 2 9 28
M  V30 28 1 28 2
M  V30 29 1 28 6
M  V30 30 1 27 13
M  V30 31 1 25 21
M  V30 32 1 1 29
M  V30 33 1 1 30
M  V30 34 1 4 31
M  V30 35 1 7 32
M  V30 36 1 8 33
M  V30 37 1 12 34
M  V30 38 1 14 35
M  V30 39 1 15 36
M  V30 40 1 17 37
M  V30 41 1 20 38
M  V30 42 1 21 39
M  V30 43 1 22 40
M  V30 44 1 22 41
M  V30 45 1 23 42
M  V30 46 1 23 43
M  V30 47 1 24 44
M  V30 48 1 24 45
M  V30 49 1 25 46
M  V30 50 1 25 47
M  V30 51 1 26 48
M  V30 52 1 27 49
M  V30 END BOND
M  V30 END CTAB
M  END
>  <Dataset>  (710) 
ChEMBL_Kinases

>  <Ligand_Instance>  (710) 
nan

>  <PDB_ID>  (710) 
nan

>  <Standardized_SMILES>  (710) 
Nc1ncnn2ccc(C(=O)Nc3ccc(NC(=O)NC4CCCC4)cc3)c12

>  <Name>  (710) 
nan

>  <Pocket>  (710) 
nan

>  <ATP_Site>  (710) 
nan

>  <Peripheral>  (710) 
nan

>  <Num_H_Atoms_ProtBoundConf>  (710) 
nan

>  <Num_Resolved_Atoms>  (710) 
nan

>  <Num_Not_Resolved_Atoms>  (710) 
nan

$$$$
CHEMBL1099010
     RDKit          3D

  0  0  0  0  0  0  0  0  0  0999 V3000
M  V30 BEGIN CTAB
M  V30 COUNTS 55 59 0 0 0
M  V30 BEGIN ATOM
M  V30 1 O 2.753557 -0.333152 0.981271 0
M  V30 2 C 3.513755 0.450809 0.365091 0
M  V30 3 N 4.892835 0.446807 0.694651 0
M  V30 4 C 5.618480 -0.318117 1.642121 0
M  V30 5 C 6.955591 -0.129252 1.766243 0
M  V30 6 C 7.718244 -0.824972 2.652127 0
M  V30 7 C 7.177142 -1.772359 3.485450 0
M  V30 8 C 5.803114 -2.003090 3.395045 0
M  V30 9 C 5.090330 -1.270572 2.483619 0
M  V30 10 N 2.899594 1.255327 -0.596393 0
M  V30 11 C 1.483545 0.978275 -0.649541 0
M  V30 12 C 0.687443 1.733538 0.187256 0
M  V30 13 C -0.678503 1.482588 0.152377 0
M  V30 14 C -1.247971 0.520644 -0.677279 0
M  V30 15 C -2.696740 0.385021 -0.588898 0
M  V30 16 N -3.779464 1.169228 -0.797586 0
M  V30 17 N -4.880860 0.505692 -0.555960 0
M  V30 18 C -6.219472 1.092991 -0.695491 0
M  V30 19 C -6.658593 0.835314 -2.120495 0
M  V30 20 O -7.926589 1.353686 -2.369364 0
M  V30 21 C -4.558627 -0.761432 -0.172742 0
M  V30 22 C -3.179029 -0.865631 -0.184877 0
M  V30 23 C -2.528686 -2.119119 0.182991 0
M  V30 24 C -2.865050 -3.174432 -0.653789 0
M  V30 25 C -2.292026 -4.412661 -0.381185 0
M  V30 26 N -1.443963 -4.618395 0.640052 0
M  V30 27 C -1.115456 -3.581980 1.459434 0
M  V30 28 N -0.325011 -3.423847 2.544306 0
M  V30 29 C -0.362345 -2.151331 2.979440 0
M  V30 30 C -1.217225 -1.416764 2.150210 0
M  V30 31 C -1.657328 -2.334647 1.230696 0
M  V30 32 C -0.404453 -0.206299 -1.494283 0
M  V30 33 C 0.960657 0.014332 -1.488088 0
M  V30 34 H 5.408635 1.143049 0.109920 0
M  V30 35 H 7.446097 0.603256 1.138916 0
M  V30 36 H 8.776958 -0.629274 2.703521 0
M  V30 37 H 7.758108 -2.348191 4.206692 0
M  V30 38 H 5.338148 -2.742918 4.035817 0
M  V30 39 H 4.035294 -1.489438 2.456520 0
M  V30 40 H 3.515665 1.932376 -1.138121 0
M  V30 41 H 1.074999 2.498061 0.856255 0
M  V30 42 H -1.306516 2.085325 0.819097 0
M  V30 43 H -6.162042 2.163409 -0.458003 0
M  V30 44 H -6.909672 0.572430 -0.004638 0
M  V30 45 H -5.886742 1.249809 -2.802171 0
M  V30 46 H -6.711749 -0.258801 -2.259777 0
M  V30 47 H -8.300479 1.659206 -1.488899 0
M  V30 48 H -5.331471 -1.475768 0.074087 0
M  V30 49 H -3.521586 -3.198585 -1.514088 0
M  V30 50 H -2.476377 -5.306693 -0.959681 0
M  V30 51 H 0.219358 -4.244506 2.938374 0
M  V30 52 H 0.197270 -1.778944 3.846474 0
M  V30 53 H -1.458650 -0.381725 2.230587 0
M  V30 54 H -0.882338 -0.943323 -2.123725 0
M  V30 55 H 1.605278 -0.555889 -2.126318 0
M  V30 END ATOM
M  V30 BEGIN BOND
M  V30 1 2 1 2
M  V30 2 1 2 3
M  V30 3 1 3 4
M  V30 4 2 4 5
M  V30 5 1 5 6
M  V30 6 2 6 7
M  V30 7 1 7 8
M  V30 8 2 8 9
M  V30 9 1 2 10
M  V30 10 1 10 11
M  V30 11 2 11 12
M  V30 12 1 12 13
M  V30 13 2 13 14
M  V30 14 1 14 15
M  V30 15 2 15 16
M  V30 16 1 16 17
M  V30 17 1 17 18
M  V30 18 1 18 19
M  V30 19 1 19 20
M  V30 20 1 17 21
M  V30 21 2 21 22
M  V30 22 1 22 23
M  V30 23 2 23 24
M  V30 24 1 24 25
M  V30 25 2 25 26
M  V30 26 1 26 27
M  V30 27 1 27 28
M  V30 28 1 28 29
M  V30 29 2 29 30
M  V30 30 1 30 31
M  V30 31 1 14 32
M  V30 32 2 32 33
M  V30 33 1 9 4
M  V30 34 1 33 11
M  V30 35 1 22 15
M  V30 36 1 31 23
M  V30 37 2 31 27
M  V30 38 1 3 34
M  V30 39 1 5 35
M  V30 40 1 6 36
M  V30 41 1 7 37
M  V30 42 1 8 38
M  V30 43 1 9 39
M  V30 44 1 10 40
M  V30 45 1 12 41
M  V30 46 1 13 42
M  V30 47 1 18 43
M  V30 48 1 18 44
M  V30 49 1 19 45
M  V30 50 1 19 46
M  V30 51 1 20 47
M  V30 52 1 21 48
M  V30 53 1 24 49
M  V30 54 1 25 50
M  V30 55 1 28 51
M  V30 56 1 29 52
M  V30 57 1 30 53
M  V30 58 1 32 54
M  V30 59 1 33 55
M  V30 END BOND
M  V30 END CTAB
M  END
>  <Dataset>  (711) 
ChEMBL_Kinases

>  <Ligand_Instance>  (711) 
nan

>  <PDB_ID>  (711) 
nan

>  <Standardized_SMILES>  (711) 
O=C(Nc1ccccc1)Nc1ccc(-c2nn(CCO)cc2-c2ccnc3[nH]ccc23)cc1

>  <Name>  (711) 
nan

>  <Pocket>  (711) 
nan

>  <ATP_Site>  (711) 
nan

>  <Peripheral>  (711) 
nan

>  <Num_H_Atoms_ProtBoundConf>  (711) 
nan

>  <Num_Resolved_Atoms>  (711) 
nan

>  <Num_Not_Resolved_Atoms>  (711) 
nan

$$$$
CHEMBL2063467
     RDKit          3D

  0  0  0  0  0  0  0  0  0  0999 V3000
M  V30 BEGIN CTAB
M  V30 COUNTS 43 46 0 0 0
M  V30 BEGIN ATOM
M  V30 1 N 3.920311 -1.099051 2.346204 0
M  V30 2 C 4.995866 -1.422458 1.493351 0
M  V30 3 N 5.980961 -2.128413 2.076817 0
M  V30 4 C 7.049559 -2.475576 1.313297 0
M  V30 5 N 7.131002 -2.125338 -0.002224 0
M  V30 6 N 6.150360 -1.422352 -0.583221 0
M  V30 7 C 6.046153 -0.990764 -1.849543 0
M  V30 8 C 4.822302 -0.322601 -1.888159 0
M  V30 9 C 4.234214 -0.381461 -0.627057 0
M  V30 10 C 2.930121 0.195026 -0.231380 0
M  V30 11 O 2.206119 -0.728891 0.294017 0
M  V30 12 N 2.327576 1.474351 -0.296178 0
M  V30 13 C 1.063232 1.184175 0.299192 0
M  V30 14 C 0.970306 1.421237 1.654234 0
M  V30 15 C -0.235302 1.116361 2.247152 0
M  V30 16 C -1.266713 0.604420 1.495685 0
M  V30 17 N -2.445622 0.337208 2.241868 0
M  V30 18 C -3.599644 -0.311448 1.763751 0
M  V30 19 O -3.715927 -0.740668 0.594510 0
M  V30 20 N -4.768551 -0.579793 2.484632 0
M  V30 21 C -5.772576 -1.263420 1.760534 0
M  V30 22 C -6.790250 -0.789286 1.032375 0
M  V30 23 C -7.682049 -1.708175 0.378038 0
M  V30 24 S -6.984704 -3.404055 0.860134 0
M  V30 25 C -5.586902 -2.701033 1.877214 0
M  V30 26 C -1.137028 0.383633 0.151205 0
M  V30 27 C 0.050981 0.674435 -0.485257 0
M  V30 28 C 5.111060 -1.086342 0.164994 0
M  V30 29 H 3.794106 -0.060776 2.432545 0
M  V30 30 H 3.250033 -1.720837 2.890761 0
M  V30 31 H 7.853529 -3.053925 1.796650 0
M  V30 32 H 6.722182 -1.107968 -2.680220 0
M  V30 33 H 4.375150 0.176243 -2.755049 0
M  V30 34 H 2.987163 2.133114 -0.723006 0
M  V30 35 H 1.776724 1.821838 2.242645 0
M  V30 36 H -0.299627 1.307540 3.327527 0
M  V30 37 H -2.570686 0.603689 3.240243 0
M  V30 38 H -4.822345 -0.259374 3.495169 0
M  V30 39 H -6.922886 0.268904 0.950512 0
M  V30 40 H -8.530332 -1.353186 -0.230575 0
M  V30 41 H -4.912872 -3.348645 2.357226 0
M  V30 42 H -1.906654 -0.002502 -0.458732 0
M  V30 43 H 0.176627 0.506783 -1.563092 0
M  V30 END ATOM
M  V30 BEGIN BOND
M  V30 1 1 1 2
M  V30 2 2 2 3
M  V30 3 1 3 4
M  V30 4 2 4 5
M  V30 5 1 5 6
M  V30 6 1 6 7
M  V30 7 2 7 8
M  V30 8 1 8 9
M  V30 9 1 9 10
M  V30 10 2 10 11
M  V30 11 1 10 12
M  V30 12 1 12 13
M  V30 13 2 13 14
M  V30 14 1 14 15
M  V30 15 2 15 16
M  V30 16 1 16 17
M  V30 17 1 17 18
M  V30 18 2 18 19
M  V30 19 1 18 20
M  V30 20 1 20 21
M  V30 21 1 21 22
M  V30 22 2 22 23
M  V30 23 1 23 24
M  V30 24 1 24 25
M  V30 25 1 16 26
M  V30 26 2 26 27
M  V30 27 2 9 28
M  V30 28 1 28 2
M  V30 29 1 28 6
M  V30 30 1 27 13
M  V30 31 2 25 21
M  V30 32 1 1 29
M  V30 33 1 1 30
M  V30 34 1 4 31
M  V30 35 1 7 32
M  V30 36 1 8 33
M  V30 37 1 12 34
M  V30 38 1 14 35
M  V30 39 1 15 36
M  V30 40 1 17 37
M  V30 41 1 20 38
M  V30 42 1 22 39
M  V30 43 1 23 40
M  V30 44 1 25 41
M  V30 45 1 26 42
M  V30 46 1 27 43
M  V30 END BOND
M  V30 END CTAB
M  END
>  <Dataset>  (712) 
ChEMBL_Kinases

>  <Ligand_Instance>  (712) 
nan

>  <PDB_ID>  (712) 
nan

>  <Standardized_SMILES>  (712) 
Nc1ncnn2ccc(C(=O)Nc3ccc(NC(=O)Nc4ccsc4)cc3)c12

>  <Name>  (712) 
nan

>  <Pocket>  (712) 
nan

>  <ATP_Site>  (712) 
nan

>  <Peripheral>  (712) 
nan

>  <Num_H_Atoms_ProtBoundConf>  (712) 
nan

>  <Num_Resolved_Atoms>  (712) 
nan

>  <Num_Not_Resolved_Atoms>  (712) 
nan

$$$$
CHEMBL610448
     RDKit          3D

  0  0  0  0  0  0  0  0  0  0999 V3000
M  V30 BEGIN CTAB
M  V30 COUNTS 22 23 0 0 0
M  V30 BEGIN ATOM
M  V30 1 O -2.084672 -4.111379 0.513095 0
M  V30 2 C -1.037790 -3.499092 0.837491 0
M  V30 3 O -0.238466 -3.152030 -0.265148 0
M  V30 4 C -0.772492 -3.221179 2.295570 0
M  V30 5 S 0.799826 -2.340282 2.472389 0
M  V30 6 C 0.660921 -0.706922 1.741112 0
M  V30 7 N -0.333263 -0.031565 1.140702 0
M  V30 8 C 0.170689 1.162063 0.801725 0
M  V30 9 C -0.366186 2.263210 0.168311 0
M  V30 10 I -2.375119 2.274739 -0.475034 0
M  V30 11 C 0.339546 3.425248 -0.094381 0
M  V30 12 I -0.491625 5.097517 -1.062537 0
M  V30 13 C 1.675274 3.509120 0.296686 0
M  V30 14 I 2.795949 5.240305 -0.073943 0
M  V30 15 C 2.215321 2.400266 0.934693 0
M  V30 16 I 4.244983 2.530031 1.527609 0
M  V30 17 C 1.492355 1.252325 1.185921 0
M  V30 18 N 1.785721 0.064222 1.777393 0
M  V30 19 H 0.092863 -3.932369 -0.852470 0
M  V30 20 H -1.607207 -2.529813 2.586428 0
M  V30 21 H -0.833559 -4.114885 2.910732 0
M  V30 22 H 2.753455 -0.087110 2.149914 0
M  V30 END ATOM
M  V30 BEGIN BOND
M  V30 1 2 1 2
M  V30 2 1 2 3
M  V30 3 1 2 4
M  V30 4 1 4 5
M  V30 5 1 5 6
M  V30 6 2 6 7
M  V30 7 1 7 8
M  V30 8 2 8 9
M  V30 9 1 9 10
M  V30 10 1 9 11
M  V30 11 1 11 12
M  V30 12 2 11 13
M  V30 13 1 13 14
M  V30 14 1 13 15
M  V30 15 1 15 16
M  V30 16 2 15 17
M  V30 17 1 17 18
M  V30 18 1 18 6
M  V30 19 1 17 8
M  V30 20 1 3 19
M  V30 21 1 4 20
M  V30 22 1 4 21
M  V30 23 1 18 22
M  V30 END BOND
M  V30 END CTAB
M  END
>  <Dataset>  (713) 
ChEMBL_Kinases

>  <Ligand_Instance>  (713) 
nan

>  <PDB_ID>  (713) 
nan

>  <Standardized_SMILES>  (713) 
O=C(O)CSc1nc2c(I)c(I)c(I)c(I)c2[nH]1

>  <Name>  (713) 
nan

>  <Pocket>  (713) 
nan

>  <ATP_Site>  (713) 
nan

>  <Peripheral>  (713) 
nan

>  <Num_H_Atoms_ProtBoundConf>  (713) 
nan

>  <Num_Resolved_Atoms>  (713) 
nan

>  <Num_Not_Resolved_Atoms>  (713) 
nan

$$$$
CHEMBL120645
     RDKit          3D

  0  0  0  0  0  0  0  0  0  0999 V3000
M  V30 BEGIN CTAB
M  V30 COUNTS 47 49 0 0 0
M  V30 BEGIN ATOM
M  V30 1 C -0.841013 -3.584488 0.436757 0
M  V30 2 C -0.726499 -3.337612 1.900896 0
M  V30 3 C 0.281080 -4.272898 2.558855 0
M  V30 4 C -0.372653 -1.965787 2.247301 0 CFG=1
M  V30 5 C 0.930934 -1.453002 1.720818 0
M  V30 6 O 2.146962 -1.248534 1.795805 0
M  V30 7 N 0.851490 -0.854987 0.400764 0
M  V30 8 C 1.664832 0.058063 -0.434525 0 CFG=2
M  V30 9 C 2.747165 -0.543623 -1.190777 0
M  V30 10 O 3.714432 -1.193407 -0.398772 0
M  V30 11 C 2.251246 1.081458 0.578956 0
M  V30 12 C 1.125016 1.536746 1.475205 0
M  V30 13 C 1.146640 3.076874 1.360156 0
M  V30 14 N 0.609151 3.134826 -0.020319 0
M  V30 15 C -0.494514 2.203837 0.027655 0
M  V30 16 C -1.648623 2.365105 -0.754611 0
M  V30 17 C -2.611988 1.394197 -0.572814 0
M  V30 18 C -2.330970 0.380464 0.353440 0
M  V30 19 C -1.172493 0.260280 1.106561 0
M  V30 20 C -0.177384 1.207794 0.960076 0
M  V30 21 N -1.357853 -0.928226 1.895655 0
M  V30 22 C -2.604020 -1.300504 2.525777 0
M  V30 23 H -1.541174 -2.870922 -0.033662 0
M  V30 24 H 0.136638 -3.497900 -0.054026 0
M  V30 25 H -1.247422 -4.628921 0.240250 0
M  V30 26 H -1.702869 -3.597904 2.373053 0
M  V30 27 H -0.210841 -5.231833 2.824169 0
M  V30 28 H 0.695049 -3.796300 3.477347 0
M  V30 29 H 1.103348 -4.437310 1.845257 0
M  V30 30 H -0.266024 -1.875960 3.366238 0
M  V30 31 H 0.056181 -1.148629 -0.180773 0
M  V30 32 H 0.967069 0.627772 -1.064028 0
M  V30 33 H 2.473571 -1.194591 -2.029591 0
M  V30 34 H 3.330589 0.299128 -1.668450 0
M  V30 35 H 4.546179 -1.261005 -0.926995 0
M  V30 36 H 3.095492 0.642868 1.077725 0
M  V30 37 H 2.629580 1.886755 -0.097654 0
M  V30 38 H 1.296594 1.256478 2.537143 0
M  V30 39 H 2.178546 3.431490 1.414249 0
M  V30 40 H 0.437476 3.524271 2.064813 0
M  V30 41 H 0.921687 3.691532 -0.843745 0
M  V30 42 H -1.810792 3.169032 -1.457059 0
M  V30 43 H -3.506005 1.498217 -1.162983 0
M  V30 44 H -3.202602 -0.298428 0.367921 0
M  V30 45 H -2.495623 -1.549146 3.601087 0
M  V30 46 H -3.087628 -2.150082 1.993463 0
M  V30 47 H -3.337871 -0.449459 2.484990 0
M  V30 END ATOM
M  V30 BEGIN BOND
M  V30 1 1 1 2
M  V30 2 1 2 3
M  V30 3 1 2 4
M  V30 4 1 4 5
M  V30 5 2 5 6
M  V30 6 1 5 7
M  V30 7 1 7 8
M  V30 8 1 8 9
M  V30 9 1 9 10
M  V30 10 1 8 11
M  V30 11 1 11 12
M  V30 12 1 12 13
M  V30 13 1 13 14
M  V30 14 1 14 15
M  V30 15 2 15 16
M  V30 16 1 16 17
M  V30 17 2 17 18
M  V30 18 1 18 19
M  V30 19 2 19 20
M  V30 20 1 19 21
M  V30 21 1 21 22
M  V30 22 1 21 4
M  V30 23 1 20 12
M  V30 24 1 20 15
M  V30 25 1 1 23
M  V30 26 1 1 24
M  V30 27 1 1 25
M  V30 28 1 2 26
M  V30 29 1 3 27
M  V30 30 1 3 28
M  V30 31 1 3 29
M  V30 32 1 4 30 CFG=1
M  V30 33 1 7 31
M  V30 34 1 8 32 CFG=3
M  V30 35 1 9 33
M  V30 36 1 9 34
M  V30 37 1 10 35
M  V30 38 1 11 36
M  V30 39 1 11 37
M  V30 40 1 12 38
M  V30 41 1 13 39
M  V30 42 1 13 40
M  V30 43 1 14 41
M  V30 44 1 16 42
M  V30 45 1 17 43
M  V30 46 1 18 44
M  V30 47 1 22 45
M  V30 48 1 22 46
M  V30 49 1 22 47
M  V30 END BOND
M  V30 END CTAB
M  END
>  <Dataset>  (714) 
ChEMBL_Kinases

>  <Ligand_Instance>  (714) 
nan

>  <PDB_ID>  (714) 
nan

>  <Standardized_SMILES>  (714) 
CC(C)[C@H]1C(=O)N[C@H](CO)CC2CNc3cccc(c32)N1C

>  <Name>  (714) 
nan

>  <Pocket>  (714) 
nan

>  <ATP_Site>  (714) 
nan

>  <Peripheral>  (714) 
nan

>  <Num_H_Atoms_ProtBoundConf>  (714) 
nan

>  <Num_Resolved_Atoms>  (714) 
nan

>  <Num_Not_Resolved_Atoms>  (714) 
nan

$$$$
CHEMBL2064532
     RDKit          3D

  0  0  0  0  0  0  0  0  0  0999 V3000
M  V30 BEGIN CTAB
M  V30 COUNTS 45 49 0 0 0
M  V30 BEGIN ATOM
M  V30 1 N 3.056096 0.356490 3.616075 0
M  V30 2 C 3.411517 0.335048 2.502348 0
M  V30 3 C 3.867022 0.295761 1.136494 0
M  V30 4 C 5.024263 -0.404456 0.904684 0
M  V30 5 C 5.490918 -0.463056 -0.399705 0
M  V30 6 F 6.631083 -1.139554 -0.699488 0
M  V30 7 C 4.782836 0.175547 -1.394872 0
M  V30 8 C 3.614292 0.875607 -1.122676 0
M  V30 9 C 3.126979 0.948915 0.173801 0
M  V30 10 C 1.899740 1.686643 0.449691 0
M  V30 11 C 1.794077 2.556454 1.514315 0
M  V30 12 C 0.614820 3.247206 1.756785 0
M  V30 13 C -0.452961 3.044885 0.907847 0
M  V30 14 C -1.784718 3.671214 0.981791 0
M  V30 15 S -2.980820 2.768722 1.967160 0
M  V30 16 C -3.395576 1.186194 1.232685 0
M  V30 17 N -4.316199 0.738609 0.352644 0
M  V30 18 N -4.092481 -0.558555 0.222261 0
M  V30 19 C -3.059402 -0.933238 0.995096 0
M  V30 20 C -2.449888 -2.267631 1.178548 0
M  V30 21 C -1.390961 -2.348296 2.045975 0
M  V30 22 C -0.798331 -3.600693 2.235765 0
M  V30 23 C -1.286904 -4.709657 1.554769 0
M  V30 24 C -2.365398 -4.571250 0.685078 0
M  V30 25 C -2.963317 -3.343377 0.484847 0
M  V30 26 O -2.553338 -5.871835 0.209026 0
M  V30 27 C -1.382157 -6.644192 0.457783 0
M  V30 28 O -0.829375 -6.016524 1.618010 0
M  V30 29 O -2.641107 0.155050 1.611604 0
M  V30 30 C -0.341294 2.161658 -0.170761 0
M  V30 31 C 0.837380 1.474660 -0.408732 0
M  V30 32 H 5.583268 -0.904273 1.667268 0
M  V30 33 H 5.137215 0.136486 -2.415441 0
M  V30 34 H 3.114337 1.353213 -1.970719 0
M  V30 35 H 2.623987 2.723347 2.186222 0
M  V30 36 H 0.447641 3.939887 2.558508 0
M  V30 37 H -1.647099 4.664334 1.490600 0
M  V30 38 H -2.219346 3.881848 -0.007112 0
M  V30 39 H -0.987325 -1.496825 2.592787 0
M  V30 40 H 0.044688 -3.640664 2.931970 0
M  V30 41 H -3.794041 -3.270024 -0.193015 0
M  V30 42 H -0.692096 -6.626090 -0.388273 0
M  V30 43 H -1.642873 -7.673303 0.800779 0
M  V30 44 H -1.142059 1.946385 -0.889424 0
M  V30 45 H 0.935740 0.786326 -1.242855 0
M  V30 END ATOM
M  V30 BEGIN BOND
M  V30 1 3 1 2
M  V30 2 1 2 3
M  V30 3 2 3 4
M  V30 4 1 4 5
M  V30 5 1 5 6
M  V30 6 2 5 7
M  V30 7 1 7 8
M  V30 8 2 8 9
M  V30 9 1 9 10
M  V30 10 2 10 11
M  V30 11 1 11 12
M  V30 12 2 12 13
M  V30 13 1 13 14
M  V30 14 1 14 15
M  V30 15 1 15 16
M  V30 16 2 16 17
M  V30 17 1 17 18
M  V30 18 2 18 19
M  V30 19 1 19 20
M  V30 20 2 20 21
M  V30 21 1 21 22
M  V30 22 2 22 23
M  V30 23 1 23 24
M  V30 24 2 24 25
M  V30 25 1 24 26
M  V30 26 1 26 27
M  V30 27 1 27 28
M  V30 28 1 19 29
M  V30 29 1 13 30
M  V30 30 2 30 31
M  V30 31 1 9 3
M  V30 32 1 31 10
M  V30 33 1 29 16
M  V30 34 1 25 20
M  V30 35 1 28 23
M  V30 36 1 4 32
M  V30 37 1 7 33
M  V30 38 1 8 34
M  V30 39 1 11 35
M  V30 40 1 12 36
M  V30 41 1 14 37
M  V30 42 1 14 38
M  V30 43 1 21 39
M  V30 44 1 22 40
M  V30 45 1 25 41
M  V30 46 1 27 42
M  V30 47 1 27 43
M  V30 48 1 30 44
M  V30 49 1 31 45
M  V30 END BOND
M  V30 END CTAB
M  END
>  <Dataset>  (715) 
ChEMBL_Kinases

>  <Ligand_Instance>  (715) 
nan

>  <PDB_ID>  (715) 
nan

>  <Standardized_SMILES>  (715) 
N#Cc1cc(F)ccc1-c1ccc(CSc2nnc(-c3ccc4c(c3)OCO4)o2)cc1

>  <Name>  (715) 
nan

>  <Pocket>  (715) 
nan

>  <ATP_Site>  (715) 
nan

>  <Peripheral>  (715) 
nan

>  <Num_H_Atoms_ProtBoundConf>  (715) 
nan

>  <Num_Resolved_Atoms>  (715) 
nan

>  <Num_Not_Resolved_Atoms>  (715) 
nan

$$$$
CHEMBL575470
     RDKit          3D

  0  0  0  0  0  0  0  0  0  0999 V3000
M  V30 BEGIN CTAB
M  V30 COUNTS 31 33 0 0 0
M  V30 BEGIN ATOM
M  V30 1 C -1.970273 -2.051663 2.131534 0
M  V30 2 N -1.697472 -3.208148 1.342659 0
M  V30 3 C -1.912524 -4.365854 2.190526 0
M  V30 4 C -0.355452 -3.280988 0.842721 0
M  V30 5 C -0.021353 -2.104818 -0.032976 0
M  V30 6 N 0.500112 -1.033779 0.565795 0
M  V30 7 C 0.835298 0.070027 -0.122469 0
M  V30 8 C 0.571693 -0.061602 -1.483675 0
M  V30 9 S 1.079616 1.485112 -2.204115 0
M  V30 10 C 1.626309 2.226757 -0.592884 0
M  V30 11 C 2.164057 3.487135 -0.380510 0
M  V30 12 C 2.491397 3.802060 0.918224 0
M  V30 13 C 2.253400 2.838974 1.872085 0
M  V30 14 Br 2.717780 3.302466 3.671299 0
M  V30 15 C 1.722721 1.608257 1.628650 0
M  V30 16 C 1.374613 1.233303 0.351079 0
M  V30 17 C 0.043501 -1.157554 -2.061262 0
M  V30 18 O -0.136588 -1.126561 -3.303431 0
M  V30 19 N -0.277890 -2.239366 -1.340899 0
M  V30 20 H -1.299416 -1.948790 3.006469 0
M  V30 21 H -1.956472 -1.104266 1.563041 0
M  V30 22 H -3.001940 -2.152803 2.531275 0
M  V30 23 H -1.513243 -5.292781 1.738946 0
M  V30 24 H -1.324733 -4.207741 3.140413 0
M  V30 25 H -2.981160 -4.478616 2.497406 0
M  V30 26 H -0.271108 -4.218432 0.239631 0
M  V30 27 H 0.392170 -3.310264 1.651439 0
M  V30 28 H 2.292618 4.133244 -1.221245 0
M  V30 29 H 2.910123 4.782082 1.087203 0
M  V30 30 H 1.584871 0.939884 2.466980 0
M  V30 31 H -0.686017 -3.089588 -1.778446 0
M  V30 END ATOM
M  V30 BEGIN BOND
M  V30 1 1 1 2
M  V30 2 1 2 3
M  V30 3 1 2 4
M  V30 4 1 4 5
M  V30 5 2 5 6
M  V30 6 1 6 7
M  V30 7 2 7 8
M  V30 8 1 8 9
M  V30 9 1 9 10
M  V30 10 2 10 11
M  V30 11 1 11 12
M  V30 12 2 12 13
M  V30 13 1 13 14
M  V30 14 1 13 15
M  V30 15 2 15 16
M  V30 16 1 8 17
M  V30 17 2 17 18
M  V30 18 1 17 19
M  V30 19 1 19 5
M  V30 20 1 16 7
M  V30 21 1 16 10
M  V30 22 1 1 20
M  V30 23 1 1 21
M  V30 24 1 1 22
M  V30 25 1 3 23
M  V30 26 1 3 24
M  V30 27 1 3 25
M  V30 28 1 4 26
M  V30 29 1 4 27
M  V30 30 1 11 28
M  V30 31 1 12 29
M  V30 32 1 15 30
M  V30 33 1 19 31
M  V30 END BOND
M  V30 END CTAB
M  END
>  <Dataset>  (716) 
ChEMBL_Kinases

>  <Ligand_Instance>  (716) 
nan

>  <PDB_ID>  (716) 
nan

>  <Standardized_SMILES>  (716) 
CN(C)Cc1nc2c(sc3ccc(Br)cc32)c(=O)[nH]1

>  <Name>  (716) 
nan

>  <Pocket>  (716) 
nan

>  <ATP_Site>  (716) 
nan

>  <Peripheral>  (716) 
nan

>  <Num_H_Atoms_ProtBoundConf>  (716) 
nan

>  <Num_Resolved_Atoms>  (716) 
nan

>  <Num_Not_Resolved_Atoms>  (716) 
nan

$$$$
CHEMBL118266
     RDKit          3D

  0  0  0  0  0  0  0  0  0  0999 V3000
M  V30 BEGIN CTAB
M  V30 COUNTS 26 28 0 0 0
M  V30 BEGIN ATOM
M  V30 1 C 0.252300 -4.856050 2.304409 0
M  V30 2 C -0.267990 -5.321585 1.115336 0
M  V30 3 N -0.529433 -4.419637 0.172889 0
M  V30 4 C -0.298601 -3.109897 0.365405 0
M  V30 5 C 0.217589 -2.561559 1.518859 0
M  V30 6 C 0.466551 -1.139108 1.723553 0
M  V30 7 C 1.008802 -0.649066 2.961231 0
M  V30 8 S 1.083400 1.129661 2.611856 0
M  V30 9 C 0.376053 0.929566 0.864003 0
M  V30 10 C 0.182296 2.086468 0.017313 0
M  V30 11 C -0.328347 1.988543 -1.258579 0
M  V30 12 C -0.495197 3.113299 -2.026705 0
M  V30 13 C -0.163881 4.367349 -1.560374 0
M  V30 14 N 0.340138 4.458910 -0.299495 0
M  V30 15 C 0.510793 3.368461 0.467950 0
M  V30 16 N 0.175817 -0.308443 0.727942 0
M  V30 17 C 0.480783 -3.512683 2.480716 0
M  V30 18 H 0.469293 -5.578797 3.078774 0
M  V30 19 H -0.448789 -6.376354 0.973321 0
M  V30 20 H -0.537304 -2.420151 -0.454456 0
M  V30 21 H 1.265969 -1.302853 3.817297 0
M  V30 22 H -0.561272 0.973733 -1.545988 0
M  V30 23 H -0.907842 2.898757 -3.016616 0
M  V30 24 H -0.319825 5.213987 -2.216179 0
M  V30 25 H 0.916813 3.537502 1.454744 0
M  V30 26 H 0.887843 -3.246982 3.440940 0
M  V30 END ATOM
M  V30 BEGIN BOND
M  V30 1 2 1 2
M  V30 2 1 2 3
M  V30 3 2 3 4
M  V30 4 1 4 5
M  V30 5 1 5 6
M  V30 6 2 6 7
M  V30 7 1 7 8
M  V30 8 1 8 9
M  V30 9 1 9 10
M  V30 10 2 10 11
M  V30 11 1 11 12
M  V30 12 2 12 13
M  V30 13 1 13 14
M  V30 14 2 14 15
M  V30 15 2 9 16
M  V30 16 2 5 17
M  V30 17 1 17 1
M  V30 18 1 16 6
M  V30 19 1 15 10
M  V30 20 1 1 18
M  V30 21 1 2 19
M  V30 22 1 4 20
M  V30 23 1 7 21
M  V30 24 1 11 22
M  V30 25 1 12 23
M  V30 26 1 13 24
M  V30 27 1 15 25
M  V30 28 1 17 26
M  V30 END BOND
M  V30 END CTAB
M  END
>  <Dataset>  (717) 
ChEMBL_Kinases

>  <Ligand_Instance>  (717) 
nan

>  <PDB_ID>  (717) 
nan

>  <Standardized_SMILES>  (717) 
c1cncc(-c2csc(-c3cccnc3)n2)c1

>  <Name>  (717) 
nan

>  <Pocket>  (717) 
nan

>  <ATP_Site>  (717) 
nan

>  <Peripheral>  (717) 
nan

>  <Num_H_Atoms_ProtBoundConf>  (717) 
nan

>  <Num_Resolved_Atoms>  (717) 
nan

>  <Num_Not_Resolved_Atoms>  (717) 
nan

$$$$
CHEMBL209292
     RDKit          3D

  0  0  0  0  0  0  0  0  0  0999 V3000
M  V30 BEGIN CTAB
M  V30 COUNTS 38 39 0 0 0
M  V30 BEGIN ATOM
M  V30 1 C 1.433259 -3.945482 2.984911 0
M  V30 2 C 0.527407 -3.128975 3.913685 0
M  V30 3 O -0.816951 -3.236263 3.501240 0
M  V30 4 C -1.128994 -2.798177 2.221309 0
M  V30 5 N -0.226979 -2.282640 1.363583 0
M  V30 6 C -0.531803 -1.858510 0.123039 0
M  V30 7 N 0.605148 -1.345765 -0.607479 0
M  V30 8 C 0.785996 0.047750 -0.407503 0
M  V30 9 O 0.104903 0.841882 0.295529 0
M  V30 10 C 1.935294 0.699728 -1.113761 0
M  V30 11 C 1.989258 2.151367 -0.804514 0
M  V30 12 C 1.296162 3.021085 -1.622576 0
M  V30 13 C 1.295174 4.387183 -1.403117 0
M  V30 14 C 2.009727 4.905126 -0.331064 0
M  V30 15 Cl 2.099985 6.617350 0.070571 0
M  V30 16 C 2.710604 4.061790 0.502027 0
M  V30 17 C 2.692098 2.704338 0.256999 0
M  V30 18 C -1.846543 -1.936205 -0.349987 0
M  V30 19 C -2.795136 -2.458855 0.502136 0
M  V30 20 N -4.126922 -2.530889 0.005862 0
M  V30 21 C -2.448397 -2.885848 1.771426 0
M  V30 22 C -3.458081 -3.428226 2.642822 0
M  V30 23 N -4.272566 -3.883124 3.335339 0
M  V30 24 H 0.956442 -4.901229 2.704255 0
M  V30 25 H 2.336843 -4.193210 3.578489 0
M  V30 26 H 1.766815 -3.319794 2.148359 0
M  V30 27 H 0.695896 -3.468061 4.945757 0
M  V30 28 H 0.822618 -2.071424 3.775750 0
M  V30 29 H 1.262741 -1.865201 -1.226667 0
M  V30 30 H 1.824995 0.528962 -2.188196 0
M  V30 31 H 2.871512 0.261180 -0.729464 0
M  V30 32 H 0.712770 2.701050 -2.481227 0
M  V30 33 H 0.773783 5.110997 -2.007276 0
M  V30 34 H 3.306203 4.301686 1.364601 0
M  V30 35 H 3.209695 1.933189 0.848254 0
M  V30 36 H -1.988368 -1.574052 -1.348723 0
M  V30 37 H -4.509238 -1.670690 0.488933 0
M  V30 38 H -4.400631 -3.313177 -0.641138 0
M  V30 END ATOM
M  V30 BEGIN BOND
M  V30 1 1 1 2
M  V30 2 1 2 3
M  V30 3 1 3 4
M  V30 4 2 4 5
M  V30 5 1 5 6
M  V30 6 1 6 7
M  V30 7 1 7 8
M  V30 8 2 8 9
M  V30 9 1 8 10
M  V30 10 1 10 11
M  V30 11 2 11 12
M  V30 12 1 12 13
M  V30 13 2 13 14
M  V30 14 1 14 15
M  V30 15 1 14 16
M  V30 16 2 16 17
M  V30 17 2 6 18
M  V30 18 1 18 19
M  V30 19 1 19 20
M  V30 20 2 19 21
M  V30 21 1 21 22
M  V30 22 3 22 23
M  V30 23 1 21 4
M  V30 24 1 17 11
M  V30 25 1 1 24
M  V30 26 1 1 25
M  V30 27 1 1 26
M  V30 28 1 2 27
M  V30 29 1 2 28
M  V30 30 1 7 29
M  V30 31 1 10 30
M  V30 32 1 10 31
M  V30 33 1 12 32
M  V30 34 1 13 33
M  V30 35 1 16 34
M  V30 36 1 17 35
M  V30 37 1 18 36
M  V30 38 1 20 37
M  V30 39 1 20 38
M  V30 END BOND
M  V30 END CTAB
M  END
>  <Dataset>  (718) 
ChEMBL_Kinases

>  <Ligand_Instance>  (718) 
nan

>  <PDB_ID>  (718) 
nan

>  <Standardized_SMILES>  (718) 
CCOc1nc(NC(=O)Cc2ccc(Cl)cc2)cc(N)c1C#N

>  <Name>  (718) 
nan

>  <Pocket>  (718) 
nan

>  <ATP_Site>  (718) 
nan

>  <Peripheral>  (718) 
nan

>  <Num_H_Atoms_ProtBoundConf>  (718) 
nan

>  <Num_Resolved_Atoms>  (718) 
nan

>  <Num_Not_Resolved_Atoms>  (718) 
nan

$$$$
CHEMBL2088589
     RDKit          3D

  0  0  0  0  0  0  0  0  0  0999 V3000
M  V30 BEGIN CTAB
M  V30 COUNTS 55 58 0 0 0
M  V30 BEGIN ATOM
M  V30 1 C 5.256335 1.056331 4.719823 0
M  V30 2 C 5.671812 1.978382 3.608274 0
M  V30 3 C 5.305025 1.412169 2.242639 0
M  V30 4 N 3.874224 1.212964 2.142651 0
M  V30 5 C 2.886579 2.209515 2.260360 0
M  V30 6 O 3.228629 3.408731 2.473375 0
M  V30 7 C 1.453335 1.974660 2.154910 0
M  V30 8 C 0.588884 3.041262 2.287653 0
M  V30 9 C -0.797016 2.891920 2.198491 0
M  V30 10 C -1.353813 1.646650 1.970175 0
M  V30 11 O -2.711077 1.405426 1.867495 0
M  V30 12 C -3.617188 2.474744 1.998786 0
M  V30 13 C -0.502221 0.578677 1.836593 0
M  V30 14 C -1.033268 -0.759243 1.594100 0
M  V30 15 C -1.304177 -1.496218 2.747109 0
M  V30 16 O -1.128554 -1.100773 3.922866 0
M  V30 17 C -1.812301 -2.775832 2.511837 0
M  V30 18 C -2.035444 -3.287669 1.238138 0
M  V30 19 N -1.732810 -2.474547 0.185929 0
M  V30 20 N -1.961142 -3.003726 -1.003503 0
M  V30 21 C -1.718723 -2.339934 -2.147020 0
M  V30 22 O -1.872546 -2.674547 -3.464844 0
M  V30 23 C -2.347465 -3.859033 -3.950964 0
M  V30 24 C -2.777520 -4.977959 -3.287339 0
M  V30 25 C -3.232802 -6.106500 -3.917974 0
M  V30 26 C -3.259338 -6.115108 -5.316531 0
M  V30 27 F -3.723394 -7.269693 -5.858710 0
M  V30 28 C -2.833858 -5.005979 -6.025132 0
M  V30 29 C -2.380673 -3.885356 -5.331256 0
M  V30 30 F -2.006072 -2.898162 -6.206112 0
M  V30 31 C -1.205952 -1.043740 -2.025717 0
M  V30 32 C -0.962011 -0.477825 -0.769299 0
M  V30 33 C -1.244953 -1.242874 0.339562 0
M  V30 34 C 0.854953 0.759860 1.929568 0
M  V30 35 H 5.221035 -0.004283 4.410351 0
M  V30 36 H 4.207186 1.314021 5.011099 0
M  V30 37 H 5.935946 1.197219 5.589945 0
M  V30 38 H 5.133126 2.929021 3.724759 0
M  V30 39 H 6.767698 2.129864 3.681439 0
M  V30 40 H 5.803935 0.434783 2.139611 0
M  V30 41 H 5.705658 2.054930 1.454432 0
M  V30 42 H 3.479361 0.241107 1.964402 0
M  V30 43 H 0.921586 4.067291 2.469852 0
M  V30 44 H -1.479892 3.718765 2.300790 0
M  V30 45 H -3.327335 3.067738 2.895857 0
M  V30 46 H -3.657578 3.116473 1.077672 0
M  V30 47 H -4.650383 2.117614 2.207898 0
M  V30 48 H -2.035842 -3.381226 3.398504 0
M  V30 49 H -2.428178 -4.280316 1.142178 0
M  V30 50 H -2.728814 -4.899825 -2.207704 0
M  V30 51 H -3.558173 -6.956893 -3.330848 0
M  V30 52 H -2.895576 -5.117800 -7.093736 0
M  V30 53 H -0.950193 -0.360279 -2.837556 0
M  V30 54 H -0.567565 0.517578 -0.636426 0
M  V30 55 H 1.483620 -0.103292 1.818795 0
M  V30 END ATOM
M  V30 BEGIN BOND
M  V30 1 1 1 2
M  V30 2 1 2 3
M  V30 3 1 3 4
M  V30 4 1 4 5
M  V30 5 2 5 6
M  V30 6 1 5 7
M  V30 7 2 7 8
M  V30 8 1 8 9
M  V30 9 2 9 10
M  V30 10 1 10 11
M  V30 11 1 11 12
M  V30 12 1 10 13
M  V30 13 1 13 14
M  V30 14 1 14 15
M  V30 15 2 15 16
M  V30 16 1 15 17
M  V30 17 2 17 18
M  V30 18 1 18 19
M  V30 19 1 19 20
M  V30 20 2 20 21
M  V30 21 1 21 22
M  V30 22 1 22 23
M  V30 23 2 23 24
M  V30 24 1 24 25
M  V30 25 2 25 26
M  V30 26 1 26 27
M  V30 27 1 26 28
M  V30 28 2 28 29
M  V30 29 1 29 30
M  V30 30 1 21 31
M  V30 31 2 31 32
M  V30 32 1 32 33
M  V30 33 2 13 34
M  V30 34 1 34 7
M  V30 35 2 33 14
M  V30 36 1 33 19
M  V30 37 1 29 23
M  V30 38 1 1 35
M  V30 39 1 1 36
M  V30 40 1 1 37
M  V30 41 1 2 38
M  V30 42 1 2 39
M  V30 43 1 3 40
M  V30 44 1 3 41
M  V30 45 1 4 42
M  V30 46 1 8 43
M  V30 47 1 9 44
M  V30 48 1 12 45
M  V30 49 1 12 46
M  V30 50 1 12 47
M  V30 51 1 17 48
M  V30 52 1 18 49
M  V30 53 1 24 50
M  V30 54 1 25 51
M  V30 55 1 28 52
M  V30 56 1 31 53
M  V30 57 1 32 54
M  V30 58 1 34 55
M  V30 END BOND
M  V30 END CTAB
M  END
>  <Dataset>  (719) 
ChEMBL_Kinases

>  <Ligand_Instance>  (719) 
nan

>  <PDB_ID>  (719) 
nan

>  <Standardized_SMILES>  (719) 
CCCNC(=O)c1ccc(OC)c(-c2c(=O)ccn3nc(Oc4ccc(F)cc4F)ccc23)c1

>  <Name>  (719) 
nan

>  <Pocket>  (719) 
nan

>  <ATP_Site>  (719) 
nan

>  <Peripheral>  (719) 
nan

>  <Num_H_Atoms_ProtBoundConf>  (719) 
nan

>  <Num_Resolved_Atoms>  (719) 
nan

>  <Num_Not_Resolved_Atoms>  (719) 
nan

$$$$
CHEMBL119385
     RDKit          3D

  0  0  0  0  0  0  0  0  0  0999 V3000
M  V30 BEGIN CTAB
M  V30 COUNTS 37 40 0 0 0
M  V30 BEGIN ATOM
M  V30 1 O -0.321134 -1.950400 4.753574 0
M  V30 2 C -0.163011 -1.357712 3.661604 0
M  V30 3 N -0.298118 -0.034328 3.588091 0
M  V30 4 C -0.128091 0.603396 2.413679 0
M  V30 5 N 0.182987 -0.084686 1.285320 0
M  V30 6 N 0.325888 0.640294 0.194244 0
M  V30 7 C 0.637111 -0.019458 -0.950453 0
M  V30 8 S 0.867210 0.825640 -2.529843 0
M  V30 9 C 0.603803 2.570121 -2.213722 0
M  V30 10 C -0.728935 2.944570 -2.379210 0
M  V30 11 C -1.097743 4.263859 -2.171119 0
M  V30 12 C -0.150546 5.213885 -1.799518 0
M  V30 13 F -0.507874 6.497567 -1.596743 0
M  V30 14 C 1.179901 4.811257 -1.640334 0
M  V30 15 C 1.549738 3.502013 -1.846136 0
M  V30 16 F 2.804803 3.013212 -1.718737 0
M  V30 17 C 0.809455 -1.385506 -1.033851 0
M  V30 18 C 0.649906 -2.116958 0.141442 0
M  V30 19 C 0.336410 -1.432866 1.283759 0
M  V30 20 C 0.154209 -2.052281 2.507076 0
M  V30 21 C 0.318469 -3.501634 2.508557 0
M  V30 22 C 1.471923 -4.226540 2.727944 0
M  V30 23 Cl 2.902603 -3.260256 3.041396 0
M  V30 24 C 1.442295 -5.605286 2.691358 0
M  V30 25 C 0.256005 -6.253910 2.434845 0
M  V30 26 C -0.915733 -5.551158 2.211237 0
M  V30 27 C -0.881454 -4.166139 2.248912 0
M  V30 28 Cl -2.418117 -3.350858 1.953295 0
M  V30 29 H -0.253039 1.679984 2.426715 0
M  V30 30 H -1.551751 2.290622 -2.666236 0
M  V30 31 H -2.119401 4.609888 -2.285659 0
M  V30 32 H 1.959150 5.516628 -1.350545 0
M  V30 33 H 1.052442 -1.919184 -1.917401 0
M  V30 34 H 0.768666 -3.199929 0.161890 0
M  V30 35 H 2.407593 -6.047143 2.878608 0
M  V30 36 H 0.296533 -7.337620 2.419107 0
M  V30 37 H -1.844504 -6.085509 2.009823 0
M  V30 END ATOM
M  V30 BEGIN BOND
M  V30 1 2 1 2
M  V30 2 1 2 3
M  V30 3 2 3 4
M  V30 4 1 4 5
M  V30 5 1 5 6
M  V30 6 2 6 7
M  V30 7 1 7 8
M  V30 8 1 8 9
M  V30 9 2 9 10
M  V30 10 1 10 11
M  V30 11 2 11 12
M  V30 12 1 12 13
M  V30 13 1 12 14
M  V30 14 2 14 15
M  V30 15 1 15 16
M  V30 16 1 7 17
M  V30 17 2 17 18
M  V30 18 1 18 19
M  V30 19 2 19 20
M  V30 20 1 20 21
M  V30 21 2 21 22
M  V30 22 1 22 23
M  V30 23 1 22 24
M  V30 24 2 24 25
M  V30 25 1 25 26
M  V30 26 2 26 27
M  V30 27 1 27 28
M  V30 28 1 20 2
M  V30 29 1 27 21
M  V30 30 1 19 5
M  V30 31 1 15 9
M  V30 32 1 4 29
M  V30 33 1 10 30
M  V30 34 1 11 31
M  V30 35 1 14 32
M  V30 36 1 17 33
M  V30 37 1 18 34
M  V30 38 1 24 35
M  V30 39 1 25 36
M  V30 40 1 26 37
M  V30 END BOND
M  V30 END CTAB
M  END
>  <Dataset>  (720) 
ChEMBL_Kinases

>  <Ligand_Instance>  (720) 
nan

>  <PDB_ID>  (720) 
nan

>  <Standardized_SMILES>  (720) 
O=c1ncn2nc(Sc3ccc(F)cc3F)ccc2c1-c1c(Cl)cccc1Cl

>  <Name>  (720) 
NEFLAMAPIMOD

>  <Pocket>  (720) 
nan

>  <ATP_Site>  (720) 
nan

>  <Peripheral>  (720) 
nan

>  <Num_H_Atoms_ProtBoundConf>  (720) 
nan

>  <Num_Resolved_Atoms>  (720) 
nan

>  <Num_Not_Resolved_Atoms>  (720) 
nan

$$$$
CHEMBL575463
     RDKit          3D

  0  0  0  0  0  0  0  0  0  0999 V3000
M  V30 BEGIN CTAB
M  V30 COUNTS 53 56 0 0 0
M  V30 BEGIN ATOM
M  V30 1 C 3.042771 -3.909171 5.092801 0
M  V30 2 N 2.155112 -4.131547 3.996975 0
M  V30 3 C 1.102632 -5.051148 4.264774 0
M  V30 4 C 2.760662 -4.252389 2.712252 0
M  V30 5 C 3.514891 -2.989032 2.371879 0
M  V30 6 N 2.857450 -2.034348 1.727665 0
M  V30 7 C 3.410705 -0.865120 1.366540 0
M  V30 8 C 4.726052 -0.810105 1.755771 0
M  V30 9 S 5.280654 0.782411 1.200268 0
M  V30 10 C 3.614403 1.272670 0.450215 0
M  V30 11 C 3.304167 2.477041 -0.200353 0
M  V30 12 C 2.006501 2.549870 -0.643171 0
M  V30 13 C 1.177529 1.477426 -0.412611 0
M  V30 14 C -0.212335 1.570890 -0.892362 0
M  V30 15 C -0.885889 0.437682 -1.290261 0
M  V30 16 C -2.183410 0.523606 -1.736570 0
M  V30 17 C -2.871366 1.705006 -1.812538 0
M  V30 18 O -4.114906 2.085093 -2.196200 0
M  V30 19 C -5.192044 1.358925 -2.665652 0
M  V30 20 C -5.730190 0.336421 -1.701895 0
M  V30 21 O -6.161077 0.939606 -0.513012 0
M  V30 22 C -6.992448 -0.325784 -2.275230 0
M  V30 23 O -7.442218 -1.241395 -1.346381 0
M  V30 24 C -2.172351 2.852976 -1.403842 0
M  V30 25 C -0.848926 2.790568 -0.945236 0
M  V30 26 C 1.523365 0.321295 0.227019 0
M  V30 27 C 2.799398 0.155873 0.705568 0
M  V30 28 C 5.401336 -1.778030 2.411749 0
M  V30 29 O 6.605309 -1.557885 2.690195 0
M  V30 30 N 4.800081 -2.927079 2.748404 0
M  V30 31 H 2.424411 -3.619435 5.975650 0
M  V30 32 H 3.630773 -4.824240 5.262779 0
M  V30 33 H 3.668956 -3.026727 4.854795 0
M  V30 34 H 0.920392 -5.717930 3.399516 0
M  V30 35 H 1.259898 -5.671677 5.184036 0
M  V30 36 H 0.172803 -4.441414 4.455406 0
M  V30 37 H 1.972829 -4.448621 1.972083 0
M  V30 38 H 3.447166 -5.121195 2.709010 0
M  V30 39 H 4.082665 3.193894 -0.283592 0
M  V30 40 H 1.728387 3.460254 -1.148726 0
M  V30 41 H -0.442000 -0.544746 -1.272182 0
M  V30 42 H -2.762064 -0.305663 -2.067025 0
M  V30 43 H -6.029067 2.099947 -2.842823 0
M  V30 44 H -4.963326 0.862407 -3.653044 0
M  V30 45 H -4.996775 -0.434059 -1.421416 0
M  V30 46 H -5.871398 0.422752 0.281692 0
M  V30 47 H -6.783611 -0.736531 -3.272598 0
M  V30 48 H -7.764045 0.473856 -2.400663 0
M  V30 49 H -6.739650 -1.803932 -0.963295 0
M  V30 50 H -2.511367 3.889810 -1.377449 0
M  V30 51 H -0.261994 3.636021 -0.618793 0
M  V30 52 H 0.790114 -0.461003 0.354694 0
M  V30 53 H 5.337111 -3.660079 3.252789 0
M  V30 END ATOM
M  V30 BEGIN BOND
M  V30 1 1 1 2
M  V30 2 1 2 3
M  V30 3 1 2 4
M  V30 4 1 4 5
M  V30 5 2 5 6
M  V30 6 1 6 7
M  V30 7 2 7 8
M  V30 8 1 8 9
M  V30 9 1 9 10
M  V30 10 2 10 11
M  V30 11 1 11 12
M  V30 12 2 12 13
M  V30 13 1 13 14
M  V30 14 2 14 15
M  V30 15 1 15 16
M  V30 16 2 16 17
M  V30 17 1 17 18
M  V30 18 1 18 19
M  V30 19 1 19 20
M  V30 20 1 20 21
M  V30 21 1 20 22
M  V30 22 1 22 23
M  V30 23 1 17 24
M  V30 24 2 24 25
M  V30 25 1 13 26
M  V30 26 2 26 27
M  V30 27 1 8 28
M  V30 28 2 28 29
M  V30 29 1 28 30
M  V30 30 1 30 5
M  V30 31 1 27 7
M  V30 32 1 27 10
M  V30 33 1 25 14
M  V30 34 1 1 31
M  V30 35 1 1 32
M  V30 36 1 1 33
M  V30 37 1 3 34
M  V30 38 1 3 35
M  V30 39 1 3 36
M  V30 40 1 4 37
M  V30 41 1 4 38
M  V30 42 1 11 39
M  V30 43 1 12 40
M  V30 44 1 15 41
M  V30 45 1 16 42
M  V30 46 1 19 43
M  V30 47 1 19 44
M  V30 48 1 20 45
M  V30 49 1 21 46
M  V30 50 1 22 47
M  V30 51 1 22 48
M  V30 52 1 23 49
M  V30 53 1 24 50
M  V30 54 1 25 51
M  V30 55 1 26 52
M  V30 56 1 30 53
M  V30 END BOND
M  V30 END CTAB
M  END
>  <Dataset>  (721) 
ChEMBL_Kinases

>  <Ligand_Instance>  (721) 
nan

>  <PDB_ID>  (721) 
nan

>  <Standardized_SMILES>  (721) 
CN(C)Cc1nc2c(sc3ccc(-c4ccc(OCC(O)CO)cc4)cc32)c(=O)[nH]1

>  <Name>  (721) 
nan

>  <Pocket>  (721) 
nan

>  <ATP_Site>  (721) 
nan

>  <Peripheral>  (721) 
nan

>  <Num_H_Atoms_ProtBoundConf>  (721) 
nan

>  <Num_Resolved_Atoms>  (721) 
nan

>  <Num_Not_Resolved_Atoms>  (721) 
nan

$$$$
CHEMBL103055
     RDKit          3D

  0  0  0  0  0  0  0  0  0  0999 V3000
M  V30 BEGIN CTAB
M  V30 COUNTS 70 75 0 0 0
M  V30 BEGIN ATOM
M  V30 1 C 2.766113 -1.501327 4.619472 0
M  V30 2 C 2.770233 -1.688753 3.124723 0
M  V30 3 N 2.534782 -0.367806 2.449130 0
M  V30 4 C 2.492233 -0.697669 1.071036 0
M  V30 5 C 3.671758 -1.271847 0.337629 0
M  V30 6 O 3.395371 -1.502685 -0.960190 0
M  V30 7 C 4.143726 -2.192290 -1.845121 0
M  V30 8 C 3.279712 -2.109590 -3.208034 0
M  V30 9 N 1.920324 -1.819370 -2.684841 0
M  V30 10 C 0.986229 -2.664556 -2.349633 0
M  V30 11 C 0.035081 -1.919001 -1.687860 0
M  V30 12 C 0.483454 -0.653740 -1.696498 0
M  V30 13 C -0.115834 0.444546 -1.177128 0
M  V30 14 C 0.541999 1.654513 -1.307268 0
M  V30 15 C 1.756318 1.837441 -1.923342 0
M  V30 16 C 2.363151 0.721738 -2.453617 0
M  V30 17 C 1.732298 -0.500329 -2.339539 0
M  V30 18 C -1.144689 -2.137892 -0.851493 0
M  V30 19 C -2.221897 -2.067116 -0.280243 0
M  V30 20 C -2.708176 -3.051276 0.702474 0
M  V30 21 O -3.700572 -3.298272 1.429741 0
M  V30 22 N -1.595772 -4.000569 0.775488 0
M  V30 23 C -0.703795 -3.346734 -0.201963 0
M  V30 24 O 0.367416 -4.128612 -0.208606 0
M  V30 25 C -3.239155 -0.973007 -0.094025 0
M  V30 26 C -2.782836 0.006686 0.847313 0
M  V30 27 N -3.570920 1.037164 1.129559 0
M  V30 28 C -4.649680 0.788336 0.360955 0
M  V30 29 C -5.868951 1.370236 0.138110 0
M  V30 30 C -6.773995 0.761330 -0.743468 0
M  V30 31 C -6.474466 -0.438653 -1.416789 0
M  V30 32 C -5.233169 -1.081827 -1.227821 0
M  V30 33 C -4.445458 -0.385659 -0.346534 0
M  V30 34 C -3.109106 2.031738 2.039481 0
M  V30 35 C -1.581576 2.122973 2.077288 0
M  V30 36 O -0.955700 1.023874 2.574688 0
M  V30 37 C 0.443058 1.051210 2.352288 0
M  V30 38 C 1.074318 -0.212135 2.779940 0
M  V30 39 H 1.777127 -1.860480 5.027817 0
M  V30 40 H 3.055499 -0.510344 4.966412 0
M  V30 41 H 3.499974 -2.238382 5.042756 0
M  V30 42 H 1.925894 -2.320161 2.823113 0
M  V30 43 H 3.696606 -2.112325 2.745952 0
M  V30 44 H 1.653056 -1.432921 0.910778 0
M  V30 45 H 2.145434 0.239841 0.571787 0
M  V30 46 H 4.000059 -2.226105 0.796002 0
M  V30 47 H 4.517389 -0.572465 0.434525 0
M  V30 48 H 4.297528 -3.232509 -1.598616 0
M  V30 49 H 5.061275 -1.641068 -2.106110 0
M  V30 50 H 3.680263 -1.375306 -3.855855 0
M  V30 51 H 3.277674 -3.131589 -3.562226 0
M  V30 52 H 1.009609 -3.702299 -2.569442 0
M  V30 53 H -1.002533 0.709771 -0.691648 0
M  V30 54 H 0.140377 2.554963 -0.913082 0
M  V30 55 H 2.329136 2.736101 -2.060230 0
M  V30 56 H 3.313608 0.762684 -2.957681 0
M  V30 57 H -1.540344 -4.829785 1.362613 0
M  V30 58 H -1.819630 -0.222973 1.254178 0
M  V30 59 H -6.007322 2.281815 0.694190 0
M  V30 60 H -7.718899 1.298032 -0.856377 0
M  V30 61 H -7.262185 -0.823883 -2.079211 0
M  V30 62 H -5.083156 -1.986900 -1.775359 0
M  V30 63 H -3.441354 1.869509 3.096664 0
M  V30 64 H -3.517255 3.021088 1.747374 0
M  V30 65 H -1.314255 3.068191 2.640879 0
M  V30 66 H -1.281133 2.314052 1.049423 0
M  V30 67 H 0.779683 1.840921 3.111186 0
M  V30 68 H 0.702029 1.473087 1.406476 0
M  V30 69 H 0.526217 -1.051192 2.291398 0
M  V30 70 H 0.999574 -0.374760 3.865523 0
M  V30 END ATOM
M  V30 BEGIN BOND
M  V30 1 1 1 2
M  V30 2 1 2 3
M  V30 3 1 3 4
M  V30 4 1 4 5
M  V30 5 1 5 6
M  V30 6 1 6 7
M  V30 7 1 7 8
M  V30 8 1 8 9
M  V30 9 1 9 10
M  V30 10 2 10 11
M  V30 11 1 11 12
M  V30 12 2 12 13
M  V30 13 1 13 14
M  V30 14 2 14 15
M  V30 15 1 15 16
M  V30 16 2 16 17
M  V30 17 1 11 18
M  V30 18 2 18 19
M  V30 19 1 19 20
M  V30 20 2 20 21
M  V30 21 1 20 22
M  V30 22 1 22 23
M  V30 23 2 23 24
M  V30 24 1 19 25
M  V30 25 2 25 26
M  V30 26 1 26 27
M  V30 27 1 27 28
M  V30 28 2 28 29
M  V30 29 1 29 30
M  V30 30 2 30 31
M  V30 31 1 31 32
M  V30 32 2 32 33
M  V30 33 1 27 34
M  V30 34 1 34 35
M  V30 35 1 35 36
M  V30 36 1 36 37
M  V30 37 1 37 38
M  V30 38 1 38 3
M  V30 39 1 17 9
M  V30 40 1 23 18
M  V30 41 1 33 25
M  V30 42 1 17 12
M  V30 43 1 33 28
M  V30 44 1 1 39
M  V30 45 1 1 40
M  V30 46 1 1 41
M  V30 47 1 2 42
M  V30 48 1 2 43
M  V30 49 1 4 44
M  V30 50 1 4 45
M  V30 51 1 5 46
M  V30 52 1 5 47
M  V30 53 1 7 48
M  V30 54 1 7 49
M  V30 55 1 8 50
M  V30 56 1 8 51
M  V30 57 1 10 52
M  V30 58 1 13 53
M  V30 59 1 14 54
M  V30 60 1 15 55
M  V30 61 1 16 56
M  V30 62 1 22 57
M  V30 63 1 26 58
M  V30 64 1 29 59
M  V30 65 1 30 60
M  V30 66 1 31 61
M  V30 67 1 32 62
M  V30 68 1 34 63
M  V30 69 1 34 64
M  V30 70 1 35 65
M  V30 71 1 35 66
M  V30 72 1 37 67
M  V30 73 1 37 68
M  V30 74 1 38 69
M  V30 75 1 38 70
M  V30 END BOND
M  V30 END CTAB
M  END
>  <Dataset>  (722) 
ChEMBL_Kinases

>  <Ligand_Instance>  (722) 
nan

>  <PDB_ID>  (722) 
nan

>  <Standardized_SMILES>  (722) 
CCN1CCOCCn2cc(c3ccccc32)C2=C(C(=O)NC2=O)c2cn(c3ccccc23)CCOCC1

>  <Name>  (722) 
nan

>  <Pocket>  (722) 
nan

>  <ATP_Site>  (722) 
nan

>  <Peripheral>  (722) 
nan

>  <Num_H_Atoms_ProtBoundConf>  (722) 
nan

>  <Num_Resolved_Atoms>  (722) 
nan

>  <Num_Not_Resolved_Atoms>  (722) 
nan

$$$$
CHEMBL2113964
     RDKit          3D

  0  0  0  0  0  0  0  0  0  0999 V3000
M  V30 BEGIN CTAB
M  V30 COUNTS 13 14 0 0 0
M  V30 BEGIN ATOM
M  V30 1 Cl -0.364642 -2.302840 2.959786 0
M  V30 2 C 0.834205 -1.867284 1.767829 0
M  V30 3 N 1.918874 -2.579506 1.424306 0
M  V30 4 C 2.720499 -2.060975 0.476293 0
M  V30 5 N 2.501000 -0.889211 -0.136853 0
M  V30 6 C 1.440718 -0.114491 0.146787 0
M  V30 7 C 1.176072 1.075684 -0.444574 0
M  V30 8 C -0.033087 1.747864 0.019303 0
M  V30 9 S -0.738078 0.573941 1.329930 0
M  V30 10 C 0.636549 -0.685446 1.131543 0
M  V30 11 H 3.622157 -2.613047 0.164167 0
M  V30 12 H 1.729422 1.587504 -1.201191 0
M  V30 13 H -0.401022 2.701512 -0.337177 0
M  V30 END ATOM
M  V30 BEGIN BOND
M  V30 1 1 1 2
M  V30 2 2 2 3
M  V30 3 1 3 4
M  V30 4 2 4 5
M  V30 5 1 5 6
M  V30 6 1 6 7
M  V30 7 2 7 8
M  V30 8 1 8 9
M  V30 9 1 9 10
M  V30 10 1 10 2
M  V30 11 2 10 6
M  V30 12 1 4 11
M  V30 13 1 7 12
M  V30 14 1 8 13
M  V30 END BOND
M  V30 END CTAB
M  END
>  <Dataset>  (723) 
ChEMBL_Kinases

>  <Ligand_Instance>  (723) 
nan

>  <PDB_ID>  (723) 
nan

>  <Standardized_SMILES>  (723) 
Clc1ncnc2ccsc12

>  <Name>  (723) 
nan

>  <Pocket>  (723) 
nan

>  <ATP_Site>  (723) 
nan

>  <Peripheral>  (723) 
nan

>  <Num_H_Atoms_ProtBoundConf>  (723) 
nan

>  <Num_Resolved_Atoms>  (723) 
nan

>  <Num_Not_Resolved_Atoms>  (723) 
nan

$$$$
CHEMBL2088590
     RDKit          3D

  0  0  0  0  0  0  0  0  0  0999 V3000
M  V30 BEGIN CTAB
M  V30 COUNTS 53 57 0 0 0
M  V30 BEGIN ATOM
M  V30 1 C 0.739931 -0.963903 5.474653 0
M  V30 2 O 0.284227 -0.369621 4.289006 0
M  V30 3 C 1.074802 0.162247 3.307730 0
M  V30 4 C 2.459526 0.159478 3.405470 0
M  V30 5 C 3.190748 0.725176 2.354518 0
M  V30 6 C 2.551104 1.267690 1.257184 0
M  V30 7 C 3.389909 1.836658 0.207427 0
M  V30 8 O 4.636944 1.795956 0.371528 0
M  V30 9 N 2.886302 2.426065 -0.973439 0
M  V30 10 C 3.761709 2.980762 -1.992790 0
M  V30 11 C 3.313803 4.064643 -2.887723 0
M  V30 12 C 3.300089 2.673479 -3.401446 0
M  V30 13 C 1.172530 1.263402 1.173550 0
M  V30 14 C 0.422403 0.708065 2.203108 0
M  V30 15 C -1.029056 0.704252 2.113644 0
M  V30 16 C -1.763517 1.764916 2.617089 0
M  V30 17 O -1.101638 2.706619 3.143216 0
M  V30 18 C -3.139449 1.721025 2.511553 0
M  V30 19 C -3.741988 0.632798 1.913347 0
M  V30 20 N -3.060959 -0.414570 1.413560 0
M  V30 21 N -3.659498 -1.453656 0.841172 0
M  V30 22 C -2.935290 -2.499982 0.344673 0
M  V30 23 O -3.792192 -3.445693 -0.195500 0
M  V30 24 C -3.274443 -4.607688 -0.742880 0
M  V30 25 C -3.507627 -4.837112 -2.063662 0
M  V30 26 C -3.049271 -5.962793 -2.747729 0
M  V30 27 C -2.309795 -6.900146 -2.023149 0
M  V30 28 F -1.828630 -8.028456 -2.630771 0
M  V30 29 C -2.054361 -6.694168 -0.670036 0
M  V30 30 C -2.537198 -5.554109 -0.043942 0
M  V30 31 F -2.305415 -5.332073 1.292061 0
M  V30 32 C -1.561940 -2.436235 0.459965 0
M  V30 33 C -0.957515 -1.374868 1.044361 0
M  V30 34 C -1.724203 -0.337322 1.533957 0
M  V30 35 H -0.107342 -1.450934 5.988118 0
M  V30 36 H 1.459125 -1.779827 5.222564 0
M  V30 37 H 1.297741 -0.256368 6.117633 0
M  V30 38 H 2.903973 -0.273816 4.277411 0
M  V30 39 H 4.260917 0.691371 2.491611 0
M  V30 40 H 1.874533 2.470762 -1.129387 0
M  V30 41 H 4.843812 2.908662 -1.778302 0
M  V30 42 H 4.101456 4.737746 -3.300286 0
M  V30 43 H 2.351701 4.595110 -2.718108 0
M  V30 44 H 4.093412 2.304869 -4.072526 0
M  V30 45 H 2.289629 2.232563 -3.559263 0
M  V30 46 H 0.670390 1.685820 0.318734 0
M  V30 47 H -3.700814 2.558040 2.910056 0
M  V30 48 H -4.823018 0.598559 1.830594 0
M  V30 49 H -4.074091 -4.142143 -2.666655 0
M  V30 50 H -3.240323 -6.137016 -3.801332 0
M  V30 51 H -1.488762 -7.389424 -0.070863 0
M  V30 52 H -1.095871 -3.311458 0.031021 0
M  V30 53 H 0.119558 -1.437337 1.076874 0
M  V30 END ATOM
M  V30 BEGIN BOND
M  V30 1 1 1 2
M  V30 2 1 2 3
M  V30 3 2 3 4
M  V30 4 1 4 5
M  V30 5 2 5 6
M  V30 6 1 6 7
M  V30 7 2 7 8
M  V30 8 1 7 9
M  V30 9 1 9 10
M  V30 10 1 10 11
M  V30 11 1 11 12
M  V30 12 1 6 13
M  V30 13 2 13 14
M  V30 14 1 14 15
M  V30 15 1 15 16
M  V30 16 2 16 17
M  V30 17 1 16 18
M  V30 18 2 18 19
M  V30 19 1 19 20
M  V30 20 1 20 21
M  V30 21 2 21 22
M  V30 22 1 22 23
M  V30 23 1 23 24
M  V30 24 2 24 25
M  V30 25 1 25 26
M  V30 26 2 26 27
M  V30 27 1 27 28
M  V30 28 1 27 29
M  V30 29 2 29 30
M  V30 30 1 30 31
M  V30 31 1 22 32
M  V30 32 2 32 33
M  V30 33 1 33 34
M  V30 34 1 14 3
M  V30 35 2 34 15
M  V30 36 1 12 10
M  V30 37 1 34 20
M  V30 38 1 30 24
M  V30 39 1 1 35
M  V30 40 1 1 36
M  V30 41 1 1 37
M  V30 42 1 4 38
M  V30 43 1 5 39
M  V30 44 1 9 40
M  V30 45 1 10 41
M  V30 46 1 11 42
M  V30 47 1 11 43
M  V30 48 1 12 44
M  V30 49 1 12 45
M  V30 50 1 13 46
M  V30 51 1 18 47
M  V30 52 1 19 48
M  V30 53 1 25 49
M  V30 54 1 26 50
M  V30 55 1 29 51
M  V30 56 1 32 52
M  V30 57 1 33 53
M  V30 END BOND
M  V30 END CTAB
M  END
>  <Dataset>  (724) 
ChEMBL_Kinases

>  <Ligand_Instance>  (724) 
nan

>  <PDB_ID>  (724) 
nan

>  <Standardized_SMILES>  (724) 
COc1ccc(C(=O)NC2CC2)cc1-c1c(=O)ccn2nc(Oc3ccc(F)cc3F)ccc12

>  <Name>  (724) 
nan

>  <Pocket>  (724) 
nan

>  <ATP_Site>  (724) 
nan

>  <Peripheral>  (724) 
nan

>  <Num_H_Atoms_ProtBoundConf>  (724) 
nan

>  <Num_Resolved_Atoms>  (724) 
nan

>  <Num_Not_Resolved_Atoms>  (724) 
nan

$$$$
CHEMBL1097839
     RDKit          3D

  0  0  0  0  0  0  0  0  0  0999 V3000
M  V30 BEGIN CTAB
M  V30 COUNTS 65 69 0 0 0
M  V30 BEGIN ATOM
M  V30 1 C 6.161207 -3.073964 1.690288 0
M  V30 2 C 5.748282 -2.097500 2.798404 0
M  V30 3 N 4.546894 -1.442481 2.291823 0
M  V30 4 C 4.582232 -0.300605 1.561508 0
M  V30 5 C 3.239752 -0.050500 1.303623 0
M  V30 6 C 2.802888 1.106585 0.528737 0
M  V30 7 C 3.112806 2.334616 1.079691 0
M  V30 8 C 2.748264 3.518596 0.432214 0
M  V30 9 N 2.079615 3.460053 -0.756051 0
M  V30 10 C 1.773998 2.259974 -1.299529 0
M  V30 11 N 1.134955 1.862365 -2.436149 0
M  V30 12 C 1.094994 0.518331 -2.508100 0
M  V30 13 C 0.457966 -0.206723 -3.641649 0
M  V30 14 N 1.401575 -0.465056 -4.710502 0
M  V30 15 C 1.920832 0.816432 -5.206777 0
M  V30 16 C 0.648894 -1.045545 -5.810504 0
M  V30 17 C 1.719698 -0.026245 -1.397506 0
M  V30 18 C 2.124997 1.078120 -0.676028 0
M  V30 19 C 2.438614 -1.024969 1.871033 0
M  V30 20 C 0.974377 -1.058647 1.786835 0
M  V30 21 C 0.289507 -2.103815 1.194669 0
M  V30 22 C -1.091369 -2.065161 1.152552 0
M  V30 23 C -1.753933 -0.965323 1.712673 0
M  V30 24 N -3.172596 -0.911249 1.676441 0
M  V30 25 C -4.307042 -1.278189 2.413089 0
M  V30 26 O -4.105186 -1.862623 3.494069 0
M  V30 27 N -5.577380 -0.952209 1.863492 0
M  V30 28 C -6.677032 -1.365624 2.685431 0
M  V30 29 C -7.266863 -2.606462 2.557674 0
M  V30 30 C -8.308700 -2.850336 3.417732 0
M  V30 31 C -8.773319 -1.942608 4.367942 0
M  V30 32 C -8.137315 -0.703599 4.450567 0
M  V30 33 C -7.081507 -0.417137 3.600831 0
M  V30 34 C -1.031545 0.057140 2.294371 0
M  V30 35 C 0.352016 0.058597 2.358170 0
M  V30 36 N 3.300491 -1.865483 2.472993 0
M  V30 37 H 5.888260 -2.636507 0.708158 0
M  V30 38 H 7.262388 -3.148112 1.711499 0
M  V30 39 H 5.692040 -4.067729 1.832530 0
M  V30 40 H 6.569664 -1.362756 2.914724 0
M  V30 41 H 5.593439 -2.614200 3.748076 0
M  V30 42 H 5.465681 0.251272 1.271185 0
M  V30 43 H 3.640781 2.502378 2.017910 0
M  V30 44 H 2.983748 4.505494 0.850951 0
M  V30 45 H 0.769764 2.602323 -3.084881 0
M  V30 46 H 0.128852 -1.213354 -3.277118 0
M  V30 47 H -0.460945 0.309706 -3.996631 0
M  V30 48 H 2.280091 0.610450 -6.256566 0
M  V30 49 H 2.757897 1.108869 -4.550757 0
M  V30 50 H 1.078472 1.514561 -5.201310 0
M  V30 51 H -0.455314 -1.096733 -5.593538 0
M  V30 52 H 0.989717 -2.080471 -6.035934 0
M  V30 53 H 0.727859 -0.460117 -6.752985 0
M  V30 54 H 1.851610 -1.058016 -1.163720 0
M  V30 55 H 0.911702 -2.904512 0.793211 0
M  V30 56 H -1.605036 -2.885747 0.688670 0
M  V30 57 H -3.258266 -0.410112 0.745395 0
M  V30 58 H -5.716014 -0.462754 0.956722 0
M  V30 59 H -6.912777 -3.305672 1.829438 0
M  V30 60 H -8.826304 -3.794408 3.386289 0
M  V30 61 H -9.615477 -2.220519 5.018117 0
M  V30 62 H -8.505560 -0.002379 5.193449 0
M  V30 63 H -6.616922 0.553080 3.697473 0
M  V30 64 H -1.570351 0.911060 2.728033 0
M  V30 65 H 0.898869 0.858346 2.812347 0
M  V30 END ATOM
M  V30 BEGIN BOND
M  V30 1 1 1 2
M  V30 2 1 2 3
M  V30 3 1 3 4
M  V30 4 2 4 5
M  V30 5 1 5 6
M  V30 6 2 6 7
M  V30 7 1 7 8
M  V30 8 2 8 9
M  V30 9 1 9 10
M  V30 10 1 10 11
M  V30 11 1 11 12
M  V30 12 1 12 13
M  V30 13 1 13 14
M  V30 14 1 14 15
M  V30 15 1 14 16
M  V30 16 2 12 17
M  V30 17 1 17 18
M  V30 18 1 5 19
M  V30 19 1 19 20
M  V30 20 2 20 21
M  V30 21 1 21 22
M  V30 22 2 22 23
M  V30 23 1 23 24
M  V30 24 1 24 25
M  V30 25 2 25 26
M  V30 26 1 25 27
M  V30 27 1 27 28
M  V30 28 2 28 29
M  V30 29 1 29 30
M  V30 30 2 30 31
M  V30 31 1 31 32
M  V30 32 2 32 33
M  V30 33 1 23 34
M  V30 34 2 34 35
M  V30 35 2 19 36
M  V30 36 1 36 3
M  V30 37 1 18 6
M  V30 38 1 35 20
M  V30 39 2 18 10
M  V30 40 1 33 28
M  V30 41 1 1 37
M  V30 42 1 1 38
M  V30 43 1 1 39
M  V30 44 1 2 40
M  V30 45 1 2 41
M  V30 46 1 4 42
M  V30 47 1 7 43
M  V30 48 1 8 44
M  V30 49 1 11 45
M  V30 50 1 13 46
M  V30 51 1 13 47
M  V30 52 1 15 48
M  V30 53 1 15 49
M  V30 54 1 15 50
M  V30 55 1 16 51
M  V30 56 1 16 52
M  V30 57 1 16 53
M  V30 58 1 17 54
M  V30 59 1 21 55
M  V30 60 1 22 56
M  V30 61 1 24 57
M  V30 62 1 27 58
M  V30 63 1 29 59
M  V30 64 1 30 60
M  V30 65 1 31 61
M  V30 66 1 32 62
M  V30 67 1 33 63
M  V30 68 1 34 64
M  V30 69 1 35 65
M  V30 END BOND
M  V30 END CTAB
M  END
>  <Dataset>  (725) 
ChEMBL_Kinases

>  <Ligand_Instance>  (725) 
nan

>  <PDB_ID>  (725) 
nan

>  <Standardized_SMILES>  (725) 
CCn1cc(-c2ccnc3[nH]c(CN(C)C)cc23)c(-c2ccc(NC(=O)Nc3ccccc3)cc2)n1

>  <Name>  (725) 
nan

>  <Pocket>  (725) 
nan

>  <ATP_Site>  (725) 
nan

>  <Peripheral>  (725) 
nan

>  <Num_H_Atoms_ProtBoundConf>  (725) 
nan

>  <Num_Resolved_Atoms>  (725) 
nan

>  <Num_Not_Resolved_Atoms>  (725) 
nan

$$$$
CHEMBL2088659
     RDKit          3D

  0  0  0  0  0  0  0  0  0  0999 V3000
M  V30 BEGIN CTAB
M  V30 COUNTS 28 30 0 0 0
M  V30 BEGIN ATOM
M  V30 1 C -1.694494 -2.490063 3.702731 0
M  V30 2 O -0.387863 -3.000225 3.419602 0
M  V30 3 C 0.387576 -2.413134 2.405705 0
M  V30 4 C 1.638171 -2.969237 2.199176 0
M  V30 5 C 2.435703 -2.417627 1.206020 0
M  V30 6 C 1.973587 -1.347835 0.460754 0
M  V30 7 N 2.520474 -0.630465 -0.542574 0
M  V30 8 C 1.690831 0.327719 -0.965679 0
M  V30 9 C 1.755190 1.306801 -1.934094 0
M  V30 10 O 2.769004 1.432123 -2.649132 0
M  V30 11 N 0.693738 2.119777 -2.082883 0
M  V30 12 N -0.400571 2.024360 -1.348967 0
M  V30 13 C -0.532714 1.103201 -0.395772 0
M  V30 14 C -1.790576 1.047801 0.395896 0
M  V30 15 C 0.523386 0.248647 -0.204302 0
M  V30 16 C 0.736883 -0.787952 0.655520 0
M  V30 17 C -0.054223 -1.332864 1.638542 0
M  V30 18 H -2.414377 -2.732549 2.912579 0
M  V30 19 H -1.672923 -1.396273 3.872674 0
M  V30 20 H -2.043733 -2.968265 4.635440 0
M  V30 21 H 2.038043 -3.797536 2.751463 0
M  V30 22 H 3.413661 -2.836070 1.028906 0
M  V30 23 H 3.455911 -0.777529 -0.952647 0
M  V30 24 H 0.665361 2.887890 -2.796249 0
M  V30 25 H -1.619268 1.244745 1.484847 0
M  V30 26 H -2.518483 1.826382 0.025097 0
M  V30 27 H -2.333376 0.093654 0.266965 0
M  V30 28 H -1.029315 -1.018461 1.912989 0
M  V30 END ATOM
M  V30 BEGIN BOND
M  V30 1 1 1 2
M  V30 2 1 2 3
M  V30 3 2 3 4
M  V30 4 1 4 5
M  V30 5 2 5 6
M  V30 6 1 6 7
M  V30 7 1 7 8
M  V30 8 1 8 9
M  V30 9 2 9 10
M  V30 10 1 9 11
M  V30 11 1 11 12
M  V30 12 2 12 13
M  V30 13 1 13 14
M  V30 14 1 13 15
M  V30 15 1 15 16
M  V30 16 2 16 17
M  V30 17 1 17 3
M  V30 18 1 16 6
M  V30 19 2 15 8
M  V30 20 1 1 18
M  V30 21 1 1 19
M  V30 22 1 1 20
M  V30 23 1 4 21
M  V30 24 1 5 22
M  V30 25 1 7 23
M  V30 26 1 11 24
M  V30 27 1 14 25
M  V30 28 1 14 26
M  V30 29 1 14 27
M  V30 30 1 17 28
M  V30 END BOND
M  V30 END CTAB
M  END
>  <Dataset>  (726) 
ChEMBL_Kinases

>  <Ligand_Instance>  (726) 
nan

>  <PDB_ID>  (726) 
nan

>  <Standardized_SMILES>  (726) 
COc1ccc2[nH]c3c(=O)[nH]nc(C)c3c2c1

>  <Name>  (726) 
nan

>  <Pocket>  (726) 
nan

>  <ATP_Site>  (726) 
nan

>  <Peripheral>  (726) 
nan

>  <Num_H_Atoms_ProtBoundConf>  (726) 
nan

>  <Num_Resolved_Atoms>  (726) 
nan

>  <Num_Not_Resolved_Atoms>  (726) 
nan

$$$$
CHEMBL209192
     RDKit          3D

  0  0  0  0  0  0  0  0  0  0999 V3000
M  V30 BEGIN CTAB
M  V30 COUNTS 41 42 0 0 0
M  V30 BEGIN ATOM
M  V30 1 C 0.328835 -6.590899 3.209977 0
M  V30 2 C 1.034069 -5.177314 3.186599 0
M  V30 3 O 0.629933 -4.467426 2.167236 0
M  V30 4 C 0.253077 -3.712202 1.162126 0
M  V30 5 N 0.719894 -2.501828 1.228778 0
M  V30 6 C 0.351483 -1.589520 0.199551 0
M  V30 7 N 0.372326 -0.304672 -0.436264 0
M  V30 8 C -0.559902 0.654032 0.103204 0
M  V30 9 O -1.023930 -0.046848 1.021813 0
M  V30 10 C -0.542856 1.960895 -0.624934 0
M  V30 11 C 0.132291 3.029839 0.109135 0
M  V30 12 C 1.446241 3.275804 -0.369909 0
M  V30 13 C 2.158336 4.258931 0.298069 0
M  V30 14 C 1.757979 5.010951 1.344884 0
M  V30 15 C 2.782660 5.991363 1.883368 0
M  V30 16 C 0.448894 4.780377 1.836751 0
M  V30 17 C -0.284768 3.785879 1.168676 0
M  V30 18 C -0.479678 -2.354318 -0.662207 0
M  V30 19 C -0.959465 -3.675744 -0.687164 0
M  V30 20 N -2.010312 -3.912380 -1.680526 0
M  V30 21 C -0.545005 -4.468579 0.343298 0
M  V30 22 C -0.906431 -5.822226 0.321075 0
M  V30 23 N -1.198082 -6.903057 0.324164 0
M  V30 24 H -0.765908 -6.334637 3.133092 0
M  V30 25 H 0.489393 -7.016076 4.198703 0
M  V30 26 H 0.703342 -7.223846 2.437814 0
M  V30 27 H 2.146017 -5.398582 3.308716 0
M  V30 28 H 0.750634 -4.763123 4.165262 0
M  V30 29 H 1.097941 -0.295822 -1.212721 0
M  V30 30 H -1.605782 2.248646 -0.851507 0
M  V30 31 H -0.066526 1.834186 -1.596002 0
M  V30 32 H 1.887191 2.739583 -1.200854 0
M  V30 33 H 3.165715 4.410254 -0.112403 0
M  V30 34 H 2.499911 6.415134 2.841564 0
M  V30 35 H 2.982383 6.709450 1.075594 0
M  V30 36 H 3.727080 5.370009 1.981101 0
M  V30 37 H 0.119826 5.371599 2.664786 0
M  V30 38 H -1.293185 3.630742 1.522913 0
M  V30 39 H -0.873377 -1.823754 -1.556663 0
M  V30 40 H -2.876964 -4.204400 -1.104809 0
M  V30 41 H -2.440448 -3.986466 -2.587203 0
M  V30 END ATOM
M  V30 BEGIN BOND
M  V30 1 1 1 2
M  V30 2 1 2 3
M  V30 3 1 3 4
M  V30 4 2 4 5
M  V30 5 1 5 6
M  V30 6 1 6 7
M  V30 7 1 7 8
M  V30 8 2 8 9
M  V30 9 1 8 10
M  V30 10 1 10 11
M  V30 11 2 11 12
M  V30 12 1 12 13
M  V30 13 2 13 14
M  V30 14 1 14 15
M  V30 15 1 14 16
M  V30 16 2 16 17
M  V30 17 2 6 18
M  V30 18 1 18 19
M  V30 19 1 19 20
M  V30 20 2 19 21
M  V30 21 1 21 22
M  V30 22 3 22 23
M  V30 23 1 21 4
M  V30 24 1 17 11
M  V30 25 1 1 24
M  V30 26 1 1 25
M  V30 27 1 1 26
M  V30 28 1 2 27
M  V30 29 1 2 28
M  V30 30 1 7 29
M  V30 31 1 10 30
M  V30 32 1 10 31
M  V30 33 1 12 32
M  V30 34 1 13 33
M  V30 35 1 15 34
M  V30 36 1 15 35
M  V30 37 1 15 36
M  V30 38 1 16 37
M  V30 39 1 17 38
M  V30 40 1 18 39
M  V30 41 1 20 40
M  V30 42 1 20 41
M  V30 END BOND
M  V30 END CTAB
M  END
>  <Dataset>  (727) 
ChEMBL_Kinases

>  <Ligand_Instance>  (727) 
nan

>  <PDB_ID>  (727) 
nan

>  <Standardized_SMILES>  (727) 
CCOc1nc(NC(=O)Cc2ccc(C)cc2)cc(N)c1C#N

>  <Name>  (727) 
nan

>  <Pocket>  (727) 
nan

>  <ATP_Site>  (727) 
nan

>  <Peripheral>  (727) 
nan

>  <Num_H_Atoms_ProtBoundConf>  (727) 
nan

>  <Num_Resolved_Atoms>  (727) 
nan

>  <Num_Not_Resolved_Atoms>  (727) 
nan

$$$$
CHEMBL2064520
     RDKit          3D

  0  0  0  0  0  0  0  0  0  0999 V3000
M  V30 BEGIN CTAB
M  V30 COUNTS 43 46 0 0 0
M  V30 BEGIN ATOM
M  V30 1 C 0.810719 -5.003585 2.532138 0
M  V30 2 O 0.459695 -4.236377 1.402953 0
M  V30 3 C 1.161133 -4.222686 0.206370 0
M  V30 4 O 2.215483 -4.886901 -0.063914 0
M  V30 5 C 0.682211 -3.373115 -0.892426 0
M  V30 6 C 1.340141 -3.324277 -2.095530 0
M  V30 7 C 0.946665 -2.550348 -3.167529 0
M  V30 8 C -0.191976 -1.767372 -3.020010 0
M  V30 9 C -0.747016 -0.870129 -4.095261 0
M  V30 10 S -0.017733 0.787002 -3.966725 0
M  V30 11 C -0.602746 1.478202 -2.419920 0
M  V30 12 N -1.650468 2.216542 -1.952487 0
M  V30 13 N -1.475978 2.391905 -0.654302 0
M  V30 14 C -0.351804 1.788813 -0.283548 0
M  V30 15 C 0.234370 1.725540 1.068273 0
M  V30 16 C 1.420636 1.040282 1.246360 0
M  V30 17 C 2.020734 0.943937 2.485208 0
M  V30 18 C 1.404298 1.556758 3.571205 0
M  V30 19 C 0.222160 2.226465 3.332869 0
M  V30 20 C -0.410247 2.347206 2.115067 0
M  V30 21 O -0.317532 2.806281 4.481507 0
M  V30 22 C -0.104068 2.280212 5.775367 0
M  V30 23 C 1.290713 1.800470 6.024626 0
M  V30 24 O 1.976589 1.481145 4.828308 0
M  V30 25 O 0.156394 1.246521 -1.359385 0
M  V30 26 C -0.853414 -1.819896 -1.803101 0
M  V30 27 C -0.465882 -2.591441 -0.726641 0
M  V30 28 H 1.228773 -4.309564 3.309167 0
M  V30 29 H -0.060815 -5.506684 3.017782 0
M  V30 30 H 1.614996 -5.706696 2.241273 0
M  V30 31 H 2.247185 -3.926639 -2.259685 0
M  V30 32 H 1.456773 -2.504144 -4.119069 0
M  V30 33 H -0.552252 -1.284949 -5.096533 0
M  V30 34 H -1.842304 -0.782160 -3.928806 0
M  V30 35 H 1.872731 0.572721 0.367472 0
M  V30 36 H 2.949809 0.397178 2.576561 0
M  V30 37 H -1.337468 2.889527 2.005815 0
M  V30 38 H -0.348584 3.093456 6.492886 0
M  V30 39 H -0.801066 1.449943 6.019718 0
M  V30 40 H 1.865538 2.651851 6.480472 0
M  V30 41 H 1.308761 0.910896 6.686768 0
M  V30 42 H -1.755905 -1.203830 -1.677713 0
M  V30 43 H -1.024283 -2.591441 0.203213 0
M  V30 END ATOM
M  V30 BEGIN BOND
M  V30 1 1 1 2
M  V30 2 1 2 3
M  V30 3 2 3 4
M  V30 4 1 3 5
M  V30 5 2 5 6
M  V30 6 1 6 7
M  V30 7 2 7 8
M  V30 8 1 8 9
M  V30 9 1 9 10
M  V30 10 1 10 11
M  V30 11 2 11 12
M  V30 12 1 12 13
M  V30 13 2 13 14
M  V30 14 1 14 15
M  V30 15 2 15 16
M  V30 16 1 16 17
M  V30 17 2 17 18
M  V30 18 1 18 19
M  V30 19 2 19 20
M  V30 20 1 19 21
M  V30 21 1 21 22
M  V30 22 1 22 23
M  V30 23 1 23 24
M  V30 24 1 14 25
M  V30 25 1 8 26
M  V30 26 2 26 27
M  V30 27 1 27 5
M  V30 28 1 25 11
M  V30 29 1 20 15
M  V30 30 1 24 18
M  V30 31 1 1 28
M  V30 32 1 1 29
M  V30 33 1 1 30
M  V30 34 1 6 31
M  V30 35 1 7 32
M  V30 36 1 9 33
M  V30 37 1 9 34
M  V30 38 1 16 35
M  V30 39 1 17 36
M  V30 40 1 20 37
M  V30 41 1 22 38
M  V30 42 1 22 39
M  V30 43 1 23 40
M  V30 44 1 23 41
M  V30 45 1 26 42
M  V30 46 1 27 43
M  V30 END BOND
M  V30 END CTAB
M  END
>  <Dataset>  (728) 
ChEMBL_Kinases

>  <Ligand_Instance>  (728) 
nan

>  <PDB_ID>  (728) 
nan

>  <Standardized_SMILES>  (728) 
COC(=O)c1ccc(CSc2nnc(-c3ccc4c(c3)OCCO4)o2)cc1

>  <Name>  (728) 
nan

>  <Pocket>  (728) 
nan

>  <ATP_Site>  (728) 
nan

>  <Peripheral>  (728) 
nan

>  <Num_H_Atoms_ProtBoundConf>  (728) 
nan

>  <Num_Resolved_Atoms>  (728) 
nan

>  <Num_Not_Resolved_Atoms>  (728) 
nan

$$$$
CHEMBL4640042
     RDKit          3D

  0  0  0  0  0  0  0  0  0  0999 V3000
M  V30 BEGIN CTAB
M  V30 COUNTS 46 49 0 0 0
M  V30 BEGIN ATOM
M  V30 1 N -0.378827 -6.889077 1.802085 0
M  V30 2 C 0.273225 -5.633135 2.024061 0
M  V30 3 C 1.448623 -5.509710 2.732283 0
M  V30 4 C 1.974045 -4.241226 2.873919 0
M  V30 5 C 1.383564 -3.104715 2.345279 0
M  V30 6 C 0.198767 -3.268006 1.636996 0
M  V30 7 C -0.477165 -2.115866 1.052250 0
M  V30 8 C 0.196063 -1.007257 0.583605 0
M  V30 9 C -0.390045 0.104306 0.025168 0
M  V30 10 N 0.340169 1.225970 -0.431070 0
M  V30 11 C 1.780385 1.452869 -0.364566 0
M  V30 12 C 2.216691 2.681863 -1.125428 0
M  V30 13 C 2.439565 3.842269 -0.199766 0
M  V30 14 C 1.416194 3.877285 0.887511 0
M  V30 15 N 1.475559 2.706154 1.714464 0
M  V30 16 C 2.247345 1.679893 1.075578 0
M  V30 17 C -1.757643 0.100904 -0.069837 0
M  V30 18 C -2.514176 1.120962 -0.597430 0
M  V30 19 C -3.888663 1.124641 -0.695611 0
M  V30 20 N -4.540450 0.020278 -0.227541 0
M  V30 21 C -3.856044 -1.010878 0.300220 0
M  V30 22 C -2.473518 -1.005061 0.394351 0
M  V30 23 C -1.849210 -2.100571 0.948405 0
M  V30 24 C -0.357099 -4.519868 1.474216 0
M  V30 25 H -0.771823 -7.142269 2.734515 0
M  V30 26 H -0.512860 -7.517996 0.972034 0
M  V30 27 H 1.918276 -6.392299 3.149626 0
M  V30 28 H 2.894754 -4.112400 3.424281 0
M  V30 29 H 1.816869 -2.109794 2.469462 0
M  V30 30 H 1.266287 -1.092420 0.686458 0
M  V30 31 H -0.129248 2.030337 -0.883571 0
M  V30 32 H 2.321431 0.576162 -0.763025 0
M  V30 33 H 3.176949 2.462657 -1.651735 0
M  V30 34 H 1.429483 2.983868 -1.844984 0
M  V30 35 H 3.498384 3.911135 0.184728 0
M  V30 36 H 2.308082 4.817489 -0.762945 0
M  V30 37 H 1.558190 4.775828 1.556860 0
M  V30 38 H 0.422687 3.958177 0.404850 0
M  V30 39 H 1.823594 2.872041 2.661724 0
M  V30 40 H 2.291404 0.763042 1.647288 0
M  V30 41 H 3.303999 2.066165 0.973431 0
M  V30 42 H -2.048362 2.004130 -0.975304 0
M  V30 43 H -4.444079 1.950256 -1.118904 0
M  V30 44 H -4.414095 -1.867916 0.659813 0
M  V30 45 H -2.453983 -2.914610 1.285107 0
M  V30 46 H -1.274999 -4.600074 0.919050 0
M  V30 END ATOM
M  V30 BEGIN BOND
M  V30 1 1 1 2
M  V30 2 2 2 3
M  V30 3 1 3 4
M  V30 4 2 4 5
M  V30 5 1 5 6
M  V30 6 1 6 7
M  V30 7 2 7 8
M  V30 8 1 8 9
M  V30 9 1 9 10
M  V30 10 1 10 11
M  V30 11 1 11 12
M  V30 12 1 12 13
M  V30 13 1 13 14
M  V30 14 1 14 15
M  V30 15 1 15 16
M  V30 16 2 9 17
M  V30 17 1 17 18
M  V30 18 2 18 19
M  V30 19 1 19 20
M  V30 20 2 20 21
M  V30 21 1 21 22
M  V30 22 2 22 23
M  V30 23 2 6 24
M  V30 24 1 24 2
M  V30 25 1 23 7
M  V30 26 1 16 11
M  V30 27 1 22 17
M  V30 28 1 1 25
M  V30 29 1 1 26
M  V30 30 1 3 27
M  V30 31 1 4 28
M  V30 32 1 5 29
M  V30 33 1 8 30
M  V30 34 1 10 31
M  V30 35 1 11 32
M  V30 36 1 12 33
M  V30 37 1 12 34
M  V30 38 1 13 35
M  V30 39 1 13 36
M  V30 40 1 14 37
M  V30 41 1 14 38
M  V30 42 1 15 39
M  V30 43 1 16 40
M  V30 44 1 16 41
M  V30 45 1 18 42
M  V30 46 1 19 43
M  V30 47 1 21 44
M  V30 48 1 23 45
M  V30 49 1 24 46
M  V30 END BOND
M  V30 END CTAB
M  END
>  <Dataset>  (729) 
ChEMBL_Kinases

>  <Ligand_Instance>  (729) 
nan

>  <PDB_ID>  (729) 
nan

>  <Standardized_SMILES>  (729) 
Nc1cccc(-c2cc(NC3CCCNC3)c3ccncc3c2)c1

>  <Name>  (729) 
nan

>  <Pocket>  (729) 
nan

>  <ATP_Site>  (729) 
nan

>  <Peripheral>  (729) 
nan

>  <Num_H_Atoms_ProtBoundConf>  (729) 
nan

>  <Num_Resolved_Atoms>  (729) 
nan

>  <Num_Not_Resolved_Atoms>  (729) 
nan

$$$$
CHEMBL575461
     RDKit          3D

  0  0  0  0  0  0  0  0  0  0999 V3000
M  V30 BEGIN CTAB
M  V30 COUNTS 40 43 0 0 0
M  V30 BEGIN ATOM
M  V30 1 C 0.412999 -5.464714 -0.066214 0
M  V30 2 N 0.902137 -4.723656 1.045946 0
M  V30 3 C -0.108932 -4.225163 1.909041 0
M  V30 4 C 2.009665 -3.870006 0.776958 0
M  V30 5 C 1.704655 -2.821917 -0.265458 0
M  V30 6 N 1.221319 -1.648144 0.107773 0
M  V30 7 C 0.918719 -0.649544 -0.752978 0
M  V30 8 C 1.169733 -1.009212 -1.984167 0
M  V30 9 S 0.693818 0.475036 -2.970832 0
M  V30 10 C 0.209338 1.403289 -1.563018 0
M  V30 11 C -0.290554 2.700470 -1.511799 0
M  V30 12 C -0.615517 3.259224 -0.298921 0
M  V30 13 C -0.403122 2.441154 0.785384 0
M  V30 14 C -0.750462 3.031428 2.103317 0
M  V30 15 C -0.067815 2.680221 3.247810 0
M  V30 16 C -0.319966 3.173289 4.506116 0
M  V30 17 C -1.368204 4.101032 4.545704 0
M  V30 18 N -2.075369 4.482990 3.443755 0
M  V30 19 C -1.782082 3.960472 2.216210 0
M  V30 20 C 0.089320 1.160245 0.747417 0
M  V30 21 C 0.416939 0.602391 -0.497694 0
M  V30 22 C 1.681948 -2.232936 -2.464141 0
M  V30 23 O 1.854304 -2.390945 -3.678851 0
M  V30 24 N 1.953386 -3.165560 -1.538646 0
M  V30 25 H -0.358342 -6.172729 0.277498 0
M  V30 26 H -0.104340 -4.754047 -0.768974 0
M  V30 27 H 1.256715 -5.946904 -0.590012 0
M  V30 28 H 0.292246 -3.591301 2.694303 0
M  V30 29 H -0.803956 -3.581024 1.300243 0
M  V30 30 H -0.716708 -5.072633 2.269203 0
M  V30 31 H 2.885302 -4.451520 0.452226 0
M  V30 32 H 2.252861 -3.314702 1.701898 0
M  V30 33 H -0.406573 3.229075 -2.442784 0
M  V30 34 H -1.003752 4.261884 -0.238540 0
M  V30 35 H 0.733232 1.959338 3.161405 0
M  V30 36 H 0.199521 2.909732 5.394197 0
M  V30 37 H -1.661770 4.564050 5.497305 0
M  V30 38 H -2.347206 4.268048 1.347232 0
M  V30 39 H 0.199900 0.639222 1.703992 0
M  V30 40 H 2.330093 -4.064377 -1.896078 0
M  V30 END ATOM
M  V30 BEGIN BOND
M  V30 1 1 1 2
M  V30 2 1 2 3
M  V30 3 1 2 4
M  V30 4 1 4 5
M  V30 5 2 5 6
M  V30 6 1 6 7
M  V30 7 2 7 8
M  V30 8 1 8 9
M  V30 9 1 9 10
M  V30 10 2 10 11
M  V30 11 1 11 12
M  V30 12 2 12 13
M  V30 13 1 13 14
M  V30 14 2 14 15
M  V30 15 1 15 16
M  V30 16 2 16 17
M  V30 17 1 17 18
M  V30 18 2 18 19
M  V30 19 1 13 20
M  V30 20 2 20 21
M  V30 21 1 8 22
M  V30 22 2 22 23
M  V30 23 1 22 24
M  V30 24 1 24 5
M  V30 25 1 21 7
M  V30 26 1 21 10
M  V30 27 1 19 14
M  V30 28 1 1 25
M  V30 29 1 1 26
M  V30 30 1 1 27
M  V30 31 1 3 28
M  V30 32 1 3 29
M  V30 33 1 3 30
M  V30 34 1 4 31
M  V30 35 1 4 32
M  V30 36 1 11 33
M  V30 37 1 12 34
M  V30 38 1 15 35
M  V30 39 1 16 36
M  V30 40 1 17 37
M  V30 41 1 19 38
M  V30 42 1 20 39
M  V30 43 1 24 40
M  V30 END BOND
M  V30 END CTAB
M  END
>  <Dataset>  (730) 
ChEMBL_Kinases

>  <Ligand_Instance>  (730) 
nan

>  <PDB_ID>  (730) 
nan

>  <Standardized_SMILES>  (730) 
CN(C)Cc1nc2c(sc3ccc(-c4cccnc4)cc32)c(=O)[nH]1

>  <Name>  (730) 
nan

>  <Pocket>  (730) 
nan

>  <ATP_Site>  (730) 
nan

>  <Peripheral>  (730) 
nan

>  <Num_H_Atoms_ProtBoundConf>  (730) 
nan

>  <Num_Resolved_Atoms>  (730) 
nan

>  <Num_Not_Resolved_Atoms>  (730) 
nan

$$$$
CHEMBL2064519
     RDKit          3D

  0  0  0  0  0  0  0  0  0  0999 V3000
M  V30 BEGIN CTAB
M  V30 COUNTS 38 41 0 0 0
M  V30 BEGIN ATOM
M  V30 1 N -0.607251 -5.102532 3.118612 0
M  V30 2 C 0.309496 -4.484923 2.788939 0
M  V30 3 C 1.455611 -3.718472 2.353279 0
M  V30 4 C 2.427702 -4.335558 1.589262 0
M  V30 5 C 3.507319 -3.575282 1.191174 0
M  V30 6 C 3.686718 -2.242222 1.501149 0
M  V30 7 C 4.893154 -1.488573 1.025877 0
M  V30 8 S 4.593947 -0.727436 -0.589382 0
M  V30 9 C 3.323010 0.525577 -0.298494 0
M  V30 10 N 3.448388 1.825613 0.041889 0
M  V30 11 N 2.223477 2.315836 0.136551 0
M  V30 12 C 1.330739 1.344441 -0.139096 0
M  V30 13 C -0.111485 1.562067 -0.121125 0
M  V30 14 C -0.669019 2.809865 0.186924 0
M  V30 15 C -2.035949 2.981862 0.194116 0
M  V30 16 C -2.905867 1.958651 -0.094793 0
M  V30 17 C -2.397701 0.697152 -0.407950 0
M  V30 18 C -1.025444 0.573307 -0.402510 0
M  V30 19 O -3.228036 -0.375509 -0.708794 0
M  V30 20 C -4.623598 -0.330577 -0.540959 0
M  V30 21 C -5.064467 0.882478 0.251467 0
M  V30 22 O -4.299105 2.033149 -0.113105 0
M  V30 23 O 2.048245 0.277042 -0.396818 0
M  V30 24 C 2.698220 -1.625553 2.274704 0
M  V30 25 C 1.625362 -2.392817 2.666528 0
M  V30 26 H 2.383693 -5.388629 1.286694 0
M  V30 27 H 4.276666 -4.074764 0.582875 0
M  V30 28 H 5.068193 -0.682697 1.796668 0
M  V30 29 H 5.803970 -2.110941 1.048422 0
M  V30 30 H -0.022822 3.631523 0.418198 0
M  V30 31 H -2.473279 3.936664 0.429258 0
M  V30 32 H -0.600544 -0.395141 -0.641810 0
M  V30 33 H -5.006841 -1.214969 0.015418 0
M  V30 34 H -5.128706 -0.284716 -1.530024 0
M  V30 35 H -6.126046 1.082597 0.017157 0
M  V30 36 H -4.973276 0.738777 1.337336 0
M  V30 37 H 2.795049 -0.567690 2.546259 0
M  V30 38 H 0.875198 -1.878734 3.268284 0
M  V30 END ATOM
M  V30 BEGIN BOND
M  V30 1 3 1 2
M  V30 2 1 2 3
M  V30 3 2 3 4
M  V30 4 1 4 5
M  V30 5 2 5 6
M  V30 6 1 6 7
M  V30 7 1 7 8
M  V30 8 1 8 9
M  V30 9 2 9 10
M  V30 10 1 10 11
M  V30 11 2 11 12
M  V30 12 1 12 13
M  V30 13 2 13 14
M  V30 14 1 14 15
M  V30 15 2 15 16
M  V30 16 1 16 17
M  V30 17 2 17 18
M  V30 18 1 17 19
M  V30 19 1 19 20
M  V30 20 1 20 21
M  V30 21 1 21 22
M  V30 22 1 12 23
M  V30 23 1 6 24
M  V30 24 2 24 25
M  V30 25 1 25 3
M  V30 26 1 23 9
M  V30 27 1 18 13
M  V30 28 1 22 16
M  V30 29 1 4 26
M  V30 30 1 5 27
M  V30 31 1 7 28
M  V30 32 1 7 29
M  V30 33 1 14 30
M  V30 34 1 15 31
M  V30 35 1 18 32
M  V30 36 1 20 33
M  V30 37 1 20 34
M  V30 38 1 21 35
M  V30 39 1 21 36
M  V30 40 1 24 37
M  V30 41 1 25 38
M  V30 END BOND
M  V30 END CTAB
M  END
>  <Dataset>  (731) 
ChEMBL_Kinases

>  <Ligand_Instance>  (731) 
nan

>  <PDB_ID>  (731) 
nan

>  <Standardized_SMILES>  (731) 
N#Cc1ccc(CSc2nnc(-c3ccc4c(c3)OCCO4)o2)cc1

>  <Name>  (731) 
nan

>  <Pocket>  (731) 
nan

>  <ATP_Site>  (731) 
nan

>  <Peripheral>  (731) 
nan

>  <Num_H_Atoms_ProtBoundConf>  (731) 
nan

>  <Num_Resolved_Atoms>  (731) 
nan

>  <Num_Not_Resolved_Atoms>  (731) 
nan

$$$$
CHEMBL2110732
     RDKit          3D

  0  0  0  0  0  0  0  0  0  0999 V3000
M  V30 BEGIN CTAB
M  V30 COUNTS 58 61 0 0 0
M  V30 BEGIN ATOM
M  V30 1 C 1.099246 -4.673393 4.909477 0
M  V30 2 O 0.792553 -3.851348 3.815074 0
M  V30 3 C 1.548886 -2.810917 3.367338 0
M  V30 4 C 2.707542 -2.570729 4.072809 0
M  V30 5 C 3.501530 -1.528552 3.657439 0
M  V30 6 N 4.640417 -1.239257 4.278617 0
M  V30 7 C 5.454981 -0.222786 3.887628 0
M  V30 8 N 5.057357 0.495872 2.825764 0
M  V30 9 C 3.914560 0.239466 2.168661 0
M  V30 10 N 3.604671 1.061178 1.057145 0
M  V30 11 C 2.994582 2.345277 1.218063 0
M  V30 12 C 2.577115 3.126575 0.167829 0
M  V30 13 C 2.010057 4.369604 0.460309 0
M  V30 14 C 1.858450 4.831679 1.762007 0
M  V30 15 F 1.305943 6.040899 2.014012 0
M  V30 16 C 2.276521 4.049656 2.824103 0
M  V30 17 Cl 2.124221 4.562543 4.503066 0
M  V30 18 C 2.831958 2.826738 2.493329 0
M  V30 19 C 3.115562 -0.780971 2.576222 0
M  V30 20 C 1.951597 -1.054417 1.901296 0
M  V30 21 C 1.126837 -2.089682 2.282557 0
M  V30 22 N -0.042322 -2.264675 1.518456 0
M  V30 23 C -1.037461 -3.222999 1.401541 0
M  V30 24 O -0.923822 -4.231045 2.135835 0
M  V30 25 C -2.199915 -3.204314 0.532509 0
M  V30 26 C -2.576429 -2.265480 -0.323565 0
M  V30 27 C -3.701659 -2.115838 -1.247170 0
M  V30 28 N -3.363414 -1.981116 -2.627565 0
M  V30 29 C -2.705140 -0.785139 -3.013189 0
M  V30 30 C -3.518430 0.219761 -3.756964 0
M  V30 31 C -4.164919 -0.385222 -4.955459 0
M  V30 32 C -4.194644 -1.887915 -4.928211 0
M  V30 33 C -4.413615 -2.411699 -3.514848 0
M  V30 34 H 1.003712 -4.174365 5.884925 0
M  V30 35 H 0.512056 -5.615531 4.854624 0
M  V30 36 H 2.161412 -4.982075 4.807066 0
M  V30 37 H 3.017555 -3.144779 4.915658 0
M  V30 38 H 6.348084 -0.077977 4.456946 0
M  V30 39 H 3.815227 0.745627 0.065008 0
M  V30 40 H 2.696231 2.764413 -0.844347 0
M  V30 41 H 1.684265 4.974326 -0.393992 0
M  V30 42 H 3.152345 2.229418 3.340604 0
M  V30 43 H 1.725929 -0.400921 1.046858 0
M  V30 44 H -0.304649 -1.499928 0.825929 0
M  V30 45 H -2.888867 -4.017310 0.488506 0
M  V30 46 H -1.918097 -1.382337 -0.382016 0
M  V30 47 H -4.343902 -1.238448 -0.951988 0
M  V30 48 H -4.385697 -2.991855 -1.109237 0
M  V30 49 H -2.192582 -0.360248 -2.127505 0
M  V30 50 H -1.869029 -1.086119 -3.712077 0
M  V30 51 H -2.797954 1.042026 -4.045279 0
M  V30 52 H -4.291338 0.725686 -3.160852 0
M  V30 53 H -3.667816 -0.047176 -5.874530 0
M  V30 54 H -5.234432 -0.033597 -5.059737 0
M  V30 55 H -5.066045 -2.226777 -5.519026 0
M  V30 56 H -3.243266 -2.258134 -5.344150 0
M  V30 57 H -4.437961 -3.517696 -3.588764 0
M  V30 58 H -5.383388 -2.055829 -3.149472 0
M  V30 END ATOM
M  V30 BEGIN BOND
M  V30 1 1 1 2
M  V30 2 1 2 3
M  V30 3 2 3 4
M  V30 4 1 4 5
M  V30 5 2 5 6
M  V30 6 1 6 7
M  V30 7 2 7 8
M  V30 8 1 8 9
M  V30 9 1 9 10
M  V30 10 1 10 11
M  V30 11 2 11 12
M  V30 12 1 12 13
M  V30 13 2 13 14
M  V30 14 1 14 15
M  V30 15 1 14 16
M  V30 16 1 16 17
M  V30 17 2 16 18
M  V30 18 2 9 19
M  V30 19 1 19 20
M  V30 20 2 20 21
M  V30 21 1 21 22
M  V30 22 1 22 23
M  V30 23 2 23 24
M  V30 24 1 23 25
M  V30 25 2 25 26
M  V30 26 1 26 27
M  V30 27 1 27 28
M  V30 28 1 28 29
M  V30 29 1 29 30
M  V30 30 1 30 31
M  V30 31 1 31 32
M  V30 32 1 32 33
M  V30 33 1 21 3
M  V30 34 1 33 28
M  V30 35 1 19 5
M  V30 36 1 18 11
M  V30 37 1 1 34
M  V30 38 1 1 35
M  V30 39 1 1 36
M  V30 40 1 4 37
M  V30 41 1 7 38
M  V30 42 1 10 39
M  V30 43 1 12 40
M  V30 44 1 13 41
M  V30 45 1 18 42
M  V30 46 1 20 43
M  V30 47 1 22 44
M  V30 48 1 25 45
M  V30 49 1 26 46
M  V30 50 1 27 47
M  V30 51 1 27 48
M  V30 52 1 29 49
M  V30 53 1 29 50
M  V30 54 1 30 51
M  V30 55 1 30 52
M  V30 56 1 31 53
M  V30 57 1 31 54
M  V30 58 1 32 55
M  V30 59 1 32 56
M  V30 60 1 33 57
M  V30 61 1 33 58
M  V30 END BOND
M  V30 END CTAB
M  END
>  <Dataset>  (732) 
ChEMBL_Kinases

>  <Ligand_Instance>  (732) 
nan

>  <PDB_ID>  (732) 
nan

>  <Standardized_SMILES>  (732) 
COc1cc2ncnc(Nc3ccc(F)c(Cl)c3)c2cc1NC(=O)/C=C/CN1CCCCC1

>  <Name>  (732) 
DACOMITINIB ANHYDROUS

>  <Pocket>  (732) 
nan

>  <ATP_Site>  (732) 
nan

>  <Peripheral>  (732) 
nan

>  <Num_H_Atoms_ProtBoundConf>  (732) 
nan

>  <Num_Resolved_Atoms>  (732) 
nan

>  <Num_Not_Resolved_Atoms>  (732) 
nan

$$$$
CHEMBL214090
     RDKit          3D

  0  0  0  0  0  0  0  0  0  0999 V3000
M  V30 BEGIN CTAB
M  V30 COUNTS 41 45 0 0 0
M  V30 BEGIN ATOM
M  V30 1 C 1.555816 -4.218688 -1.310097 0
M  V30 2 O 1.560899 -3.158627 -0.394184 0
M  V30 3 C 2.479464 -2.986833 0.626426 0
M  V30 4 C 3.502034 -3.907546 0.806918 0
M  V30 5 C 4.463604 -3.817697 1.797973 0
M  V30 6 C 4.365874 -2.728384 2.641312 0
M  V30 7 C 3.375075 -1.778213 2.516332 0
M  V30 8 F 3.259712 -0.701814 3.331819 0
M  V30 9 C 2.435729 -1.907405 1.512583 0
M  V30 10 C 1.343857 -0.981950 1.270284 0
M  V30 11 C 1.553969 0.079431 0.415504 0
M  V30 12 C 0.527428 0.962089 0.178561 0
M  V30 13 N 0.474262 2.046682 -0.589246 0
M  V30 14 C -0.782871 2.568702 -0.472951 0
M  V30 15 C -1.271652 3.696864 -1.100594 0
M  V30 16 C -2.573840 4.106546 -0.884835 0
M  V30 17 C -3.360102 3.343635 -0.019822 0
M  V30 18 O -4.668357 3.753291 0.198357 0
M  V30 19 C -2.807244 2.231402 0.570961 0
M  V30 20 C -1.533251 1.795366 0.385489 0
M  V30 21 C -0.697329 0.794989 0.783251 0
M  V30 22 C -0.926222 -0.245584 1.630309 0
M  V30 23 C 0.092903 -1.133942 1.874323 0
M  V30 24 C -0.307713 -2.204842 2.811170 0
M  V30 25 O 0.405620 -3.153929 3.219983 0
M  V30 26 N -1.679780 -1.874539 3.112233 0
M  V30 27 C -2.031628 -0.702358 2.398573 0
M  V30 28 O -3.181165 -0.312356 2.568434 0
M  V30 29 H 1.524422 -5.161105 -0.698500 0
M  V30 30 H 0.605692 -4.115398 -1.893697 0
M  V30 31 H 2.456071 -4.250517 -1.956110 0
M  V30 32 H 3.559642 -4.747666 0.139617 0
M  V30 33 H 5.247681 -4.528038 1.932618 0
M  V30 34 H 5.057882 -2.539018 3.461718 0
M  V30 35 H 2.512119 0.214917 -0.061020 0
M  V30 36 H 1.275892 2.412892 -1.171815 0
M  V30 37 H -0.645436 4.273765 -1.767196 0
M  V30 38 H -2.904933 4.996962 -1.401782 0
M  V30 39 H -5.054946 3.570387 1.115434 0
M  V30 40 H -3.469548 1.718014 1.205611 0
M  V30 41 H -2.186797 -2.505536 3.771138 0
M  V30 END ATOM
M  V30 BEGIN BOND
M  V30 1 1 1 2
M  V30 2 1 2 3
M  V30 3 2 3 4
M  V30 4 1 4 5
M  V30 5 2 5 6
M  V30 6 1 6 7
M  V30 7 1 7 8
M  V30 8 2 7 9
M  V30 9 1 9 10
M  V30 10 2 10 11
M  V30 11 1 11 12
M  V30 12 1 12 13
M  V30 13 1 13 14
M  V30 14 2 14 15
M  V30 15 1 15 16
M  V30 16 2 16 17
M  V30 17 1 17 18
M  V30 18 1 17 19
M  V30 19 2 19 20
M  V30 20 1 20 21
M  V30 21 1 21 22
M  V30 22 2 22 23
M  V30 23 1 23 24
M  V30 24 2 24 25
M  V30 25 1 24 26
M  V30 26 1 26 27
M  V30 27 2 27 28
M  V30 28 1 9 3
M  V30 29 1 23 10
M  V30 30 2 21 12
M  V30 31 1 27 22
M  V30 32 1 20 14
M  V30 33 1 1 29
M  V30 34 1 1 30
M  V30 35 1 1 31
M  V30 36 1 4 32
M  V30 37 1 5 33
M  V30 38 1 6 34
M  V30 39 1 11 35
M  V30 40 1 13 36
M  V30 41 1 15 37
M  V30 42 1 16 38
M  V30 43 1 18 39
M  V30 44 1 19 40
M  V30 45 1 26 41
M  V30 END BOND
M  V30 END CTAB
M  END
>  <Dataset>  (733) 
ChEMBL_Kinases

>  <Ligand_Instance>  (733) 
nan

>  <PDB_ID>  (733) 
nan

>  <Standardized_SMILES>  (733) 
COc1cccc(F)c1-c1cc2[nH]c3ccc(O)cc3c2c2c1C(=O)NC2=O

>  <Name>  (733) 
nan

>  <Pocket>  (733) 
nan

>  <ATP_Site>  (733) 
nan

>  <Peripheral>  (733) 
nan

>  <Num_H_Atoms_ProtBoundConf>  (733) 
nan

>  <Num_Resolved_Atoms>  (733) 
nan

>  <Num_Not_Resolved_Atoms>  (733) 
nan

$$$$
CHEMBL591272
     RDKit          3D

  0  0  0  0  0  0  0  0  0  0999 V3000
M  V30 BEGIN CTAB
M  V30 COUNTS 45 48 0 0 0
M  V30 BEGIN ATOM
M  V30 1 C -0.370464 -5.376232 0.765589 0
M  V30 2 N -0.670542 -4.223607 1.553070 0
M  V30 3 C -1.913518 -3.594818 1.221810 0
M  V30 4 C -2.078670 -3.274794 -0.223732 0
M  V30 5 C -1.201034 -2.148462 -0.705765 0
M  V30 6 N -0.659535 -1.479869 0.460735 0
M  V30 7 C -0.827688 -0.065430 0.556369 0
M  V30 8 N 0.270159 0.710437 0.619024 0
M  V30 9 C 0.228043 2.051675 0.710377 0
M  V30 10 C 1.408285 2.906174 0.778289 0
M  V30 11 C 1.380542 4.270133 0.874010 0
M  V30 12 C 2.503826 5.065850 0.936742 0
M  V30 13 N 3.712692 4.464343 0.901787 0
M  V30 14 C 3.820628 3.127164 0.808471 0
M  V30 15 N 4.909574 2.337942 0.759599 0
M  V30 16 C 4.541896 1.031267 0.665554 0
M  V30 17 C 3.155273 1.059563 0.659114 0
M  V30 18 C 2.669999 2.348753 0.746796 0
M  V30 19 C -1.038797 2.595017 0.736427 0
M  V30 20 N -2.163049 1.850538 0.675680 0
M  V30 21 C -2.081696 0.508317 0.584620 0
M  V30 22 N -3.263246 -0.280845 0.520287 0
M  V30 23 C 0.051057 -1.882664 1.628499 0
M  V30 24 C 0.450512 -3.320600 1.581127 0
M  V30 25 H -0.148959 -6.209896 1.493956 0
M  V30 26 H 0.561904 -5.268068 0.167287 0
M  V30 27 H -1.176354 -5.743103 0.122494 0
M  V30 28 H -2.071212 -2.704482 1.827544 0
M  V30 29 H -2.711611 -4.341371 1.474508 0
M  V30 30 H -2.007311 -4.171025 -0.877172 0
M  V30 31 H -3.144085 -2.937547 -0.350162 0
M  V30 32 H -0.362359 -2.652189 -1.270642 0
M  V30 33 H -1.706778 -1.467672 -1.391488 0
M  V30 34 H 0.436829 4.781455 0.904234 0
M  V30 35 H 2.422505 6.127420 1.010882 0
M  V30 36 H 5.937126 2.589143 0.783410 0
M  V30 37 H 5.167151 0.151438 0.607359 0
M  V30 38 H 2.578188 0.170016 0.593014 0
M  V30 39 H -1.235616 3.646316 0.806490 0
M  V30 40 H -3.627160 -0.987138 1.196616 0
M  V30 41 H -3.621462 -0.983436 1.197082 0
M  V30 42 H 0.990061 -1.280691 1.655983 0
M  V30 43 H -0.470457 -1.701166 2.590414 0
M  V30 44 H 1.207236 -3.544586 0.805746 0
M  V30 45 H 0.976951 -3.526276 2.558111 0
M  V30 END ATOM
M  V30 BEGIN BOND
M  V30 1 1 1 2
M  V30 2 1 2 3
M  V30 3 1 3 4
M  V30 4 1 4 5
M  V30 5 1 5 6
M  V30 6 1 6 7
M  V30 7 2 7 8
M  V30 8 1 8 9
M  V30 9 1 9 10
M  V30 10 2 10 11
M  V30 11 1 11 12
M  V30 12 2 12 13
M  V30 13 1 13 14
M  V30 14 1 14 15
M  V30 15 1 15 16
M  V30 16 2 16 17
M  V30 17 1 17 18
M  V30 18 2 9 19
M  V30 19 1 19 20
M  V30 20 2 20 21
M  V30 21 1 21 22
M  V30 22 1 6 23
M  V30 23 1 23 24
M  V30 24 1 24 2
M  V30 25 1 21 7
M  V30 26 1 18 10
M  V30 27 2 18 14
M  V30 28 1 1 25
M  V30 29 1 1 26
M  V30 30 1 1 27
M  V30 31 1 3 28
M  V30 32 1 3 29
M  V30 33 1 4 30
M  V30 34 1 4 31
M  V30 35 1 5 32
M  V30 36 1 5 33
M  V30 37 1 11 34
M  V30 38 1 12 35
M  V30 39 1 15 36
M  V30 40 1 16 37
M  V30 41 1 17 38
M  V30 42 1 19 39
M  V30 43 1 22 40
M  V30 44 1 22 41
M  V30 45 1 23 42
M  V30 46 1 23 43
M  V30 47 1 24 44
M  V30 48 1 24 45
M  V30 END BOND
M  V30 END CTAB
M  END
>  <Dataset>  (734) 
ChEMBL_Kinases

>  <Ligand_Instance>  (734) 
nan

>  <PDB_ID>  (734) 
nan

>  <Standardized_SMILES>  (734) 
CN1CCCN(c2nc(-c3ccnc4[nH]ccc34)cnc2N)CC1

>  <Name>  (734) 
nan

>  <Pocket>  (734) 
nan

>  <ATP_Site>  (734) 
nan

>  <Peripheral>  (734) 
nan

>  <Num_H_Atoms_ProtBoundConf>  (734) 
nan

>  <Num_Resolved_Atoms>  (734) 
nan

>  <Num_Not_Resolved_Atoms>  (734) 
nan

$$$$
CHEMBL214433
     RDKit          3D

  0  0  0  0  0  0  0  0  0  0999 V3000
M  V30 BEGIN CTAB
M  V30 COUNTS 53 55 0 0 0
M  V30 BEGIN ATOM
M  V30 1 C 1.953394 -2.709085 5.954859 0
M  V30 2 C 2.371386 -3.938024 5.178548 0
M  V30 3 O 2.665293 -3.637334 3.821318 0
M  V30 4 C 3.648319 -2.755581 3.443507 0
M  V30 5 O 4.360854 -2.148851 4.252613 0
M  V30 6 N 3.901694 -2.490225 2.072868 0
M  V30 7 C 4.931006 -1.566431 1.651905 0
M  V30 8 C 4.412848 -0.609654 0.634988 0
M  V30 9 C 2.910318 -0.628141 0.528016 0
M  V30 10 N 2.425513 0.241839 -0.519464 0
M  V30 11 C 1.042449 0.401159 -0.813946 0
M  V30 12 N 0.090574 -0.255653 -0.126703 0
M  V30 13 C -1.223497 -0.122402 -0.385253 0
M  V30 14 C -1.576262 0.733605 -1.406991 0
M  V30 15 C -2.956596 0.977957 -1.795317 0
M  V30 16 O -3.213328 1.784217 -2.725221 0
M  V30 17 C -4.218908 0.447641 -1.300463 0
M  V30 18 C -4.430893 -0.891869 -1.055608 0
M  V30 19 C -5.605299 -1.444788 -0.590363 0
M  V30 20 C -6.665857 -0.600440 -0.344683 0
M  V30 21 C -6.506814 0.747411 -0.573016 0
M  V30 22 C -5.298201 1.270964 -1.045891 0
M  V30 23 C -5.121744 2.729429 -1.294450 0
M  V30 24 C -0.643065 1.431639 -2.143501 0
M  V30 25 N -0.914800 2.326418 -3.203666 0
M  V30 26 N 0.666624 1.229225 -1.804940 0
M  V30 27 C 2.368797 -2.010565 0.259813 0
M  V30 28 C 3.195457 -3.081044 0.936332 0
M  V30 29 H 2.214411 -2.822982 7.029180 0
M  V30 30 H 0.841718 -2.633902 5.924524 0
M  V30 31 H 2.396883 -1.780238 5.567812 0
M  V30 32 H 1.589343 -4.722637 5.191732 0
M  V30 33 H 3.288846 -4.345543 5.647428 0
M  V30 34 H 5.390573 -1.033484 2.534944 0
M  V30 35 H 5.745324 -2.191445 1.191536 0
M  V30 36 H 4.684331 0.429488 0.962037 0
M  V30 37 H 4.867838 -0.716732 -0.370774 0
M  V30 38 H 2.500753 -0.291997 1.502310 0
M  V30 39 H 3.138868 0.762400 -1.066621 0
M  V30 40 H -1.967744 -0.651111 0.172352 0
M  V30 41 H -3.644358 -1.608808 -1.228741 0
M  V30 42 H -5.735357 -2.492743 -0.410704 0
M  V30 43 H -7.594724 -1.007386 0.019374 0
M  V30 44 H -7.348825 1.415243 -0.377707 0
M  V30 45 H -4.240910 3.155527 -0.757803 0
M  V30 46 H -6.006370 3.235627 -0.816956 0
M  V30 47 H -5.177317 3.000448 -2.358604 0
M  V30 48 H -0.954832 3.361896 -3.038654 0
M  V30 49 H -1.100019 2.102903 -4.222401 0
M  V30 50 H 2.245296 -2.157319 -0.820364 0
M  V30 51 H 1.363946 -2.070934 0.725730 0
M  V30 52 H 3.946105 -3.433001 0.202259 0
M  V30 53 H 2.573019 -3.948669 1.260422 0
M  V30 END ATOM
M  V30 BEGIN BOND
M  V30 1 1 1 2
M  V30 2 1 2 3
M  V30 3 1 3 4
M  V30 4 2 4 5
M  V30 5 1 4 6
M  V30 6 1 6 7
M  V30 7 1 7 8
M  V30 8 1 8 9
M  V30 9 1 9 10
M  V30 10 1 10 11
M  V30 11 2 11 12
M  V30 12 1 12 13
M  V30 13 2 13 14
M  V30 14 1 14 15
M  V30 15 2 15 16
M  V30 16 1 15 17
M  V30 17 2 17 18
M  V30 18 1 18 19
M  V30 19 2 19 20
M  V30 20 1 20 21
M  V30 21 2 21 22
M  V30 22 1 22 23
M  V30 23 1 14 24
M  V30 24 1 24 25
M  V30 25 2 24 26
M  V30 26 1 9 27
M  V30 27 1 27 28
M  V30 28 1 28 6
M  V30 29 1 26 11
M  V30 30 1 22 17
M  V30 31 1 1 29
M  V30 32 1 1 30
M  V30 33 1 1 31
M  V30 34 1 2 32
M  V30 35 1 2 33
M  V30 36 1 7 34
M  V30 37 1 7 35
M  V30 38 1 8 36
M  V30 39 1 8 37
M  V30 40 1 9 38
M  V30 41 1 10 39
M  V30 42 1 13 40
M  V30 43 1 18 41
M  V30 44 1 19 42
M  V30 45 1 20 43
M  V30 46 1 21 44
M  V30 47 1 23 45
M  V30 48 1 23 46
M  V30 49 1 23 47
M  V30 50 1 25 48
M  V30 51 1 25 49
M  V30 52 1 27 50
M  V30 53 1 27 51
M  V30 54 1 28 52
M  V30 55 1 28 53
M  V30 END BOND
M  V30 END CTAB
M  END
>  <Dataset>  (735) 
ChEMBL_Kinases

>  <Ligand_Instance>  (735) 
nan

>  <PDB_ID>  (735) 
nan

>  <Standardized_SMILES>  (735) 
CCOC(=O)N1CCC(Nc2ncc(C(=O)c3ccccc3C)c(N)n2)CC1

>  <Name>  (735) 
nan

>  <Pocket>  (735) 
nan

>  <ATP_Site>  (735) 
nan

>  <Peripheral>  (735) 
nan

>  <Num_H_Atoms_ProtBoundConf>  (735) 
nan

>  <Num_Resolved_Atoms>  (735) 
nan

>  <Num_Not_Resolved_Atoms>  (735) 
nan

$$$$
CHEMBL4633121
     RDKit          3D

  0  0  0  0  0  0  0  0  0  0999 V3000
M  V30 BEGIN CTAB
M  V30 COUNTS 57 60 0 0 0
M  V30 BEGIN ATOM
M  V30 1 C -2.171118 -4.582139 1.827909 0
M  V30 2 O -1.537655 -5.487926 0.951879 0
M  V30 3 C -0.274388 -5.209392 0.397406 0
M  V30 4 C 0.378489 -4.021434 0.708392 0
M  V30 5 C 1.614742 -3.816890 0.126964 0
M  V30 6 C 2.246755 -2.554816 0.492983 0
M  V30 7 C 3.566942 -2.379021 0.857031 0
M  V30 8 N 4.046616 -1.162806 1.177144 0
M  V30 9 C 3.266859 -0.065685 1.157934 0
M  V30 10 C 1.933887 -0.152523 0.805104 0
M  V30 11 C 1.067936 1.027617 0.777673 0
M  V30 12 C 0.200792 1.267826 -0.272348 0
M  V30 13 C -0.640897 2.359744 -0.358134 0
M  V30 14 C -0.626502 3.283403 0.667726 0
M  V30 15 N -1.444362 4.447761 0.698592 0
M  V30 16 C -1.497247 5.487174 1.710835 0
M  V30 17 C -2.723143 5.172987 2.575030 0
M  V30 18 N -3.790031 4.836457 1.649572 0
M  V30 19 C -3.582078 5.394837 0.336396 0
M  V30 20 C -2.392801 4.747337 -0.365306 0
M  V30 21 C 0.231812 3.063004 1.725998 0
M  V30 22 C 1.068400 1.963933 1.796175 0
M  V30 23 C 1.437489 -1.414156 0.473354 0
M  V30 24 F 0.113587 -1.445105 0.131975 0
M  V30 25 C 2.225188 -4.708742 -0.728396 0
M  V30 26 C 1.521231 -5.864906 -0.992382 0
M  V30 27 O 2.020532 -6.844669 -1.835380 0
M  V30 28 C 3.300706 -6.661345 -2.453198 0
M  V30 29 C 0.276393 -6.143977 -0.448701 0
M  V30 30 O -0.430990 -7.310498 -0.716510 0
M  V30 31 C -1.332427 -7.378447 -1.799464 0
M  V30 32 H -2.507127 -3.663574 1.306792 0
M  V30 33 H -3.027694 -5.086951 2.299407 0
M  V30 34 H -1.461769 -4.313644 2.657195 0
M  V30 35 H -0.134373 -3.368201 1.372298 0
M  V30 36 H 4.126561 -3.310023 0.847453 0
M  V30 37 H 3.654168 0.910324 1.415183 0
M  V30 38 H 0.174160 0.545280 -1.097674 0
M  V30 39 H -1.291214 2.502160 -1.187147 0
M  V30 40 H -1.565347 6.506983 1.277871 0
M  V30 41 H -0.622086 5.472979 2.394357 0
M  V30 42 H -2.977875 6.033000 3.227747 0
M  V30 43 H -2.493092 4.265215 3.169582 0
M  V30 44 H -4.646471 5.308341 2.031423 0
M  V30 45 H -4.491141 5.165269 -0.250501 0
M  V30 46 H -3.499327 6.499870 0.333778 0
M  V30 47 H -1.985614 5.491069 -1.077759 0
M  V30 48 H -2.762827 3.875510 -0.900716 0
M  V30 49 H 0.348089 3.697730 2.592291 0
M  V30 50 H 1.755620 1.754610 2.607542 0
M  V30 51 H 3.183402 -4.516280 -1.159629 0
M  V30 52 H 3.501063 -7.490744 -3.169665 0
M  V30 53 H 4.115679 -6.724970 -1.706659 0
M  V30 54 H 3.351565 -5.679241 -2.991434 0
M  V30 55 H -0.928952 -6.819105 -2.680266 0
M  V30 56 H -1.486472 -8.425693 -2.143896 0
M  V30 57 H -2.341628 -6.991272 -1.552740 0
M  V30 END ATOM
M  V30 BEGIN BOND
M  V30 1 1 1 2
M  V30 2 1 2 3
M  V30 3 2 3 4
M  V30 4 1 4 5
M  V30 5 1 5 6
M  V30 6 2 6 7
M  V30 7 1 7 8
M  V30 8 2 8 9
M  V30 9 1 9 10
M  V30 10 1 10 11
M  V30 11 2 11 12
M  V30 12 1 12 13
M  V30 13 2 13 14
M  V30 14 1 14 15
M  V30 15 1 15 16
M  V30 16 1 16 17
M  V30 17 1 17 18
M  V30 18 1 18 19
M  V30 19 1 19 20
M  V30 20 1 14 21
M  V30 21 2 21 22
M  V30 22 2 10 23
M  V30 23 1 23 24
M  V30 24 2 5 25
M  V30 25 1 25 26
M  V30 26 1 26 27
M  V30 27 1 27 28
M  V30 28 2 26 29
M  V30 29 1 29 30
M  V30 30 1 30 31
M  V30 31 1 29 3
M  V30 32 1 23 6
M  V30 33 1 22 11
M  V30 34 1 20 15
M  V30 35 1 1 32
M  V30 36 1 1 33
M  V30 37 1 1 34
M  V30 38 1 4 35
M  V30 39 1 7 36
M  V30 40 1 9 37
M  V30 41 1 12 38
M  V30 42 1 13 39
M  V30 43 1 16 40
M  V30 44 1 16 41
M  V30 45 1 17 42
M  V30 46 1 17 43
M  V30 47 1 18 44
M  V30 48 1 19 45
M  V30 49 1 19 46
M  V30 50 1 20 47
M  V30 51 1 20 48
M  V30 52 1 21 49
M  V30 53 1 22 50
M  V30 54 1 25 51
M  V30 55 1 28 52
M  V30 56 1 28 53
M  V30 57 1 28 54
M  V30 58 1 31 55
M  V30 59 1 31 56
M  V30 60 1 31 57
M  V30 END BOND
M  V30 END CTAB
M  END
>  <Dataset>  (736) 
ChEMBL_Kinases

>  <Ligand_Instance>  (736) 
nan

>  <PDB_ID>  (736) 
nan

>  <Standardized_SMILES>  (736) 
COc1cc(-c2cncc(-c3ccc(N4CCNCC4)cc3)c2F)cc(OC)c1OC

>  <Name>  (736) 
nan

>  <Pocket>  (736) 
nan

>  <ATP_Site>  (736) 
nan

>  <Peripheral>  (736) 
nan

>  <Num_H_Atoms_ProtBoundConf>  (736) 
nan

>  <Num_Resolved_Atoms>  (736) 
nan

>  <Num_Not_Resolved_Atoms>  (736) 
nan

$$$$
CHEMBL576388
     RDKit          3D

  0  0  0  0  0  0  0  0  0  0999 V3000
M  V30 BEGIN CTAB
M  V30 COUNTS 53 56 0 0 0
M  V30 BEGIN ATOM
M  V30 1 C -0.774058 -5.917312 -3.110142 0
M  V30 2 N 0.284356 -4.967794 -2.933561 0
M  V30 3 C 1.555267 -5.598108 -3.177906 0
M  V30 4 C 0.175390 -3.791516 -3.763389 0
M  V30 5 C 1.346374 -2.882611 -3.477558 0
M  V30 6 N 1.184924 -1.975692 -2.525870 0
M  V30 7 C 2.130125 -1.097036 -2.160352 0
M  V30 8 C 3.266573 -1.290416 -2.919808 0
M  V30 9 S 4.404305 -0.021911 -2.280301 0
M  V30 10 C 3.188991 0.671167 -1.002663 0
M  V30 11 C 3.397480 1.699750 -0.123347 0
M  V30 12 C 2.328874 1.984721 0.689442 0
M  V30 13 C 1.196518 1.231920 0.540987 0
M  V30 14 C 0.046870 1.543137 1.422826 0
M  V30 15 C -1.270158 1.374905 1.047205 0
M  V30 16 C -2.288132 1.695481 1.957372 0
M  V30 17 C -1.999944 2.184275 3.243547 0
M  V30 18 O -3.204074 2.389505 3.854533 0
M  V30 19 C -3.476706 2.852618 5.138145 0
M  V30 20 C -2.968646 1.999574 6.261805 0
M  V30 21 C -3.573189 0.602274 6.193524 0
M  V30 22 N -3.090326 -0.225729 7.270662 0
M  V30 23 C -0.670957 2.333585 3.566583 0
M  V30 24 C 0.336087 2.022578 2.683246 0
M  V30 25 C 1.020595 0.206397 -0.351767 0
M  V30 26 C 2.039485 -0.141655 -1.199885 0
M  V30 27 C 3.466188 -2.222238 -3.914453 0
M  V30 28 O 4.578484 -2.199033 -4.453817 0
M  V30 29 N 2.460197 -3.049738 -4.200292 0
M  V30 30 H -1.574425 -5.632264 -2.385657 0
M  V30 31 H -1.221633 -5.771533 -4.117973 0
M  V30 32 H -0.453318 -6.966516 -2.975764 0
M  V30 33 H 1.531614 -6.572163 -2.628251 0
M  V30 34 H 1.731266 -5.876884 -4.237744 0
M  V30 35 H 2.421292 -4.993896 -2.827680 0
M  V30 36 H 0.180612 -4.110264 -4.813987 0
M  V30 37 H -0.776346 -3.253808 -3.594080 0
M  V30 38 H 4.363434 2.177884 -0.153734 0
M  V30 39 H 2.456786 2.790813 1.396494 0
M  V30 40 H -1.405190 0.997348 0.044914 0
M  V30 41 H -3.249055 1.494060 1.473918 0
M  V30 42 H -4.601684 2.932085 5.244835 0
M  V30 43 H -3.104918 3.888880 5.317519 0
M  V30 44 H -1.881532 1.889999 6.281170 0
M  V30 45 H -3.258095 2.451681 7.254235 0
M  V30 46 H -4.674704 0.697006 6.217954 0
M  V30 47 H -3.311600 0.092786 5.256888 0
M  V30 48 H -2.263938 -0.762085 6.988591 0
M  V30 49 H -3.855947 -0.738100 7.725786 0
M  V30 50 H -0.564218 2.720042 4.562198 0
M  V30 51 H 1.327703 2.195531 3.089110 0
M  V30 52 H 0.077403 -0.319244 -0.376255 0
M  V30 53 H 2.601668 -3.756436 -4.949646 0
M  V30 END ATOM
M  V30 BEGIN BOND
M  V30 1 1 1 2
M  V30 2 1 2 3
M  V30 3 1 2 4
M  V30 4 1 4 5
M  V30 5 2 5 6
M  V30 6 1 6 7
M  V30 7 2 7 8
M  V30 8 1 8 9
M  V30 9 1 9 10
M  V30 10 2 10 11
M  V30 11 1 11 12
M  V30 12 2 12 13
M  V30 13 1 13 14
M  V30 14 2 14 15
M  V30 15 1 15 16
M  V30 16 2 16 17
M  V30 17 1 17 18
M  V30 18 1 18 19
M  V30 19 1 19 20
M  V30 20 1 20 21
M  V30 21 1 21 22
M  V30 22 1 17 23
M  V30 23 2 23 24
M  V30 24 1 13 25
M  V30 25 2 25 26
M  V30 26 1 8 27
M  V30 27 2 27 28
M  V30 28 1 27 29
M  V30 29 1 29 5
M  V30 30 1 26 7
M  V30 31 1 26 10
M  V30 32 1 24 14
M  V30 33 1 1 30
M  V30 34 1 1 31
M  V30 35 1 1 32
M  V30 36 1 3 33
M  V30 37 1 3 34
M  V30 38 1 3 35
M  V30 39 1 4 36
M  V30 40 1 4 37
M  V30 41 1 11 38
M  V30 42 1 12 39
M  V30 43 1 15 40
M  V30 44 1 16 41
M  V30 45 1 19 42
M  V30 46 1 19 43
M  V30 47 1 20 44
M  V30 48 1 20 45
M  V30 49 1 21 46
M  V30 50 1 21 47
M  V30 51 1 22 48
M  V30 52 1 22 49
M  V30 53 1 23 50
M  V30 54 1 24 51
M  V30 55 1 25 52
M  V30 56 1 29 53
M  V30 END BOND
M  V30 END CTAB
M  END
>  <Dataset>  (737) 
ChEMBL_Kinases

>  <Ligand_Instance>  (737) 
nan

>  <PDB_ID>  (737) 
nan

>  <Standardized_SMILES>  (737) 
CN(C)Cc1nc2c(sc3ccc(-c4ccc(OCCCN)cc4)cc32)c(=O)[nH]1

>  <Name>  (737) 
nan

>  <Pocket>  (737) 
nan

>  <ATP_Site>  (737) 
nan

>  <Peripheral>  (737) 
nan

>  <Num_H_Atoms_ProtBoundConf>  (737) 
nan

>  <Num_Resolved_Atoms>  (737) 
nan

>  <Num_Not_Resolved_Atoms>  (737) 
nan

$$$$
CHEMBL1097521
     RDKit          3D

  0  0  0  0  0  0  0  0  0  0999 V3000
M  V30 BEGIN CTAB
M  V30 COUNTS 75 80 0 0 0
M  V30 BEGIN ATOM
M  V30 1 C 3.843285 -5.119005 6.101684 0
M  V30 2 C 3.238916 -3.748089 5.989661 0
M  V30 3 N 3.024445 -3.404296 4.575481 0
M  V30 4 C 3.957473 -2.778499 3.825259 0
M  V30 5 C 3.472697 -2.591169 2.548459 0
M  V30 6 C 3.959306 -2.004125 1.307932 0
M  V30 7 C 5.063189 -2.600488 0.771435 0
M  V30 8 C 5.601478 -2.104149 -0.420531 0
M  V30 9 N 5.037914 -1.040379 -1.044034 0
M  V30 10 C 3.935104 -0.428180 -0.527349 0
M  V30 11 N 3.155769 0.622464 -0.891988 0
M  V30 12 C 2.172779 0.798089 0.006494 0
M  V30 13 C 1.113911 1.806765 0.006105 0
M  V30 14 C 0.155654 1.881297 0.997566 0
M  V30 15 C -0.829376 2.847357 0.964411 0
M  V30 16 C -0.901396 3.776985 -0.054327 0
M  V30 17 C -1.937092 4.848613 -0.155790 0
M  V30 18 N -3.093682 4.382240 -0.897364 0
M  V30 19 C -4.127974 5.393887 -1.023661 0
M  V30 20 C -5.349906 4.575272 -1.385005 0
M  V30 21 C -5.125818 3.236466 -0.741142 0
M  V30 22 C -3.722820 3.283958 -0.164623 0
M  V30 23 C 0.065935 3.701781 -1.055182 0
M  V30 24 C 1.055071 2.729831 -1.019687 0
M  V30 25 C 2.309102 -0.171461 0.998738 0
M  V30 26 C 3.411787 -0.924617 0.647936 0
M  V30 27 C 2.186044 -3.142961 2.570883 0
M  V30 28 C 1.196036 -3.238811 1.522324 0
M  V30 29 C 1.425854 -3.948015 0.363018 0
M  V30 30 C 0.448783 -4.009307 -0.606393 0
M  V30 31 C -0.779150 -3.400569 -0.509709 0
M  V30 32 N -1.820663 -3.423292 -1.466127 0
M  V30 33 C -1.862763 -4.052537 -2.733442 0
M  V30 34 O -0.854249 -4.698366 -3.113493 0
M  V30 35 N -2.993904 -3.986245 -3.593820 0
M  V30 36 C -4.157877 -3.238760 -3.152463 0
M  V30 37 C -2.968998 -4.655531 -4.878600 0
M  V30 38 C -0.983961 -2.699456 0.656068 0
M  V30 39 C -0.028977 -2.617965 1.644767 0
M  V30 40 N 1.970662 -3.615432 3.810848 0
M  V30 41 H 4.519076 -5.148117 6.954954 0
M  V30 42 H 2.978553 -5.825534 6.204355 0
M  V30 43 H 4.382421 -5.427748 5.177330 0
M  V30 44 H 2.302446 -3.636799 6.567572 0
M  V30 45 H 3.955978 -3.027043 6.450699 0
M  V30 46 H 4.947496 -2.429505 4.053591 0
M  V30 47 H 5.631588 -3.456379 1.143964 0
M  V30 48 H 6.458919 -2.451848 -0.973825 0
M  V30 49 H 3.302937 1.203477 -1.744209 0
M  V30 50 H 0.173164 1.162566 1.827999 0
M  V30 51 H -1.575504 2.898457 1.744677 0
M  V30 52 H -1.513900 5.711249 -0.709796 0
M  V30 53 H -2.248618 5.069120 0.870921 0
M  V30 54 H -4.315058 5.932893 -0.075068 0
M  V30 55 H -3.861363 6.068872 -1.856943 0
M  V30 56 H -6.241001 5.069380 -0.940255 0
M  V30 57 H -5.411976 4.494868 -2.494056 0
M  V30 58 H -5.121920 2.426612 -1.502532 0
M  V30 59 H -5.819628 3.019128 0.089250 0
M  V30 60 H -3.736827 3.520492 0.910494 0
M  V30 61 H -3.183036 2.334445 -0.303929 0
M  V30 62 H 0.018390 4.434251 -1.868008 0
M  V30 63 H 1.788759 2.710263 -1.823321 0
M  V30 64 H 1.679701 -0.285939 1.842660 0
M  V30 65 H 2.377232 -4.448042 0.233887 0
M  V30 66 H 0.692635 -4.570237 -1.468898 0
M  V30 67 H -2.708094 -2.921686 -1.256525 0
M  V30 68 H -4.885495 -3.241875 -3.987609 0
M  V30 69 H -3.895456 -2.178084 -2.925596 0
M  V30 70 H -4.589445 -3.673726 -2.217999 0
M  V30 71 H -2.483889 -5.649117 -4.825688 0
M  V30 72 H -4.032459 -4.782234 -5.187293 0
M  V30 73 H -2.510378 -3.992534 -5.643169 0
M  V30 74 H -1.928875 -2.181653 0.825090 0
M  V30 75 H -0.252846 -2.052394 2.533784 0
M  V30 END ATOM
M  V30 BEGIN BOND
M  V30 1 1 1 2
M  V30 2 1 2 3
M  V30 3 1 3 4
M  V30 4 2 4 5
M  V30 5 1 5 6
M  V30 6 2 6 7
M  V30 7 1 7 8
M  V30 8 2 8 9
M  V30 9 1 9 10
M  V30 10 1 10 11
M  V30 11 1 11 12
M  V30 12 1 12 13
M  V30 13 2 13 14
M  V30 14 1 14 15
M  V30 15 2 15 16
M  V30 16 1 16 17
M  V30 17 1 17 18
M  V30 18 1 18 19
M  V30 19 1 19 20
M  V30 20 1 20 21
M  V30 21 1 21 22
M  V30 22 1 16 23
M  V30 23 2 23 24
M  V30 24 2 12 25
M  V30 25 1 25 26
M  V30 26 1 5 27
M  V30 27 1 27 28
M  V30 28 2 28 29
M  V30 29 1 29 30
M  V30 30 2 30 31
M  V30 31 1 31 32
M  V30 32 1 32 33
M  V30 33 2 33 34
M  V30 34 1 33 35
M  V30 35 1 35 36
M  V30 36 1 35 37
M  V30 37 1 31 38
M  V30 38 2 38 39
M  V30 39 2 27 40
M  V30 40 1 40 3
M  V30 41 1 26 6
M  V30 42 1 39 28
M  V30 43 2 26 10
M  V30 44 1 24 13
M  V30 45 1 22 18
M  V30 46 1 1 41
M  V30 47 1 1 42
M  V30 48 1 1 43
M  V30 49 1 2 44
M  V30 50 1 2 45
M  V30 51 1 4 46
M  V30 52 1 7 47
M  V30 53 1 8 48
M  V30 54 1 11 49
M  V30 55 1 14 50
M  V30 56 1 15 51
M  V30 57 1 17 52
M  V30 58 1 17 53
M  V30 59 1 19 54
M  V30 60 1 19 55
M  V30 61 1 20 56
M  V30 62 1 20 57
M  V30 63 1 21 58
M  V30 64 1 21 59
M  V30 65 1 22 60
M  V30 66 1 22 61
M  V30 67 1 23 62
M  V30 68 1 24 63
M  V30 69 1 25 64
M  V30 70 1 29 65
M  V30 71 1 30 66
M  V30 72 1 32 67
M  V30 73 1 36 68
M  V30 74 1 36 69
M  V30 75 1 36 70
M  V30 76 1 37 71
M  V30 77 1 37 72
M  V30 78 1 37 73
M  V30 79 1 38 74
M  V30 80 1 39 75
M  V30 END BOND
M  V30 END CTAB
M  END
>  <Dataset>  (738) 
ChEMBL_Kinases

>  <Ligand_Instance>  (738) 
nan

>  <PDB_ID>  (738) 
nan

>  <Standardized_SMILES>  (738) 
CCn1cc(-c2ccnc3[nH]c(-c4ccc(CN5CCCC5)cc4)cc23)c(-c2ccc(NC(=O)N(C)C)cc2)n1

>  <Name>  (738) 
nan

>  <Pocket>  (738) 
nan

>  <ATP_Site>  (738) 
nan

>  <Peripheral>  (738) 
nan

>  <Num_H_Atoms_ProtBoundConf>  (738) 
nan

>  <Num_Resolved_Atoms>  (738) 
nan

>  <Num_Not_Resolved_Atoms>  (738) 
nan

$$$$
CHEMBL2088591
     RDKit          3D

  0  0  0  0  0  0  0  0  0  0999 V3000
M  V30 BEGIN CTAB
M  V30 COUNTS 50 54 0 0 0
M  V30 BEGIN ATOM
M  V30 1 C 0.081133 -0.925728 5.192566 0
M  V30 2 O -0.232038 -0.236037 3.972237 0
M  V30 3 C 0.763007 0.366698 3.215893 0
M  V30 4 C 2.081589 0.282475 3.678215 0
M  V30 5 C 3.088562 0.883823 2.927193 0
M  V30 6 C 2.773712 1.543822 1.755447 0
M  V30 7 C 3.882204 2.148674 1.023128 0
M  V30 8 N 3.922596 2.845338 -0.122799 0
M  V30 9 N 5.161404 3.205325 -0.417033 0
M  V30 10 C 5.930933 2.721280 0.574198 0
M  V30 11 C 7.420144 2.862503 0.704091 0
M  V30 12 O 5.143172 2.103041 1.407230 0
M  V30 13 C 1.485000 1.647026 1.268953 0
M  V30 14 C 0.496290 1.041594 2.031252 0
M  V30 15 C -0.906970 1.075167 1.632350 0
M  V30 16 C -1.729651 2.097528 2.047330 0
M  V30 17 O -1.286876 3.007631 2.769108 0
M  V30 18 C -3.041327 2.076382 1.640361 0
M  V30 19 C -3.505827 1.066872 0.847771 0
M  V30 20 N -2.732779 0.031175 0.409250 0
M  V30 21 N -3.190019 -0.945897 -0.359905 0
M  V30 22 C -2.398155 -1.980009 -0.791340 0
M  V30 23 O -3.188566 -2.777400 -1.544142 0
M  V30 24 C -2.973715 -3.924344 -2.221720 0
M  V30 25 C -1.971192 -4.821560 -2.501564 0
M  V30 26 C -2.086487 -5.942520 -3.261302 0
M  V30 27 C -3.300017 -6.228896 -3.810403 0
M  V30 28 F -3.367719 -7.356723 -4.560458 0
M  V30 29 C -4.384791 -5.391422 -3.593844 0
M  V30 30 C -4.214833 -4.246423 -2.802179 0
M  V30 31 F -5.422702 -3.597313 -2.744457 0
M  V30 32 C -1.099244 -1.899910 -0.350040 0
M  V30 33 C -0.602931 -0.903695 0.443190 0
M  V30 34 C -1.461794 0.098427 0.833874 0
M  V30 35 H 0.712588 -1.796009 4.914043 0
M  V30 36 H -0.823315 -1.285832 5.677440 0
M  V30 37 H 0.719115 -0.271491 5.823022 0
M  V30 38 H 2.345512 -0.227791 4.589196 0
M  V30 39 H 4.106601 0.801961 3.312038 0
M  V30 40 H 7.681677 3.862025 1.125855 0
M  V30 41 H 7.903052 2.702338 -0.280230 0
M  V30 42 H 7.770385 2.059316 1.387392 0
M  V30 43 H 1.242641 2.162898 0.354075 0
M  V30 44 H -3.747188 2.853985 1.932002 0
M  V30 45 H -4.550830 1.068813 0.535651 0
M  V30 46 H -1.059915 -4.514858 -2.029916 0
M  V30 47 H -1.174638 -6.511102 -3.355738 0
M  V30 48 H -5.277186 -5.743060 -4.088917 0
M  V30 49 H -0.523563 -2.714527 -0.704355 0
M  V30 50 H 0.444473 -1.015007 0.685257 0
M  V30 END ATOM
M  V30 BEGIN BOND
M  V30 1 1 1 2
M  V30 2 1 2 3
M  V30 3 2 3 4
M  V30 4 1 4 5
M  V30 5 2 5 6
M  V30 6 1 6 7
M  V30 7 2 7 8
M  V30 8 1 8 9
M  V30 9 2 9 10
M  V30 10 1 10 11
M  V30 11 1 10 12
M  V30 12 1 6 13
M  V30 13 2 13 14
M  V30 14 1 14 15
M  V30 15 1 15 16
M  V30 16 2 16 17
M  V30 17 1 16 18
M  V30 18 2 18 19
M  V30 19 1 19 20
M  V30 20 1 20 21
M  V30 21 2 21 22
M  V30 22 1 22 23
M  V30 23 1 23 24
M  V30 24 2 24 25
M  V30 25 1 25 26
M  V30 26 2 26 27
M  V30 27 1 27 28
M  V30 28 1 27 29
M  V30 29 2 29 30
M  V30 30 1 30 31
M  V30 31 1 22 32
M  V30 32 2 32 33
M  V30 33 1 33 34
M  V30 34 1 14 3
M  V30 35 2 34 15
M  V30 36 1 12 7
M  V30 37 1 34 20
M  V30 38 1 30 24
M  V30 39 1 1 35
M  V30 40 1 1 36
M  V30 41 1 1 37
M  V30 42 1 4 38
M  V30 43 1 5 39
M  V30 44 1 11 40
M  V30 45 1 11 41
M  V30 46 1 11 42
M  V30 47 1 13 43
M  V30 48 1 18 44
M  V30 49 1 19 45
M  V30 50 1 25 46
M  V30 51 1 26 47
M  V30 52 1 29 48
M  V30 53 1 32 49
M  V30 54 1 33 50
M  V30 END BOND
M  V30 END CTAB
M  END
>  <Dataset>  (739) 
ChEMBL_Kinases

>  <Ligand_Instance>  (739) 
nan

>  <PDB_ID>  (739) 
nan

>  <Standardized_SMILES>  (739) 
COc1ccc(-c2nnc(C)o2)cc1-c1c(=O)ccn2nc(Oc3ccc(F)cc3F)ccc12

>  <Name>  (739) 
nan

>  <Pocket>  (739) 
nan

>  <ATP_Site>  (739) 
nan

>  <Peripheral>  (739) 
nan

>  <Num_H_Atoms_ProtBoundConf>  (739) 
nan

>  <Num_Resolved_Atoms>  (739) 
nan

>  <Num_Not_Resolved_Atoms>  (739) 
nan

$$$$
CHEMBL1097700
     RDKit          3D

  0  0  0  0  0  0  0  0  0  0999 V3000
M  V30 BEGIN CTAB
M  V30 COUNTS 52 53 0 0 0
M  V30 BEGIN ATOM
M  V30 1 C 2.278515 -6.472327 2.006599 0
M  V30 2 N 2.659206 -5.156750 1.549292 0
M  V30 3 C 1.634872 -4.227861 1.319759 0
M  V30 4 C 0.330553 -4.509792 1.509559 0
M  V30 5 C -0.729267 -3.656218 1.306384 0
M  V30 6 O -2.017657 -4.114018 1.553512 0
M  V30 7 C -0.375495 -2.383136 0.857630 0
M  V30 8 C 0.964666 -2.064078 0.654417 0
M  V30 9 C 1.967259 -2.971945 0.879726 0
M  V30 10 C 1.247049 -0.724418 0.200888 0
M  V30 11 C 1.062644 0.470800 -0.266807 0
M  V30 12 C 1.866121 1.655179 -0.593678 0
M  V30 13 C 1.728308 2.093189 -2.041080 0 CFG=2
M  V30 14 O 2.617181 3.205236 -2.106623 0
M  V30 15 C 0.341089 2.604745 -2.367007 0 CFG=2
M  V30 16 O -0.111843 3.480263 -1.387627 0
M  V30 17 C -0.538513 1.516050 -2.753729 0
M  V30 18 O 0.122617 1.080669 -3.768210 0
M  V30 19 C -1.620757 0.558068 -2.833960 0
M  V30 20 C -2.649937 0.471759 -2.009275 0
M  V30 21 C -2.983788 1.270623 -0.833991 0 CFG=1
M  V30 22 C -4.374932 1.841299 -1.025990 0
M  V30 23 C -3.078650 0.388631 0.426007 0 CFG=2
M  V30 24 C -3.443261 1.283682 1.568984 0
M  V30 25 O -1.849200 -0.217361 0.687713 0
M  V30 26 C -1.524736 -1.538676 0.644568 0
M  V30 27 O -2.635019 -2.010973 0.318748 0
M  V30 28 H 1.655659 -6.456326 2.919037 0
M  V30 29 H 3.163877 -7.093758 2.258713 0
M  V30 30 H 1.703703 -7.026063 1.222703 0
M  V30 31 H 3.665240 -4.955199 1.411236 0
M  V30 32 H 0.106522 -5.505028 1.856563 0
M  V30 33 H -2.713727 -4.270287 0.848150 0
M  V30 34 H 3.012084 -2.748589 0.726458 0
M  V30 35 H 2.352816 -0.556884 0.312163 0
M  V30 36 H 0.096378 0.929507 -0.557075 0
M  V30 37 H 1.669401 2.522812 0.076729 0
M  V30 38 H 2.963645 1.439308 -0.393289 0
M  V30 39 H 2.121536 1.324709 -2.690390 0
M  V30 40 H 3.061467 3.213828 -2.988745 0
M  V30 41 H 0.478653 3.312997 -3.268872 0
M  V30 42 H 0.112194 4.421703 -1.540673 0
M  V30 43 H -1.789664 -0.227327 -3.545541 0
M  V30 44 H -3.442191 -0.223669 -2.052470 0
M  V30 45 H -2.335615 2.111630 -0.607716 0
M  V30 46 H -5.125750 0.996618 -1.125502 0
M  V30 47 H -4.729196 2.429089 -0.163354 0
M  V30 48 H -4.473801 2.462729 -1.932169 0
M  V30 49 H -3.911882 -0.310422 0.203961 0
M  V30 50 H -4.512194 1.115979 1.901179 0
M  V30 51 H -2.843218 1.066539 2.496415 0
M  V30 52 H -3.237095 2.361833 1.392562 0
M  V30 END ATOM
M  V30 BEGIN BOND
M  V30 1 1 1 2
M  V30 2 1 2 3
M  V30 3 2 3 4
M  V30 4 1 4 5
M  V30 5 1 5 6
M  V30 6 2 5 7
M  V30 7 1 7 8
M  V30 8 2 8 9
M  V30 9 1 8 10
M  V30 10 2 10 11
M  V30 11 1 11 12
M  V30 12 1 12 13
M  V30 13 1 13 14
M  V30 14 1 13 15
M  V30 15 1 15 16
M  V30 16 1 15 17
M  V30 17 2 17 18
M  V30 18 1 17 19
M  V30 19 2 19 20
M  V30 20 1 20 21
M  V30 21 1 21 22
M  V30 22 1 21 23
M  V30 23 1 23 24
M  V30 24 1 23 25
M  V30 25 1 25 26
M  V30 26 2 26 27
M  V30 27 1 9 3
M  V30 28 1 26 7
M  V30 29 1 1 28
M  V30 30 1 1 29
M  V30 31 1 1 30
M  V30 32 1 2 31
M  V30 33 1 4 32
M  V30 34 1 6 33
M  V30 35 1 9 34
M  V30 36 1 10 35
M  V30 37 1 11 36
M  V30 38 1 12 37
M  V30 39 1 12 38
M  V30 40 1 13 39 CFG=3
M  V30 41 1 14 40
M  V30 42 1 15 41 CFG=3
M  V30 43 1 16 42
M  V30 44 1 19 43
M  V30 45 1 20 44
M  V30 46 1 21 45 CFG=1
M  V30 47 1 22 46
M  V30 48 1 22 47
M  V30 49 1 22 48
M  V30 50 1 23 49 CFG=3
M  V30 51 1 24 50
M  V30 52 1 24 51
M  V30 53 1 24 52
M  V30 END BOND
M  V30 END CTAB
M  END
>  <Dataset>  (740) 
ChEMBL_Kinases

>  <Ligand_Instance>  (740) 
nan

>  <PDB_ID>  (740) 
nan

>  <Standardized_SMILES>  (740) 
CNc1cc(O)c2c(c1)/C=C/C[C@H](O)[C@H](O)C(=O)/C=C\[C@@H](C)[C@H](C)OC2=O

>  <Name>  (740) 
nan

>  <Pocket>  (740) 
nan

>  <ATP_Site>  (740) 
nan

>  <Peripheral>  (740) 
nan

>  <Num_H_Atoms_ProtBoundConf>  (740) 
nan

>  <Num_Resolved_Atoms>  (740) 
nan

>  <Num_Not_Resolved_Atoms>  (740) 
nan

$$$$
CHEMBL4640055
     RDKit          3D

  0  0  0  0  0  0  0  0  0  0999 V3000
M  V30 BEGIN CTAB
M  V30 COUNTS 49 52 0 0 0
M  V30 BEGIN ATOM
M  V30 1 C 1.918478 1.714233 -3.049685 0
M  V30 2 C 2.838193 0.603973 -2.714646 0
M  V30 3 N 3.202932 -0.444819 -3.485213 0
M  V30 4 O 4.030902 -1.202172 -2.824032 0
M  V30 5 C 4.232280 -0.689755 -1.628923 0
M  V30 6 C 5.108480 -1.248980 -0.569566 0
M  V30 7 C 3.484557 0.481925 -1.501869 0
M  V30 8 C 3.447245 1.333252 -0.318385 0
M  V30 9 C 4.338724 2.374770 -0.162355 0
M  V30 10 N 4.285460 3.155764 0.949627 0
M  V30 11 C 3.359545 2.914024 1.904603 0
M  V30 12 N 3.301163 3.733271 3.074505 0
M  V30 13 C 2.454624 1.876531 1.772455 0
M  V30 14 O 1.485171 1.596702 2.736788 0
M  V30 15 C 0.568969 0.563078 2.625335 0
M  V30 16 C 0.730678 -0.732170 3.071452 0
M  V30 17 C -0.301125 -1.657989 2.877186 0
M  V30 18 C -1.485125 -1.326721 2.252072 0
M  V30 19 C -2.495676 -2.367121 2.100391 0
M  V30 20 O -2.211012 -3.504556 2.556027 0
M  V30 21 N -3.750079 -2.133518 1.471908 0
M  V30 22 C -4.768252 -3.111322 1.298756 0
M  V30 23 C -5.773249 -3.344231 2.224811 0
M  V30 24 C -6.744581 -4.319719 1.995736 0
M  V30 25 C -6.718271 -5.080325 0.822928 0
M  V30 26 C -5.702646 -4.831017 -0.092045 0
M  V30 27 C -4.733636 -3.853286 0.143337 0
M  V30 28 C -1.638265 -0.029532 1.809228 0
M  V30 29 C -0.622383 0.888909 1.998501 0
M  V30 30 N 2.533488 1.120153 0.657918 0
M  V30 31 H 1.137939 1.335746 -3.764536 0
M  V30 32 H 2.433891 2.544413 -3.571595 0
M  V30 33 H 1.345801 2.066012 -2.153438 0
M  V30 34 H 4.716352 -1.113931 0.454145 0
M  V30 35 H 6.137448 -0.804913 -0.613046 0
M  V30 36 H 5.242262 -2.335678 -0.718347 0
M  V30 37 H 5.069465 2.540574 -0.949242 0
M  V30 38 H 2.420668 4.288306 2.965554 0
M  V30 39 H 3.950694 3.804528 3.878052 0
M  V30 40 H 1.665637 -0.957016 3.554480 0
M  V30 41 H -0.078362 -2.656355 3.264929 0
M  V30 42 H -3.985734 -1.190635 1.094341 0
M  V30 43 H -5.780937 -2.753004 3.120254 0
M  V30 44 H -7.533727 -4.503663 2.721314 0
M  V30 45 H -7.465064 -5.841131 0.630599 0
M  V30 46 H -5.718492 -5.449360 -0.998245 0
M  V30 47 H -3.963392 -3.700488 -0.604912 0
M  V30 48 H -2.559876 0.248259 1.316897 0
M  V30 49 H -0.818260 1.891533 1.621549 0
M  V30 END ATOM
M  V30 BEGIN BOND
M  V30 1 1 1 2
M  V30 2 2 2 3
M  V30 3 1 3 4
M  V30 4 1 4 5
M  V30 5 1 5 6
M  V30 6 2 5 7
M  V30 7 1 7 8
M  V30 8 2 8 9
M  V30 9 1 9 10
M  V30 10 2 10 11
M  V30 11 1 11 12
M  V30 12 1 11 13
M  V30 13 1 13 14
M  V30 14 1 14 15
M  V30 15 2 15 16
M  V30 16 1 16 17
M  V30 17 2 17 18
M  V30 18 1 18 19
M  V30 19 2 19 20
M  V30 20 1 19 21
M  V30 21 1 21 22
M  V30 22 2 22 23
M  V30 23 1 23 24
M  V30 24 2 24 25
M  V30 25 1 25 26
M  V30 26 2 26 27
M  V30 27 1 18 28
M  V30 28 2 28 29
M  V30 29 2 13 30
M  V30 30 1 7 2
M  V30 31 1 30 8
M  V30 32 1 29 15
M  V30 33 1 27 22
M  V30 34 1 1 31
M  V30 35 1 1 32
M  V30 36 1 1 33
M  V30 37 1 6 34
M  V30 38 1 6 35
M  V30 39 1 6 36
M  V30 40 1 9 37
M  V30 41 1 12 38
M  V30 42 1 12 39
M  V30 43 1 16 40
M  V30 44 1 17 41
M  V30 45 1 21 42
M  V30 46 1 23 43
M  V30 47 1 24 44
M  V30 48 1 25 45
M  V30 49 1 26 46
M  V30 50 1 27 47
M  V30 51 1 28 48
M  V30 52 1 29 49
M  V30 END BOND
M  V30 END CTAB
M  END
>  <Dataset>  (741) 
ChEMBL_Kinases

>  <Ligand_Instance>  (741) 
nan

>  <PDB_ID>  (741) 
nan

>  <Standardized_SMILES>  (741) 
Cc1noc(C)c1-c1cnc(N)c(Oc2ccc(C(=O)Nc3ccccc3)cc2)n1

>  <Name>  (741) 
nan

>  <Pocket>  (741) 
nan

>  <ATP_Site>  (741) 
nan

>  <Peripheral>  (741) 
nan

>  <Num_H_Atoms_ProtBoundConf>  (741) 
nan

>  <Num_Resolved_Atoms>  (741) 
nan

>  <Num_Not_Resolved_Atoms>  (741) 
nan

$$$$
CHEMBL570820
     RDKit          3D

  0  0  0  0  0  0  0  0  0  0999 V3000
M  V30 BEGIN CTAB
M  V30 COUNTS 48 51 0 0 0
M  V30 BEGIN ATOM
M  V30 1 C -3.049968 3.181656 1.024110 0
M  V30 2 C -2.622707 3.025678 2.440368 0
M  V30 3 C -3.144453 3.664977 3.564349 0
M  V30 4 N -2.465592 3.241921 4.662935 0
M  V30 5 C -1.512442 2.347276 4.321801 0
M  V30 6 N -0.578437 1.630691 4.973473 0
M  V30 7 C 0.240273 0.798811 4.268035 0
M  V30 8 N 0.132816 0.678637 2.924830 0
M  V30 9 C -0.805089 1.394627 2.249338 0
M  V30 10 N -0.761113 1.119938 0.854976 0
M  V30 11 C -1.703841 0.528039 -0.109811 0
M  V30 12 C -1.155071 -0.741101 -0.689761 0
M  V30 13 N 0.270485 -0.889193 -0.465982 0
M  V30 14 C 0.778336 -2.219676 -0.429995 0
M  V30 15 O -0.223305 -2.937607 -0.615455 0
M  V30 16 N 2.093011 -2.656719 -0.233812 0
M  V30 17 C 2.120661 -4.088834 -0.278438 0
M  V30 18 C 2.332145 -4.619625 -1.547957 0
M  V30 19 C 2.382735 -6.003465 -1.740521 0
M  V30 20 C 2.218538 -6.816237 -0.646600 0
M  V30 21 F 2.257003 -8.182615 -0.765573 0
M  V30 22 C 2.008416 -6.307423 0.616431 0
M  V30 23 Br 1.781768 -7.443641 2.128102 0
M  V30 24 C 1.960645 -4.922846 0.791367 0
M  V30 25 C 1.151836 0.248184 -0.285537 0 CFG=1
M  V30 26 C 1.867446 0.569045 -1.587783 0
M  V30 27 C 0.472892 1.490086 0.180046 0
M  V30 28 C -1.623246 2.226047 2.952134 0
M  V30 29 H -2.187532 3.335978 0.344938 0
M  V30 30 H -3.746872 2.420832 0.674683 0
M  V30 31 H -3.595216 4.170004 0.994126 0
M  V30 32 H -3.947486 4.376302 3.586576 0
M  V30 33 H -2.646217 3.558610 5.649470 0
M  V30 34 H 0.982140 0.238331 4.838999 0
M  V30 35 H -2.668034 0.308194 0.366200 0
M  V30 36 H -1.818371 1.262815 -0.932593 0
M  V30 37 H -1.418253 -0.791225 -1.757245 0
M  V30 38 H -1.672525 -1.619616 -0.205931 0
M  V30 39 H 2.789101 -1.891560 -0.095689 0
M  V30 40 H 2.466508 -4.015064 -2.437298 0
M  V30 41 H 2.547978 -6.448903 -2.729992 0
M  V30 42 H 1.798459 -4.456889 1.759714 0
M  V30 43 H 1.942957 -0.109645 0.419588 0
M  V30 44 H 1.163206 0.543524 -2.450960 0
M  V30 45 H 2.713272 -0.107757 -1.698313 0
M  V30 46 H 2.217628 1.619343 -1.501613 0
M  V30 47 H 0.208422 2.098285 -0.718163 0
M  V30 48 H 1.191117 2.024597 0.833159 0
M  V30 END ATOM
M  V30 BEGIN BOND
M  V30 1 1 1 2
M  V30 2 2 2 3
M  V30 3 1 3 4
M  V30 4 1 4 5
M  V30 5 2 5 6
M  V30 6 1 6 7
M  V30 7 2 7 8
M  V30 8 1 8 9
M  V30 9 1 9 10
M  V30 10 1 10 11
M  V30 11 1 11 12
M  V30 12 1 12 13
M  V30 13 1 13 14
M  V30 14 2 14 15
M  V30 15 1 14 16
M  V30 16 1 16 17
M  V30 17 2 17 18
M  V30 18 1 18 19
M  V30 19 2 19 20
M  V30 20 1 20 21
M  V30 21 1 20 22
M  V30 22 1 22 23
M  V30 23 2 22 24
M  V30 24 1 13 25
M  V30 25 1 25 26
M  V30 26 1 25 27
M  V30 27 2 9 28
M  V30 28 1 28 2
M  V30 29 1 28 5
M  V30 30 1 27 10
M  V30 31 1 24 17
M  V30 32 1 1 29
M  V30 33 1 1 30
M  V30 34 1 1 31
M  V30 35 1 3 32
M  V30 36 1 4 33
M  V30 37 1 7 34
M  V30 38 1 11 35
M  V30 39 1 11 36
M  V30 40 1 12 37
M  V30 41 1 12 38
M  V30 42 1 16 39
M  V30 43 1 18 40
M  V30 44 1 19 41
M  V30 45 1 24 42
M  V30 46 1 25 43 CFG=1
M  V30 47 1 26 44
M  V30 48 1 26 45
M  V30 49 1 26 46
M  V30 50 1 27 47
M  V30 51 1 27 48
M  V30 END BOND
M  V30 END CTAB
M  END
>  <Dataset>  (742) 
ChEMBL_Kinases

>  <Ligand_Instance>  (742) 
nan

>  <PDB_ID>  (742) 
nan

>  <Standardized_SMILES>  (742) 
Cc1c[nH]c2ncnc(N3CCN(C(=O)Nc4ccc(F)c(Br)c4)[C@@H](C)C3)c12

>  <Name>  (742) 
nan

>  <Pocket>  (742) 
nan

>  <ATP_Site>  (742) 
nan

>  <Peripheral>  (742) 
nan

>  <Num_H_Atoms_ProtBoundConf>  (742) 
nan

>  <Num_Resolved_Atoms>  (742) 
nan

>  <Num_Not_Resolved_Atoms>  (742) 
nan

$$$$
CHEMBL209308
     RDKit          3D

  0  0  0  0  0  0  0  0  0  0999 V3000
M  V30 BEGIN CTAB
M  V30 COUNTS 58 59 0 0 0
M  V30 BEGIN ATOM
M  V30 1 C -1.479082 -3.746037 2.128183 0
M  V30 2 C -0.074015 -3.188608 2.246523 0
M  V30 3 C -0.210998 -1.957681 3.120883 0
M  V30 4 C 0.654107 -2.938445 0.996854 0
M  V30 5 C 2.032524 -2.388486 1.211659 0
M  V30 6 C 2.121456 -1.099461 1.887259 0
M  V30 7 O 2.286382 -0.322018 2.859360 0
M  V30 8 O 1.920045 -0.016823 1.035441 0
M  V30 9 C 1.983645 1.315059 1.485473 0
M  V30 10 C 1.755192 2.349092 0.439487 0
M  V30 11 C 2.006120 3.754988 0.962559 0
M  V30 12 O 1.219161 4.075031 2.040952 0
M  V30 13 C 0.385142 2.258329 -0.176035 0
M  V30 14 C 0.606104 1.165266 -1.159643 0
M  V30 15 C -0.369352 0.359271 -1.606754 0
M  V30 16 C -1.775827 0.381871 -1.246261 0
M  V30 17 C -2.436776 -0.742126 -0.771457 0
M  V30 18 C -3.775576 -0.833106 -0.419659 0
M  V30 19 C -4.532814 0.316822 -0.556365 0
M  V30 20 C -3.957432 1.476123 -1.022766 0
M  V30 21 C -2.620462 1.490307 -1.352618 0
M  V30 22 O -2.149121 2.692112 -1.810162 0
M  V30 23 C 2.029728 1.218898 -1.466578 0
M  V30 24 O 2.499619 0.448595 -2.335391 0
M  V30 25 O 2.652525 2.203077 -0.664172 0
M  V30 26 C 0.708086 -4.080633 0.006684 0
M  V30 27 C -0.559286 -4.586768 -0.545249 0
M  V30 28 C 1.630848 -3.710559 -1.162407 0
M  V30 29 H -1.886987 -3.725973 3.203183 0
M  V30 30 H -1.518129 -4.812574 1.862839 0
M  V30 31 H -2.182607 -3.083066 1.601770 0
M  V30 32 H 0.521271 -3.941734 2.842397 0
M  V30 33 H 0.512995 -1.956482 3.945740 0
M  V30 34 H -0.252149 -1.081119 2.490450 0
M  V30 35 H -1.219199 -1.969368 3.654352 0
M  V30 36 H 0.114823 -2.100133 0.431383 0
M  V30 37 H 2.586960 -3.140531 1.848920 0
M  V30 38 H 2.607079 -2.316764 0.254495 0
M  V30 39 H 2.963367 1.494051 2.022766 0
M  V30 40 H 1.224991 1.444815 2.316832 0
M  V30 41 H 3.096390 3.812612 1.166841 0
M  V30 42 H 1.794079 4.431803 0.115622 0
M  V30 43 H 1.670068 3.784752 2.865163 0
M  V30 44 H -0.333456 1.974630 0.619285 0
M  V30 45 H 0.130192 3.236883 -0.652317 0
M  V30 46 H -0.030319 -0.398382 -2.332751 0
M  V30 47 H -1.914676 -1.679637 -0.642452 0
M  V30 48 H -4.221028 -1.756125 -0.051042 0
M  V30 49 H -5.577766 0.275322 -0.287382 0
M  V30 50 H -4.580652 2.343250 -1.114717 0
M  V30 51 H -2.334122 3.556184 -1.306365 0
M  V30 52 H 1.244654 -4.929452 0.534477 0
M  V30 53 H -1.469900 -4.018139 -0.380886 0
M  V30 54 H -0.739462 -5.631322 -0.151895 0
M  V30 55 H -0.470384 -4.758548 -1.662471 0
M  V30 56 H 1.336117 -4.361830 -2.017379 0
M  V30 57 H 2.682915 -3.953903 -0.948133 0
M  V30 58 H 1.439598 -2.671162 -1.467260 0
M  V30 END ATOM
M  V30 BEGIN BOND
M  V30 1 1 1 2
M  V30 2 1 2 3
M  V30 3 1 2 4
M  V30 4 1 4 5
M  V30 5 1 5 6
M  V30 6 2 6 7
M  V30 7 1 6 8
M  V30 8 1 8 9
M  V30 9 1 9 10
M  V30 10 1 10 11
M  V30 11 1 11 12
M  V30 12 1 10 13
M  V30 13 1 13 14
M  V30 14 2 14 15
M  V30 15 1 15 16
M  V30 16 2 16 17
M  V30 17 1 17 18
M  V30 18 2 18 19
M  V30 19 1 19 20
M  V30 20 2 20 21
M  V30 21 1 21 22
M  V30 22 1 14 23
M  V30 23 2 23 24
M  V30 24 1 23 25
M  V30 25 1 4 26
M  V30 26 1 26 27
M  V30 27 1 26 28
M  V30 28 1 25 10
M  V30 29 1 21 16
M  V30 30 1 1 29
M  V30 31 1 1 30
M  V30 32 1 1 31
M  V30 33 1 2 32
M  V30 34 1 3 33
M  V30 35 1 3 34
M  V30 36 1 3 35
M  V30 37 1 4 36
M  V30 38 1 5 37
M  V30 39 1 5 38
M  V30 40 1 9 39
M  V30 41 1 9 40
M  V30 42 1 11 41
M  V30 43 1 11 42
M  V30 44 1 12 43
M  V30 45 1 13 44
M  V30 46 1 13 45
M  V30 47 1 15 46
M  V30 48 1 17 47
M  V30 49 1 18 48
M  V30 50 1 19 49
M  V30 51 1 20 50
M  V30 52 1 22 51
M  V30 53 1 26 52
M  V30 54 1 27 53
M  V30 55 1 27 54
M  V30 56 1 27 55
M  V30 57 1 28 56
M  V30 58 1 28 57
M  V30 59 1 28 58
M  V30 END BOND
M  V30 END CTAB
M  END
>  <Dataset>  (743) 
ChEMBL_Kinases

>  <Ligand_Instance>  (743) 
nan

>  <PDB_ID>  (743) 
nan

>  <Standardized_SMILES>  (743) 
CC(C)C(CC(=O)OCC1(CO)C/C(=C\c2ccccc2O)C(=O)O1)C(C)C

>  <Name>  (743) 
nan

>  <Pocket>  (743) 
nan

>  <ATP_Site>  (743) 
nan

>  <Peripheral>  (743) 
nan

>  <Num_H_Atoms_ProtBoundConf>  (743) 
nan

>  <Num_Resolved_Atoms>  (743) 
nan

>  <Num_Not_Resolved_Atoms>  (743) 
nan

$$$$
CHEMBL4593941
     RDKit          3D

  0  0  0  0  0  0  0  0  0  0999 V3000
M  V30 BEGIN CTAB
M  V30 COUNTS 28 29 0 0 0
M  V30 BEGIN ATOM
M  V30 1 C -0.626239 -0.198498 3.500201 0
M  V30 2 C -0.557527 -0.402171 2.037162 0
M  V30 3 C 0.594483 -0.652653 1.319111 0
M  V30 4 C 0.578762 -0.834188 -0.053173 0
M  V30 5 C 1.868337 -1.090822 -0.675643 0
M  V30 6 C 3.029997 -0.544664 -0.167620 0
M  V30 7 C 4.264448 -0.777302 -0.745192 0
M  V30 8 C 4.383930 -1.573520 -1.864149 0
M  V30 9 N 3.248729 -2.106427 -2.359458 0
M  V30 10 C 2.042592 -1.885229 -1.803592 0
M  V30 11 C -0.620300 -0.765015 -0.736757 0
M  V30 12 C -1.794798 -0.515722 -0.050054 0
M  V30 13 C -1.733196 -0.340916 1.317005 0
M  V30 14 C -3.052398 -0.085781 1.884512 0
M  V30 15 N -3.560317 0.164469 3.185926 0
M  V30 16 O -4.185858 -0.013250 1.325961 0
M  V30 17 H 0.331407 -0.526546 4.001059 0
M  V30 18 H -0.884544 0.849395 3.720437 0
M  V30 19 H -1.420648 -0.840235 3.935331 0
M  V30 20 H 1.507930 -0.699920 1.878342 0
M  V30 21 H 3.003465 0.082096 0.699131 0
M  V30 22 H 5.162299 -0.333754 -0.323240 0
M  V30 23 H 5.323911 -1.787425 -2.353937 0
M  V30 24 H 1.137520 -2.330147 -2.225933 0
M  V30 25 H -0.567813 -0.915087 -1.803367 0
M  V30 26 H -2.671774 -0.480337 -0.661310 0
M  V30 27 H -3.337207 0.659614 4.076386 0
M  V30 28 H -3.259587 0.691048 4.045471 0
M  V30 END ATOM
M  V30 BEGIN BOND
M  V30 1 1 1 2
M  V30 2 2 2 3
M  V30 3 1 3 4
M  V30 4 1 4 5
M  V30 5 2 5 6
M  V30 6 1 6 7
M  V30 7 2 7 8
M  V30 8 1 8 9
M  V30 9 2 9 10
M  V30 10 2 4 11
M  V30 11 1 11 12
M  V30 12 2 12 13
M  V30 13 1 13 14
M  V30 14 1 14 15
M  V30 15 2 14 16
M  V30 16 1 13 2
M  V30 17 1 10 5
M  V30 18 1 1 17
M  V30 19 1 1 18
M  V30 20 1 1 19
M  V30 21 1 3 20
M  V30 22 1 6 21
M  V30 23 1 7 22
M  V30 24 1 8 23
M  V30 25 1 10 24
M  V30 26 1 11 25
M  V30 27 1 12 26
M  V30 28 1 15 27
M  V30 29 1 15 28
M  V30 END BOND
M  V30 END CTAB
M  END
>  <Dataset>  (744) 
ChEMBL_Kinases

>  <Ligand_Instance>  (744) 
nan

>  <PDB_ID>  (744) 
nan

>  <Standardized_SMILES>  (744) 
Cc1cc(-c2cccnc2)ccc1C(N)=O

>  <Name>  (744) 
nan

>  <Pocket>  (744) 
nan

>  <ATP_Site>  (744) 
nan

>  <Peripheral>  (744) 
nan

>  <Num_H_Atoms_ProtBoundConf>  (744) 
nan

>  <Num_Resolved_Atoms>  (744) 
nan

>  <Num_Not_Resolved_Atoms>  (744) 
nan

$$$$
CHEMBL1098546
     RDKit          3D

  0  0  0  0  0  0  0  0  0  0999 V3000
M  V30 BEGIN CTAB
M  V30 COUNTS 46 50 0 0 0
M  V30 BEGIN ATOM
M  V30 1 C 8.712029 0.622093 -1.288155 0
M  V30 2 C 7.320128 1.184988 -1.266354 0
M  V30 3 N 6.878106 2.316419 -1.871170 0
M  V30 4 N 5.570503 2.456119 -1.600832 0
M  V30 5 C 5.218793 1.413142 -0.834262 0
M  V30 6 C 3.883067 1.153739 -0.299905 0
M  V30 7 C 2.811197 1.990350 -0.541958 0
M  V30 8 C 1.556917 1.727332 -0.027706 0
M  V30 9 F 0.486182 2.517477 -0.240234 0
M  V30 10 C 1.340900 0.603080 0.753662 0
M  V30 11 C 0.076401 0.199404 1.361052 0
M  V30 12 C -0.219175 0.663715 2.644607 0
M  V30 13 O 0.600820 1.409832 3.240447 0
M  V30 14 C -1.379955 0.363347 3.345601 0
M  V30 15 C -2.295665 -0.458964 2.702485 0
M  V30 16 N -2.013605 -0.908309 1.464821 0
M  V30 17 C -2.941543 -1.705079 0.887730 0
M  V30 18 C -4.200985 -2.106085 1.494861 0
M  V30 19 C -4.120676 -3.283792 2.229942 0
M  V30 20 C -5.267278 -3.751889 2.848920 0
M  V30 21 C -6.494143 -3.131523 2.790195 0
M  V30 22 F -7.596492 -3.618757 3.409209 0
M  V30 23 C -6.534266 -1.955932 2.045331 0
M  V30 24 C -5.409794 -1.455986 1.412009 0
M  V30 25 F -5.413457 -0.317805 0.681088 0
M  V30 26 C -2.741873 -2.220341 -0.391324 0
M  V30 27 C -1.561078 -1.897208 -1.068472 0
M  V30 28 C -0.612024 -1.081494 -0.476587 0
M  V30 29 C -0.885461 -0.612249 0.791988 0
M  V30 30 C 2.409314 -0.238088 0.999590 0
M  V30 31 F 2.291839 -1.373727 1.761139 0
M  V30 32 C 3.658777 0.035395 0.479946 0
M  V30 33 O 6.280297 0.664915 -0.646085 0
M  V30 34 H 8.884285 -0.034664 -2.151795 0
M  V30 35 H 8.800577 -0.039404 -0.377293 0
M  V30 36 H 9.458208 1.438303 -1.178376 0
M  V30 37 H 2.948790 2.887661 -1.156012 0
M  V30 38 H -1.545070 0.752392 4.327591 0
M  V30 39 H -3.216779 -0.715296 3.221993 0
M  V30 40 H -3.191312 -3.863101 2.344765 0
M  V30 41 H -5.246716 -4.672714 3.435374 0
M  V30 42 H -7.474834 -1.419635 1.961274 0
M  V30 43 H -3.401578 -2.855673 -0.942330 0
M  V30 44 H -1.325792 -2.259390 -2.075049 0
M  V30 45 H 0.297075 -0.831697 -0.995863 0
M  V30 46 H 4.493643 -0.637373 0.682045 0
M  V30 END ATOM
M  V30 BEGIN BOND
M  V30 1 1 1 2
M  V30 2 2 2 3
M  V30 3 1 3 4
M  V30 4 2 4 5
M  V30 5 1 5 6
M  V30 6 2 6 7
M  V30 7 1 7 8
M  V30 8 1 8 9
M  V30 9 2 8 10
M  V30 10 1 10 11
M  V30 11 1 11 12
M  V30 12 2 12 13
M  V30 13 1 12 14
M  V30 14 2 14 15
M  V30 15 1 15 16
M  V30 16 1 16 17
M  V30 17 1 17 18
M  V30 18 2 18 19
M  V30 19 1 19 20
M  V30 20 2 20 21
M  V30 21 1 21 22
M  V30 22 1 21 23
M  V30 23 2 23 24
M  V30 24 1 24 25
M  V30 25 2 17 26
M  V30 26 1 26 27
M  V30 27 2 27 28
M  V30 28 1 28 29
M  V30 29 1 10 30
M  V30 30 1 30 31
M  V30 31 2 30 32
M  V30 32 1 5 33
M  V30 33 1 33 2
M  V30 34 1 32 6
M  V30 35 2 29 11
M  V30 36 1 29 16
M  V30 37 1 24 18
M  V30 38 1 1 34
M  V30 39 1 1 35
M  V30 40 1 1 36
M  V30 41 1 7 37
M  V30 42 1 14 38
M  V30 43 1 15 39
M  V30 44 1 19 40
M  V30 45 1 20 41
M  V30 46 1 23 42
M  V30 47 1 26 43
M  V30 48 1 27 44
M  V30 49 1 28 45
M  V30 50 1 32 46
M  V30 END BOND
M  V30 END CTAB
M  END
>  <Dataset>  (745) 
ChEMBL_Kinases

>  <Ligand_Instance>  (745) 
nan

>  <PDB_ID>  (745) 
nan

>  <Standardized_SMILES>  (745) 
Cc1nnc(-c2cc(F)c(-c3c(=O)ccn4c(-c5ccc(F)cc5F)cccc34)c(F)c2)o1

>  <Name>  (745) 
nan

>  <Pocket>  (745) 
nan

>  <ATP_Site>  (745) 
nan

>  <Peripheral>  (745) 
nan

>  <Num_H_Atoms_ProtBoundConf>  (745) 
nan

>  <Num_Resolved_Atoms>  (745) 
nan

>  <Num_Not_Resolved_Atoms>  (745) 
nan

$$$$
CHEMBL211584
     RDKit          3D

  0  0  0  0  0  0  0  0  0  0999 V3000
M  V30 BEGIN CTAB
M  V30 COUNTS 50 52 0 0 0
M  V30 BEGIN ATOM
M  V30 1 C 0.820470 -4.436107 2.149081 0
M  V30 2 C 2.011758 -5.364006 2.262699 0
M  V30 3 O 2.312256 -5.864096 0.950284 0
M  V30 4 C 2.631245 -4.897669 -0.012174 0
M  V30 5 N 2.660559 -3.581689 0.257905 0
M  V30 6 C 2.959273 -2.623446 -0.629783 0
M  V30 7 C 2.955587 -1.227072 -0.173742 0
M  V30 8 O 3.204118 -0.275752 -0.959338 0
M  V30 9 N 2.672733 -0.890836 1.171706 0
M  V30 10 C 2.619869 0.385830 1.804984 0
M  V30 11 C 1.360415 1.106533 1.491238 0
M  V30 12 C 1.068087 1.978274 0.465733 0
M  V30 13 C -0.192935 2.537633 0.383425 0
M  V30 14 C -1.162160 2.232342 1.316840 0
M  V30 15 C -2.496461 2.817663 1.247197 0
M  V30 16 C -2.931043 3.703226 0.282922 0
M  V30 17 C -4.188340 4.236499 0.246977 0
M  V30 18 C -5.107520 3.883230 1.229764 0
M  V30 19 C -6.479578 4.364037 1.331166 0
M  V30 20 O -7.300217 4.028786 2.234738 0
M  V30 21 O -7.121853 5.253134 0.480338 0
M  V30 22 C -4.708449 3.002707 2.206324 0
M  V30 23 C -3.429231 2.478790 2.217300 0
M  V30 24 N -0.857249 1.367242 2.325253 0
M  V30 25 C 0.363482 0.814173 2.421024 0
M  V30 26 C 3.268037 -2.925261 -1.924243 0
M  V30 27 C 3.249044 -4.287820 -2.246556 0
M  V30 28 N 3.559140 -4.731730 -3.581087 0
M  V30 29 C 2.937381 -5.245521 -1.308633 0
M  V30 30 C 2.911613 -6.659637 -1.617290 0
M  V30 31 N 2.876634 -7.789028 -1.852749 0
M  V30 32 H 0.520432 -4.327890 1.085440 0
M  V30 33 H -0.081296 -4.889322 2.650930 0
M  V30 34 H 0.993886 -3.439745 2.575978 0
M  V30 35 H 1.833920 -6.195842 2.969217 0
M  V30 36 H 2.905508 -4.773699 2.559392 0
M  V30 37 H 2.470036 -1.719158 1.796961 0
M  V30 38 H 2.810733 0.317274 2.884108 0
M  V30 39 H 3.513918 0.956936 1.404084 0
M  V30 40 H 1.905932 2.135966 -0.197215 0
M  V30 41 H -0.365249 3.207108 -0.431717 0
M  V30 42 H -2.235977 3.990257 -0.487775 0
M  V30 43 H -4.532356 4.929626 -0.506678 0
M  V30 44 H -8.096785 5.138850 0.172041 0
M  V30 45 H -5.372359 2.686754 2.998776 0
M  V30 46 H -3.138094 1.780097 3.005710 0
M  V30 47 H 0.446845 0.141280 3.288243 0
M  V30 48 H 3.513348 -2.184279 -2.666231 0
M  V30 49 H 4.085667 -5.618838 -3.674311 0
M  V30 50 H 3.256751 -4.167243 -4.428993 0
M  V30 END ATOM
M  V30 BEGIN BOND
M  V30 1 1 1 2
M  V30 2 1 2 3
M  V30 3 1 3 4
M  V30 4 2 4 5
M  V30 5 1 5 6
M  V30 6 1 6 7
M  V30 7 2 7 8
M  V30 8 1 7 9
M  V30 9 1 9 10
M  V30 10 1 10 11
M  V30 11 2 11 12
M  V30 12 1 12 13
M  V30 13 2 13 14
M  V30 14 1 14 15
M  V30 15 2 15 16
M  V30 16 1 16 17
M  V30 17 2 17 18
M  V30 18 1 18 19
M  V30 19 2 19 20
M  V30 20 1 19 21
M  V30 21 1 18 22
M  V30 22 2 22 23
M  V30 23 1 14 24
M  V30 24 2 24 25
M  V30 25 2 6 26
M  V30 26 1 26 27
M  V30 27 1 27 28
M  V30 28 2 27 29
M  V30 29 1 29 30
M  V30 30 3 30 31
M  V30 31 1 29 4
M  V30 32 1 25 11
M  V30 33 1 23 15
M  V30 34 1 1 32
M  V30 35 1 1 33
M  V30 36 1 1 34
M  V30 37 1 2 35
M  V30 38 1 2 36
M  V30 39 1 9 37
M  V30 40 1 10 38
M  V30 41 1 10 39
M  V30 42 1 12 40
M  V30 43 1 13 41
M  V30 44 1 16 42
M  V30 45 1 17 43
M  V30 46 1 21 44
M  V30 47 1 22 45
M  V30 48 1 23 46
M  V30 49 1 25 47
M  V30 50 1 26 48
M  V30 51 1 28 49
M  V30 52 1 28 50
M  V30 END BOND
M  V30 END CTAB
M  END
>  <Dataset>  (746) 
ChEMBL_Kinases

>  <Ligand_Instance>  (746) 
nan

>  <PDB_ID>  (746) 
nan

>  <Standardized_SMILES>  (746) 
CCOc1nc(C(=O)NCc2ccc(-c3ccc(C(=O)O)cc3)nc2)cc(N)c1C#N

>  <Name>  (746) 
nan

>  <Pocket>  (746) 
nan

>  <ATP_Site>  (746) 
nan

>  <Peripheral>  (746) 
nan

>  <Num_H_Atoms_ProtBoundConf>  (746) 
nan

>  <Num_Resolved_Atoms>  (746) 
nan

>  <Num_Not_Resolved_Atoms>  (746) 
nan

$$$$
CHEMBL1098524
     RDKit          3D

  0  0  0  0  0  0  0  0  0  0999 V3000
M  V30 BEGIN CTAB
M  V30 COUNTS 38 41 0 0 0
M  V30 BEGIN ATOM
M  V30 1 O 0.888991 -4.077555 1.315034 0
M  V30 2 C 0.892760 -2.836866 1.075471 0
M  V30 3 C 2.028487 -2.172803 0.604558 0
M  V30 4 C 1.998866 -0.805999 0.350851 0
M  V30 5 N 0.840883 -0.189802 0.582461 0
M  V30 6 C 0.809787 1.134255 0.337417 0
M  V30 7 C 1.935080 1.947749 -0.159054 0
M  V30 8 C 1.938305 1.982484 -1.554362 0
M  V30 9 C 2.945600 2.715068 -2.187880 0
M  V30 10 C 3.920420 3.392608 -1.449052 0
M  V30 11 F 4.897716 4.103396 -2.064439 0
M  V30 12 C 3.860569 3.317900 -0.070126 0
M  V30 13 C 2.869623 2.596506 0.583160 0
M  V30 14 F 2.744515 2.476348 1.916444 0
M  V30 15 C -0.351467 1.854288 0.550064 0
M  V30 16 C -1.510257 1.244589 1.017500 0
M  V30 17 C -1.468239 -0.120915 1.267207 0
M  V30 18 C -0.279660 -0.770165 1.032699 0
M  V30 19 C -0.291286 -2.125673 1.296703 0
M  V30 20 C -1.454037 -2.858425 1.788980 0
M  V30 21 C -2.228168 -3.348329 0.742108 0
M  V30 22 F -2.005431 -3.209802 -0.587020 0
M  V30 23 C -3.387510 -4.079265 1.009968 0
M  V30 24 C -3.752205 -4.307344 2.331773 0
M  V30 25 C -2.974101 -3.814966 3.357218 0
M  V30 26 C -1.826224 -3.091257 3.092291 0
M  V30 27 F -0.993356 -2.564476 4.019021 0
M  V30 28 H 2.901009 -2.767925 0.455179 0
M  V30 29 H 2.857805 -0.291276 -0.007698 0
M  V30 30 H 1.242629 1.502397 -2.229344 0
M  V30 31 H 3.002716 2.781014 -3.273905 0
M  V30 32 H 4.586863 3.821296 0.540718 0
M  V30 33 H -0.455507 2.914098 0.377847 0
M  V30 34 H -2.442003 1.765027 1.199132 0
M  V30 35 H -2.352926 -0.599925 1.626668 0
M  V30 36 H -4.042628 -4.493672 0.245986 0
M  V30 37 H -4.650770 -4.873863 2.541000 0
M  V30 38 H -3.222129 -3.969855 4.407603 0
M  V30 END ATOM
M  V30 BEGIN BOND
M  V30 1 2 1 2
M  V30 2 1 2 3
M  V30 3 2 3 4
M  V30 4 1 4 5
M  V30 5 1 5 6
M  V30 6 1 6 7
M  V30 7 2 7 8
M  V30 8 1 8 9
M  V30 9 2 9 10
M  V30 10 1 10 11
M  V30 11 1 10 12
M  V30 12 2 12 13
M  V30 13 1 13 14
M  V30 14 2 6 15
M  V30 15 1 15 16
M  V30 16 2 16 17
M  V30 17 1 17 18
M  V30 18 2 18 19
M  V30 19 1 19 20
M  V30 20 2 20 21
M  V30 21 1 21 22
M  V30 22 1 21 23
M  V30 23 2 23 24
M  V30 24 1 24 25
M  V30 25 2 25 26
M  V30 26 1 26 27
M  V30 27 1 19 2
M  V30 28 1 26 20
M  V30 29 1 18 5
M  V30 30 1 13 7
M  V30 31 1 3 28
M  V30 32 1 4 29
M  V30 33 1 8 30
M  V30 34 1 9 31
M  V30 35 1 12 32
M  V30 36 1 15 33
M  V30 37 1 16 34
M  V30 38 1 17 35
M  V30 39 1 23 36
M  V30 40 1 24 37
M  V30 41 1 25 38
M  V30 END BOND
M  V30 END CTAB
M  END
>  <Dataset>  (747) 
ChEMBL_Kinases

>  <Ligand_Instance>  (747) 
nan

>  <PDB_ID>  (747) 
nan

>  <Standardized_SMILES>  (747) 
O=c1ccn2c(-c3ccc(F)cc3F)cccc2c1-c1c(F)cccc1F

>  <Name>  (747) 
nan

>  <Pocket>  (747) 
nan

>  <ATP_Site>  (747) 
nan

>  <Peripheral>  (747) 
nan

>  <Num_H_Atoms_ProtBoundConf>  (747) 
nan

>  <Num_Resolved_Atoms>  (747) 
nan

>  <Num_Not_Resolved_Atoms>  (747) 
nan

$$$$
CHEMBL214025
     RDKit          3D

  0  0  0  0  0  0  0  0  0  0999 V3000
M  V30 BEGIN CTAB
M  V30 COUNTS 50 52 0 0 0
M  V30 BEGIN ATOM
M  V30 1 C 1.692629 -0.850408 5.927722 0
M  V30 2 C 2.049973 -2.305322 5.757903 0
M  V30 3 O 2.342498 -2.639811 4.406415 0
M  V30 4 C 3.399236 -1.964470 3.811307 0
M  V30 5 O 4.137112 -1.085520 4.322922 0
M  V30 6 N 3.674506 -2.311709 2.465653 0
M  V30 7 C 4.725637 -1.740403 1.644996 0
M  V30 8 C 4.231769 -1.625327 0.196938 0
M  V30 9 C 2.760317 -1.327988 0.291759 0
M  V30 10 N 2.234753 -0.682245 -0.877684 0
M  V30 11 C 0.852636 -0.302549 -1.012588 0
M  V30 12 N 0.348307 0.295388 -2.086361 0
M  V30 13 C -0.966220 0.607324 -2.104964 0
M  V30 14 C -1.801155 0.324870 -1.045111 0
M  V30 15 C -3.221903 0.633408 -0.996740 0
M  V30 16 O -3.874200 0.338172 0.025647 0
M  V30 17 C -4.110443 1.260601 -1.960289 0
M  V30 18 C -4.150027 0.951943 -3.303220 0
M  V30 19 C -4.985801 1.535770 -4.223162 0
M  V30 20 C -5.855312 2.500472 -3.799322 0
M  V30 21 C -5.867560 2.853812 -2.480201 0
M  V30 22 C -5.014709 2.246800 -1.585093 0
M  V30 23 F -5.054385 2.622430 -0.283804 0
M  V30 24 C -1.268860 -0.287886 0.047384 0
M  V30 25 N -2.003727 -0.637393 1.205378 0
M  V30 26 N 0.047996 -0.583982 0.029536 0
M  V30 27 C 2.085899 -2.631561 0.622402 0
M  V30 28 C 2.934641 -3.301073 1.706910 0
M  V30 29 H 1.096202 -0.803558 6.881743 0
M  V30 30 H 1.007935 -0.483510 5.131482 0
M  V30 31 H 2.554612 -0.195951 6.093367 0
M  V30 32 H 1.204482 -2.919654 6.103948 0
M  V30 33 H 2.900585 -2.507234 6.443386 0
M  V30 34 H 5.681165 -2.281847 1.715382 0
M  V30 35 H 4.945856 -0.684464 1.938463 0
M  V30 36 H 4.811788 -0.893939 -0.371270 0
M  V30 37 H 4.407339 -2.626236 -0.249967 0
M  V30 38 H 2.614953 -0.652167 1.162773 0
M  V30 39 H 2.841439 -0.452232 -1.703145 0
M  V30 40 H -1.386488 1.094832 -2.972489 0
M  V30 41 H -3.484339 0.196468 -3.683342 0
M  V30 42 H -4.962153 1.240710 -5.273596 0
M  V30 43 H -6.547138 3.008648 -4.464680 0
M  V30 44 H -6.546779 3.613168 -2.126613 0
M  V30 45 H -1.854111 -0.217515 2.144453 0
M  V30 46 H -2.777922 -1.293927 1.454013 0
M  V30 47 H 1.038241 -2.563266 0.907431 0
M  V30 48 H 2.157920 -3.256062 -0.308078 0
M  V30 49 H 2.216281 -3.831994 2.372462 0
M  V30 50 H 3.638043 -4.025050 1.269207 0
M  V30 END ATOM
M  V30 BEGIN BOND
M  V30 1 1 1 2
M  V30 2 1 2 3
M  V30 3 1 3 4
M  V30 4 2 4 5
M  V30 5 1 4 6
M  V30 6 1 6 7
M  V30 7 1 7 8
M  V30 8 1 8 9
M  V30 9 1 9 10
M  V30 10 1 10 11
M  V30 11 2 11 12
M  V30 12 1 12 13
M  V30 13 2 13 14
M  V30 14 1 14 15
M  V30 15 2 15 16
M  V30 16 1 15 17
M  V30 17 2 17 18
M  V30 18 1 18 19
M  V30 19 2 19 20
M  V30 20 1 20 21
M  V30 21 2 21 22
M  V30 22 1 22 23
M  V30 23 1 14 24
M  V30 24 1 24 25
M  V30 25 2 24 26
M  V30 26 1 9 27
M  V30 27 1 27 28
M  V30 28 1 28 6
M  V30 29 1 26 11
M  V30 30 1 22 17
M  V30 31 1 1 29
M  V30 32 1 1 30
M  V30 33 1 1 31
M  V30 34 1 2 32
M  V30 35 1 2 33
M  V30 36 1 7 34
M  V30 37 1 7 35
M  V30 38 1 8 36
M  V30 39 1 8 37
M  V30 40 1 9 38
M  V30 41 1 10 39
M  V30 42 1 13 40
M  V30 43 1 18 41
M  V30 44 1 19 42
M  V30 45 1 20 43
M  V30 46 1 21 44
M  V30 47 1 25 45
M  V30 48 1 25 46
M  V30 49 1 27 47
M  V30 50 1 27 48
M  V30 51 1 28 49
M  V30 52 1 28 50
M  V30 END BOND
M  V30 END CTAB
M  END
>  <Dataset>  (748) 
ChEMBL_Kinases

>  <Ligand_Instance>  (748) 
nan

>  <PDB_ID>  (748) 
nan

>  <Standardized_SMILES>  (748) 
CCOC(=O)N1CCC(Nc2ncc(C(=O)c3ccccc3F)c(N)n2)CC1

>  <Name>  (748) 
nan

>  <Pocket>  (748) 
nan

>  <ATP_Site>  (748) 
nan

>  <Peripheral>  (748) 
nan

>  <Num_H_Atoms_ProtBoundConf>  (748) 
nan

>  <Num_Resolved_Atoms>  (748) 
nan

>  <Num_Not_Resolved_Atoms>  (748) 
nan

$$$$
CHEMBL2064521
     RDKit          3D

  0  0  0  0  0  0  0  0  0  0999 V3000
M  V30 BEGIN CTAB
M  V30 COUNTS 31 33 0 0 0
M  V30 BEGIN ATOM
M  V30 1 N 1.453642 -2.483815 3.898798 0
M  V30 2 C 1.113055 -2.892834 2.883564 0
M  V30 3 C 0.666410 -3.409277 1.615653 0
M  V30 4 C 1.249065 -4.559044 1.122664 0
M  V30 5 C 0.797558 -5.021113 -0.091479 0
M  V30 6 C -0.192379 -4.334626 -0.748594 0
M  V30 7 C -0.776773 -3.171865 -0.242746 0
M  V30 8 C -1.824010 -2.634085 -1.148275 0
M  V30 9 S -1.010018 -1.517748 -2.322255 0
M  V30 10 C -0.394131 -0.088809 -1.451939 0
M  V30 11 N 0.244603 0.822564 -2.244614 0
M  V30 12 N 0.637500 1.816770 -1.446672 0
M  V30 13 C 0.255252 1.535148 -0.190109 0
M  V30 14 C 0.477589 2.347653 0.999890 0
M  V30 15 C 1.143848 3.575511 0.967630 0
M  V30 16 C 1.276823 4.230406 2.173957 0
M  V30 17 N 0.820533 3.782362 3.356344 0
M  V30 18 C 0.169801 2.602051 3.443573 0
M  V30 19 C 0.037663 1.950645 2.243870 0
M  V30 20 O -0.359451 0.380804 -0.248667 0
M  V30 21 C -0.331780 -2.708644 0.963067 0
M  V30 22 H 2.022513 -5.076178 1.659948 0
M  V30 23 H 1.266756 -5.918267 -0.454314 0
M  V30 24 H -0.458377 -4.807734 -1.700798 0
M  V30 25 H -2.510937 -1.965008 -0.547480 0
M  V30 26 H -2.396411 -3.427558 -1.646780 0
M  V30 27 H 1.513851 3.943210 0.023054 0
M  V30 28 H 1.800803 5.200505 2.166307 0
M  V30 29 H -0.237648 2.146120 4.335950 0
M  V30 30 H -0.484156 0.984517 2.252553 0
M  V30 31 H -0.816559 -1.825972 1.293360 0
M  V30 END ATOM
M  V30 BEGIN BOND
M  V30 1 3 1 2
M  V30 2 1 2 3
M  V30 3 2 3 4
M  V30 4 1 4 5
M  V30 5 2 5 6
M  V30 6 1 6 7
M  V30 7 1 7 8
M  V30 8 1 8 9
M  V30 9 1 9 10
M  V30 10 2 10 11
M  V30 11 1 11 12
M  V30 12 2 12 13
M  V30 13 1 13 14
M  V30 14 2 14 15
M  V30 15 1 15 16
M  V30 16 2 16 17
M  V30 17 1 17 18
M  V30 18 2 18 19
M  V30 19 1 13 20
M  V30 20 2 7 21
M  V30 21 1 21 3
M  V30 22 1 20 10
M  V30 23 1 19 14
M  V30 24 1 4 22
M  V30 25 1 5 23
M  V30 26 1 6 24
M  V30 27 1 8 25
M  V30 28 1 8 26
M  V30 29 1 15 27
M  V30 30 1 16 28
M  V30 31 1 18 29
M  V30 32 1 19 30
M  V30 33 1 21 31
M  V30 END BOND
M  V30 END CTAB
M  END
>  <Dataset>  (749) 
ChEMBL_Kinases

>  <Ligand_Instance>  (749) 
nan

>  <PDB_ID>  (749) 
nan

>  <Standardized_SMILES>  (749) 
N#Cc1cccc(CSc2nnc(-c3ccncc3)o2)c1

>  <Name>  (749) 
nan

>  <Pocket>  (749) 
nan

>  <ATP_Site>  (749) 
nan

>  <Peripheral>  (749) 
nan

>  <Num_H_Atoms_ProtBoundConf>  (749) 
nan

>  <Num_Resolved_Atoms>  (749) 
nan

>  <Num_Not_Resolved_Atoms>  (749) 
nan

$$$$
CHEMBL1097106
     RDKit          3D

  0  0  0  0  0  0  0  0  0  0999 V3000
M  V30 BEGIN CTAB
M  V30 COUNTS 59 63 0 0 0
M  V30 BEGIN ATOM
M  V30 1 O 3.742553 -1.814556 1.871961 0
M  V30 2 C 4.184630 -0.656996 2.172479 0
M  V30 3 N 5.532947 -0.635959 2.637222 0
M  V30 4 C 6.317467 -1.818854 2.751598 0
M  V30 5 C 7.140424 -2.376964 1.779642 0
M  V30 6 C 7.830190 -3.549660 2.087873 0
M  V30 7 C 7.692078 -4.133293 3.329469 0
M  V30 8 C 6.870343 -3.582778 4.310860 0
M  V30 9 C 6.192923 -2.424789 3.998332 0
M  V30 10 N 3.392615 0.518161 2.052563 0
M  V30 11 C 2.049827 0.395017 1.577157 0
M  V30 12 C 1.760358 0.474358 0.231611 0
M  V30 13 C 0.464056 0.354859 -0.225100 0
M  V30 14 C -0.559035 0.152975 0.676049 0
M  V30 15 C -1.988867 -0.000988 0.441732 0
M  V30 16 N -2.899502 0.858602 0.928987 0
M  V30 17 N -4.127169 0.489429 0.572289 0
M  V30 18 C -5.372474 1.151814 0.901595 0
M  V30 19 C -5.779302 2.190325 -0.111875 0
M  V30 20 O -5.932218 1.561161 -1.336538 0
M  V30 21 C -4.770658 3.317001 -0.177640 0
M  V30 22 O -4.680023 3.892639 1.102966 0
M  V30 23 C -4.045687 -0.646586 -0.173973 0
M  V30 24 C -2.721823 -0.942528 -0.249726 0
M  V30 25 C -2.116424 -2.068544 -0.940270 0
M  V30 26 C -1.382479 -3.082385 -0.348231 0
M  V30 27 C -0.861515 -4.101993 -1.130974 0
M  V30 28 N -1.034866 -4.161082 -2.466178 0
M  V30 29 C -1.738979 -3.204976 -3.099562 0
M  V30 30 N -2.081909 -2.985194 -4.387078 0
M  V30 31 C -2.811986 -1.856704 -4.491028 0
M  V30 32 C -2.937661 -1.335576 -3.204709 0
M  V30 33 C -2.270825 -2.169424 -2.323385 0
M  V30 34 C -0.265675 0.073125 2.034111 0
M  V30 35 C 1.035251 0.192323 2.501115 0
M  V30 36 H 5.953908 0.301930 2.903666 0
M  V30 37 H 7.152679 -1.813964 0.857741 0
M  V30 38 H 8.445872 -3.920051 1.284194 0
M  V30 39 H 8.280364 -5.035328 3.433895 0
M  V30 40 H 6.822665 -4.106728 5.254934 0
M  V30 41 H 5.573903 -2.054299 4.806186 0
M  V30 42 H 3.804795 1.440376 2.311865 0
M  V30 43 H 2.519727 0.628898 -0.492393 0
M  V30 44 H 0.122283 0.398825 -1.241357 0
M  V30 45 H -5.217479 1.717499 1.864943 0
M  V30 46 H -6.145646 0.412760 1.103310 0
M  V30 47 H -6.730346 2.657749 0.234499 0
M  V30 48 H -6.508745 2.151570 -1.892175 0
M  V30 49 H -5.144692 4.075795 -0.894269 0
M  V30 50 H -3.770126 2.994374 -0.533630 0
M  V30 51 H -3.790349 3.685534 1.523698 0
M  V30 52 H -4.811123 -1.252129 -0.644883 0
M  V30 53 H -1.256474 -3.013196 0.724674 0
M  V30 54 H -0.283330 -4.893896 -0.641408 0
M  V30 55 H -1.813436 -3.610906 -5.181947 0
M  V30 56 H -3.204358 -1.468724 -5.422011 0
M  V30 57 H -3.480637 -0.435330 -3.040658 0
M  V30 58 H -0.986656 -0.083998 2.848865 0
M  V30 59 H 1.309485 0.136341 3.548465 0
M  V30 END ATOM
M  V30 BEGIN BOND
M  V30 1 2 1 2
M  V30 2 1 2 3
M  V30 3 1 3 4
M  V30 4 2 4 5
M  V30 5 1 5 6
M  V30 6 2 6 7
M  V30 7 1 7 8
M  V30 8 2 8 9
M  V30 9 1 2 10
M  V30 10 1 10 11
M  V30 11 2 11 12
M  V30 12 1 12 13
M  V30 13 2 13 14
M  V30 14 1 14 15
M  V30 15 2 15 16
M  V30 16 1 16 17
M  V30 17 1 17 18
M  V30 18 1 18 19
M  V30 19 1 19 20
M  V30 20 1 19 21
M  V30 21 1 21 22
M  V30 22 1 17 23
M  V30 23 2 23 24
M  V30 24 1 24 25
M  V30 25 2 25 26
M  V30 26 1 26 27
M  V30 27 2 27 28
M  V30 28 1 28 29
M  V30 29 1 29 30
M  V30 30 1 30 31
M  V30 31 2 31 32
M  V30 32 1 32 33
M  V30 33 1 14 34
M  V30 34 2 34 35
M  V30 35 1 9 4
M  V30 36 1 35 11
M  V30 37 1 24 15
M  V30 38 1 33 25
M  V30 39 2 33 29
M  V30 40 1 3 36
M  V30 41 1 5 37
M  V30 42 1 6 38
M  V30 43 1 7 39
M  V30 44 1 8 40
M  V30 45 1 9 41
M  V30 46 1 10 42
M  V30 47 1 12 43
M  V30 48 1 13 44
M  V30 49 1 18 45
M  V30 50 1 18 46
M  V30 51 1 19 47
M  V30 52 1 20 48
M  V30 53 1 21 49
M  V30 54 1 21 50
M  V30 55 1 22 51
M  V30 56 1 23 52
M  V30 57 1 26 53
M  V30 58 1 27 54
M  V30 59 1 30 55
M  V30 60 1 31 56
M  V30 61 1 32 57
M  V30 62 1 34 58
M  V30 63 1 35 59
M  V30 END BOND
M  V30 END CTAB
M  END
>  <Dataset>  (750) 
ChEMBL_Kinases

>  <Ligand_Instance>  (750) 
nan

>  <PDB_ID>  (750) 
nan

>  <Standardized_SMILES>  (750) 
O=C(Nc1ccccc1)Nc1ccc(-c2nn(CC(O)CO)cc2-c2ccnc3[nH]ccc23)cc1

>  <Name>  (750) 
nan

>  <Pocket>  (750) 
nan

>  <ATP_Site>  (750) 
nan

>  <Peripheral>  (750) 
nan

>  <Num_H_Atoms_ProtBoundConf>  (750) 
nan

>  <Num_Resolved_Atoms>  (750) 
nan

>  <Num_Not_Resolved_Atoms>  (750) 
nan

$$$$
CHEMBL211929
     RDKit          3D

  0  0  0  0  0  0  0  0  0  0999 V3000
M  V30 BEGIN CTAB
M  V30 COUNTS 39 43 0 0 0
M  V30 BEGIN ATOM
M  V30 1 N -3.492279 -4.003152 5.076911 0
M  V30 2 C -2.680131 -3.345926 4.127661 0
M  V30 3 C -2.338595 -3.985759 2.955638 0
M  V30 4 C -1.546602 -3.362852 2.014774 0
M  V30 5 C -1.068331 -2.086767 2.206648 0
M  V30 6 C -0.217710 -1.297695 1.328145 0
M  V30 7 C -0.768733 -0.032101 1.087657 0
M  V30 8 C -0.117632 0.860870 0.257776 0
M  V30 9 N -0.426480 2.131280 -0.139101 0
M  V30 10 C 0.576593 2.507910 -0.951700 0
M  V30 11 C 0.681603 3.745719 -1.596235 0
M  V30 12 C 1.766783 4.033593 -2.419681 0
M  V30 13 C 2.736120 3.033952 -2.568517 0
M  V30 14 O 3.821597 3.313182 -3.388127 0
M  V30 15 C 2.567394 1.841014 -1.904470 0
M  V30 16 C 1.523331 1.519002 -1.091172 0
M  V30 17 C 1.072718 0.488647 -0.324147 0
M  V30 18 C 1.617203 -0.735671 -0.098136 0
M  V30 19 C 0.978503 -1.629862 0.724556 0
M  V30 20 C 1.684030 -2.885513 0.871755 0
M  V30 21 O 1.385754 -3.900161 1.538818 0
M  V30 22 N 2.858549 -2.711120 0.049395 0
M  V30 23 C 2.801936 -1.416333 -0.524501 0
M  V30 24 O 3.748374 -1.115330 -1.262795 0
M  V30 25 C -1.447414 -1.486183 3.414586 0
M  V30 26 C -2.236244 -2.067119 4.384515 0
M  V30 27 H -4.489724 -4.358566 5.008626 0
M  V30 28 H -3.299605 -4.295931 6.077457 0
M  V30 29 H -2.687904 -4.987195 2.757627 0
M  V30 30 H -1.278481 -3.832429 1.102464 0
M  V30 31 H -1.705158 0.336198 1.510405 0
M  V30 32 H -1.277328 2.673300 0.148084 0
M  V30 33 H -0.067750 4.514397 -1.479262 0
M  V30 34 H 1.815441 4.980988 -2.892850 0
M  V30 35 H 4.761229 3.249552 -3.071817 0
M  V30 36 H 3.346289 1.157043 -2.080077 0
M  V30 37 H 3.568831 -3.499675 -0.027026 0
M  V30 38 H -1.101169 -0.464652 3.635196 0
M  V30 39 H -2.478046 -1.527459 5.287032 0
M  V30 END ATOM
M  V30 BEGIN BOND
M  V30 1 1 1 2
M  V30 2 2 2 3
M  V30 3 1 3 4
M  V30 4 2 4 5
M  V30 5 1 5 6
M  V30 6 2 6 7
M  V30 7 1 7 8
M  V30 8 1 8 9
M  V30 9 1 9 10
M  V30 10 2 10 11
M  V30 11 1 11 12
M  V30 12 2 12 13
M  V30 13 1 13 14
M  V30 14 1 13 15
M  V30 15 2 15 16
M  V30 16 1 16 17
M  V30 17 1 17 18
M  V30 18 2 18 19
M  V30 19 1 19 20
M  V30 20 2 20 21
M  V30 21 1 20 22
M  V30 22 1 22 23
M  V30 23 2 23 24
M  V30 24 1 5 25
M  V30 25 2 25 26
M  V30 26 1 26 2
M  V30 27 1 19 6
M  V30 28 2 17 8
M  V30 29 1 23 18
M  V30 30 1 16 10
M  V30 31 1 1 27
M  V30 32 1 1 28
M  V30 33 1 3 29
M  V30 34 1 4 30
M  V30 35 1 7 31
M  V30 36 1 9 32
M  V30 37 1 11 33
M  V30 38 1 12 34
M  V30 39 1 14 35
M  V30 40 1 15 36
M  V30 41 1 22 37
M  V30 42 1 25 38
M  V30 43 1 26 39
M  V30 END BOND
M  V30 END CTAB
M  END
>  <Dataset>  (751) 
ChEMBL_Kinases

>  <Ligand_Instance>  (751) 
nan

>  <PDB_ID>  (751) 
nan

>  <Standardized_SMILES>  (751) 
Nc1ccc(-c2cc3[nH]c4ccc(O)cc4c3c3c2C(=O)NC3=O)cc1

>  <Name>  (751) 
nan

>  <Pocket>  (751) 
nan

>  <ATP_Site>  (751) 
nan

>  <Peripheral>  (751) 
nan

>  <Num_H_Atoms_ProtBoundConf>  (751) 
nan

>  <Num_Resolved_Atoms>  (751) 
nan

>  <Num_Not_Resolved_Atoms>  (751) 
nan

$$$$
CHEMBL209082
     RDKit          3D

  0  0  0  0  0  0  0  0  0  0999 V3000
M  V30 BEGIN CTAB
M  V30 COUNTS 34 34 0 0 0
M  V30 BEGIN ATOM
M  V30 1 C -1.614489 -2.010426 3.127782 0
M  V30 2 C -0.711888 -1.464622 4.207888 0
M  V30 3 O -0.557891 -0.063653 4.037379 0
M  V30 4 C -0.003871 0.355305 2.832870 0
M  V30 5 N 0.381029 -0.469605 1.853342 0
M  V30 6 C 0.917541 -0.039110 0.690048 0
M  V30 7 N 1.257544 -1.110341 -0.218840 0
M  V30 8 C 0.145523 -1.388357 -1.050584 0
M  V30 9 O -0.854041 -0.637230 -0.791151 0
M  V30 10 C 0.097742 -2.416917 -2.109066 0
M  V30 11 C 1.148458 -2.166560 -3.171609 0
M  V30 12 C -1.244498 -2.310980 -2.797780 0
M  V30 13 C 1.104282 1.308766 0.438328 0
M  V30 14 C 0.711425 2.197642 1.444105 0
M  V30 15 N 0.903551 3.582021 1.184825 0
M  V30 16 C 0.168389 1.706103 2.614421 0
M  V30 17 C -0.220554 2.655632 3.619129 0
M  V30 18 N -0.553167 3.432927 4.436160 0
M  V30 19 H -2.322278 -2.759590 3.575335 0
M  V30 20 H -2.186695 -1.188248 2.622232 0
M  V30 21 H -1.059491 -2.558303 2.339942 0
M  V30 22 H -1.085280 -1.716978 5.218537 0
M  V30 23 H 0.282561 -1.964198 4.067161 0
M  V30 24 H 2.131080 -1.695632 -0.374016 0
M  V30 25 H 0.288727 -3.440223 -1.728937 0
M  V30 26 H 1.248778 -1.098565 -3.439067 0
M  V30 27 H 0.875764 -2.768491 -4.066724 0
M  V30 28 H 2.103081 -2.603532 -2.782798 0
M  V30 29 H -1.913551 -1.581576 -2.281242 0
M  V30 30 H -1.747170 -3.299199 -2.745551 0
M  V30 31 H -1.163856 -1.961893 -3.857267 0
M  V30 32 H 1.532979 1.564913 -0.502456 0
M  V30 33 H 1.341799 4.343956 1.777949 0
M  V30 34 H 0.596861 4.023481 0.287897 0
M  V30 END ATOM
M  V30 BEGIN BOND
M  V30 1 1 1 2
M  V30 2 1 2 3
M  V30 3 1 3 4
M  V30 4 2 4 5
M  V30 5 1 5 6
M  V30 6 1 6 7
M  V30 7 1 7 8
M  V30 8 2 8 9
M  V30 9 1 8 10
M  V30 10 1 10 11
M  V30 11 1 10 12
M  V30 12 2 6 13
M  V30 13 1 13 14
M  V30 14 1 14 15
M  V30 15 2 14 16
M  V30 16 1 16 17
M  V30 17 3 17 18
M  V30 18 1 16 4
M  V30 19 1 1 19
M  V30 20 1 1 20
M  V30 21 1 1 21
M  V30 22 1 2 22
M  V30 23 1 2 23
M  V30 24 1 7 24
M  V30 25 1 10 25
M  V30 26 1 11 26
M  V30 27 1 11 27
M  V30 28 1 11 28
M  V30 29 1 12 29
M  V30 30 1 12 30
M  V30 31 1 12 31
M  V30 32 1 13 32
M  V30 33 1 15 33
M  V30 34 1 15 34
M  V30 END BOND
M  V30 END CTAB
M  END
>  <Dataset>  (752) 
ChEMBL_Kinases

>  <Ligand_Instance>  (752) 
nan

>  <PDB_ID>  (752) 
nan

>  <Standardized_SMILES>  (752) 
CCOc1nc(NC(=O)C(C)C)cc(N)c1C#N

>  <Name>  (752) 
nan

>  <Pocket>  (752) 
nan

>  <ATP_Site>  (752) 
nan

>  <Peripheral>  (752) 
nan

>  <Num_H_Atoms_ProtBoundConf>  (752) 
nan

>  <Num_Resolved_Atoms>  (752) 
nan

>  <Num_Not_Resolved_Atoms>  (752) 
nan

$$$$
CHEMBL209136
     RDKit          3D

  0  0  0  0  0  0  0  0  0  0999 V3000
M  V30 BEGIN CTAB
M  V30 COUNTS 32 32 0 0 0
M  V30 BEGIN ATOM
M  V30 1 C -0.502348 -4.201834 3.204649 0
M  V30 2 C -0.285294 -2.988249 2.357820 0
M  V30 3 O -1.227692 -2.630807 1.620325 0
M  V30 4 N 0.931897 -2.259515 2.376446 0
M  V30 5 C 1.171213 -1.100607 1.583295 0
M  V30 6 C 2.386539 -0.462238 1.672011 0
M  V30 7 C 2.662892 0.661934 0.924114 0
M  V30 8 N 3.907090 1.349247 0.988416 0
M  V30 9 C 1.653771 1.090857 0.098094 0
M  V30 10 C 1.875903 2.263075 -0.713792 0
M  V30 11 N 2.045959 3.229361 -1.362023 0
M  V30 12 C 0.407488 0.470404 -0.019704 0
M  V30 13 N -0.599185 0.958763 -0.891156 0
M  V30 14 C -1.881538 0.305289 -1.000605 0
M  V30 15 C -2.582381 0.292399 0.338775 0
M  V30 16 C -1.793837 -1.067015 -1.582990 0
M  V30 17 N 0.248009 -0.612383 0.752423 0
M  V30 18 H 0.458224 -4.680810 3.464751 0
M  V30 19 H -1.127528 -3.945300 4.086654 0
M  V30 20 H -1.066997 -4.928850 2.559680 0
M  V30 21 H 1.647644 -2.627268 3.012113 0
M  V30 22 H 3.149019 -0.842763 2.340421 0
M  V30 23 H 4.389739 1.446104 1.923378 0
M  V30 24 H 4.305648 1.740905 0.089725 0
M  V30 25 H -0.372876 1.810329 -1.449415 0
M  V30 26 H -2.526042 0.908419 -1.685674 0
M  V30 27 H -2.944689 -0.747380 0.521443 0
M  V30 28 H -3.446027 1.015700 0.369779 0
M  V30 29 H -1.855150 0.584811 1.107437 0
M  V30 30 H -0.776189 -1.357160 -1.922843 0
M  V30 31 H -2.430664 -1.190733 -2.503725 0
M  V30 32 H -2.124713 -1.828982 -0.852449 0
M  V30 END ATOM
M  V30 BEGIN BOND
M  V30 1 1 1 2
M  V30 2 2 2 3
M  V30 3 1 2 4
M  V30 4 1 4 5
M  V30 5 2 5 6
M  V30 6 1 6 7
M  V30 7 1 7 8
M  V30 8 2 7 9
M  V30 9 1 9 10
M  V30 10 3 10 11
M  V30 11 1 9 12
M  V30 12 1 12 13
M  V30 13 1 13 14
M  V30 14 1 14 15
M  V30 15 1 14 16
M  V30 16 2 12 17
M  V30 17 1 17 5
M  V30 18 1 1 18
M  V30 19 1 1 19
M  V30 20 1 1 20
M  V30 21 1 4 21
M  V30 22 1 6 22
M  V30 23 1 8 23
M  V30 24 1 8 24
M  V30 25 1 13 25
M  V30 26 1 14 26
M  V30 27 1 15 27
M  V30 28 1 15 28
M  V30 29 1 15 29
M  V30 30 1 16 30
M  V30 31 1 16 31
M  V30 32 1 16 32
M  V30 END BOND
M  V30 END CTAB
M  END
>  <Dataset>  (753) 
ChEMBL_Kinases

>  <Ligand_Instance>  (753) 
nan

>  <PDB_ID>  (753) 
nan

>  <Standardized_SMILES>  (753) 
CC(=O)Nc1cc(N)c(C#N)c(NC(C)C)n1

>  <Name>  (753) 
nan

>  <Pocket>  (753) 
nan

>  <ATP_Site>  (753) 
nan

>  <Peripheral>  (753) 
nan

>  <Num_H_Atoms_ProtBoundConf>  (753) 
nan

>  <Num_Resolved_Atoms>  (753) 
nan

>  <Num_Not_Resolved_Atoms>  (753) 
nan

$$$$
CHEMBL1097191
     RDKit          3D

  0  0  0  0  0  0  0  0  0  0999 V3000
M  V30 BEGIN CTAB
M  V30 COUNTS 75 80 0 0 0
M  V30 BEGIN ATOM
M  V30 1 C 5.440223 -2.177112 8.022630 0
M  V30 2 C 5.480030 -3.373092 7.127158 0
M  V30 3 N 6.002938 -3.064573 5.787979 0
M  V30 4 C 5.279499 -2.103516 5.051614 0
M  V30 5 O 4.253481 -1.470982 5.370382 0
M  V30 6 N 5.749547 -1.770839 3.743746 0
M  V30 7 C 5.070892 -0.799869 2.922846 0
M  V30 8 C 4.069623 -1.269276 2.083085 0
M  V30 9 C 3.432490 -0.323192 1.304849 0
M  V30 10 C 3.758066 1.035990 1.341657 0
M  V30 11 C 2.954884 1.852547 0.435103 0
M  V30 12 N 3.255486 2.611767 -0.640516 0
M  V30 13 N 2.152913 3.162313 -1.126849 0
M  V30 14 C 2.097101 4.043744 -2.286092 0
M  V30 15 C 1.889340 3.238507 -3.544830 0
M  V30 16 C 1.088633 2.768896 -0.367494 0
M  V30 17 C 1.584180 1.930167 0.636727 0
M  V30 18 C 0.635548 1.369555 1.591154 0
M  V30 19 C 0.767078 1.696228 2.944381 0
M  V30 20 C -0.154143 1.145947 3.832765 0
M  V30 21 N -1.144452 0.327493 3.434139 0
M  V30 22 C -1.301741 -0.010956 2.127120 0
M  V30 23 N -2.192666 -0.795014 1.480246 0
M  V30 24 C -1.839839 -0.741849 0.197338 0
M  V30 25 C -2.557222 -1.460797 -0.852182 0
M  V30 26 C -3.652005 -2.235476 -0.518631 0
M  V30 27 C -4.316704 -2.907924 -1.532963 0
M  V30 28 C -3.915649 -2.823697 -2.856823 0
M  V30 29 C -4.606486 -3.526741 -3.938476 0
M  V30 30 N -5.648477 -2.676442 -4.469491 0
M  V30 31 C -6.604878 -2.342703 -3.434003 0
M  V30 32 C -7.625591 -1.554298 -4.236826 0
M  V30 33 C -7.624521 -2.299397 -5.558385 0
M  V30 34 C -6.498963 -3.332937 -5.427394 0
M  V30 35 C -2.818800 -2.049871 -3.204919 0
M  V30 36 C -2.164444 -1.383249 -2.178438 0
M  V30 37 C -0.736667 0.058867 -0.018604 0
M  V30 38 C -0.396594 0.526359 1.234260 0
M  V30 39 C 4.761295 1.463869 2.191490 0
M  V30 40 C 5.425133 0.550697 2.988028 0
M  V30 41 H 6.279339 -2.154397 8.751704 0
M  V30 42 H 5.405317 -1.268122 7.394045 0
M  V30 43 H 4.504675 -2.191812 8.605998 0
M  V30 44 H 4.440471 -3.725228 6.968178 0
M  V30 45 H 6.029721 -4.236604 7.555684 0
M  V30 46 H 6.856529 -3.516359 5.384818 0
M  V30 47 H 6.600127 -2.214684 3.329673 0
M  V30 48 H 3.826684 -2.308221 2.060434 0
M  V30 49 H 2.654874 -0.732159 0.661323 0
M  V30 50 H 3.063110 4.587193 -2.351245 0
M  V30 51 H 1.304592 4.794485 -2.123321 0
M  V30 52 H 1.683493 2.164110 -3.364778 0
M  V30 53 H 0.977546 3.638006 -4.044825 0
M  V30 54 H 2.711109 3.402720 -4.275408 0
M  V30 55 H 0.086318 3.103136 -0.588670 0
M  V30 56 H 1.559044 2.348917 3.253019 0
M  V30 57 H 0.011533 1.445348 4.867793 0
M  V30 58 H -2.972891 -1.309477 1.945092 0
M  V30 59 H -4.018245 -2.345317 0.491299 0
M  V30 60 H -5.179670 -3.518980 -1.272535 0
M  V30 61 H -5.147898 -4.444850 -3.565517 0
M  V30 62 H -3.941353 -3.863919 -4.741130 0
M  V30 63 H -6.200216 -1.680788 -2.667680 0
M  V30 64 H -7.120195 -3.236937 -3.029974 0
M  V30 65 H -8.641187 -1.593001 -3.790967 0
M  V30 66 H -7.341030 -0.492956 -4.341774 0
M  V30 67 H -7.275151 -1.574285 -6.329285 0
M  V30 68 H -8.589534 -2.765582 -5.784012 0
M  V30 69 H -6.020121 -3.464602 -6.398103 0
M  V30 70 H -6.966704 -4.267554 -5.056095 0
M  V30 71 H -2.408795 -1.904192 -4.199744 0
M  V30 72 H -1.295562 -0.755111 -2.362794 0
M  V30 73 H -0.222709 0.294038 -0.941839 0
M  V30 74 H 4.956075 2.519992 2.166081 0
M  V30 75 H 6.198288 0.896935 3.639624 0
M  V30 END ATOM
M  V30 BEGIN BOND
M  V30 1 1 1 2
M  V30 2 1 2 3
M  V30 3 1 3 4
M  V30 4 2 4 5
M  V30 5 1 4 6
M  V30 6 1 6 7
M  V30 7 2 7 8
M  V30 8 1 8 9
M  V30 9 2 9 10
M  V30 10 1 10 11
M  V30 11 2 11 12
M  V30 12 1 12 13
M  V30 13 1 13 14
M  V30 14 1 14 15
M  V30 15 1 13 16
M  V30 16 2 16 17
M  V30 17 1 17 18
M  V30 18 2 18 19
M  V30 19 1 19 20
M  V30 20 2 20 21
M  V30 21 1 21 22
M  V30 22 1 22 23
M  V30 23 1 23 24
M  V30 24 1 24 25
M  V30 25 2 25 26
M  V30 26 1 26 27
M  V30 27 2 27 28
M  V30 28 1 28 29
M  V30 29 1 29 30
M  V30 30 1 30 31
M  V30 31 1 31 32
M  V30 32 1 32 33
M  V30 33 1 33 34
M  V30 34 1 28 35
M  V30 35 2 35 36
M  V30 36 2 24 37
M  V30 37 1 37 38
M  V30 38 1 10 39
M  V30 39 2 39 40
M  V30 40 1 40 7
M  V30 41 1 17 11
M  V30 42 1 38 18
M  V30 43 2 38 22
M  V30 44 1 36 25
M  V30 45 1 34 30
M  V30 46 1 1 41
M  V30 47 1 1 42
M  V30 48 1 1 43
M  V30 49 1 2 44
M  V30 50 1 2 45
M  V30 51 1 3 46
M  V30 52 1 6 47
M  V30 53 1 8 48
M  V30 54 1 9 49
M  V30 55 1 14 50
M  V30 56 1 14 51
M  V30 57 1 15 52
M  V30 58 1 15 53
M  V30 59 1 15 54
M  V30 60 1 16 55
M  V30 61 1 19 56
M  V30 62 1 20 57
M  V30 63 1 23 58
M  V30 64 1 26 59
M  V30 65 1 27 60
M  V30 66 1 29 61
M  V30 67 1 29 62
M  V30 68 1 31 63
M  V30 69 1 31 64
M  V30 70 1 32 65
M  V30 71 1 32 66
M  V30 72 1 33 67
M  V30 73 1 33 68
M  V30 74 1 34 69
M  V30 75 1 34 70
M  V30 76 1 35 71
M  V30 77 1 36 72
M  V30 78 1 37 73
M  V30 79 1 39 74
M  V30 80 1 40 75
M  V30 END BOND
M  V30 END CTAB
M  END
>  <Dataset>  (754) 
ChEMBL_Kinases

>  <Ligand_Instance>  (754) 
nan

>  <PDB_ID>  (754) 
nan

>  <Standardized_SMILES>  (754) 
CCNC(=O)Nc1ccc(-c2nn(CC)cc2-c2ccnc3[nH]c(-c4ccc(CN5CCCC5)cc4)cc23)cc1

>  <Name>  (754) 
nan

>  <Pocket>  (754) 
nan

>  <ATP_Site>  (754) 
nan

>  <Peripheral>  (754) 
nan

>  <Num_H_Atoms_ProtBoundConf>  (754) 
nan

>  <Num_Resolved_Atoms>  (754) 
nan

>  <Num_Not_Resolved_Atoms>  (754) 
nan

$$$$
CHEMBL4644637
     RDKit          3D

  0  0  0  0  0  0  0  0  0  0999 V3000
M  V30 BEGIN CTAB
M  V30 COUNTS 42 45 0 0 0
M  V30 BEGIN ATOM
M  V30 1 C -0.653555 -7.878289 0.200540 0
M  V30 2 O 0.414968 -6.985535 0.087187 0
M  V30 3 C 0.340647 -5.732207 -0.476540 0
M  V30 4 C -0.878891 -5.274589 -0.988810 0
M  V30 5 C -0.831733 -4.011455 -1.525567 0
M  V30 6 C 0.291903 -3.179516 -1.598303 0
M  V30 7 C 0.117176 -1.843524 -2.224214 0
M  V30 8 N -0.264714 -0.815878 -1.265463 0
M  V30 9 C -1.590759 -0.683995 -1.105188 0
M  V30 10 N -1.984419 0.254247 -0.226310 0
M  V30 11 C -1.027660 0.998688 0.434342 0
M  V30 12 S -1.149268 2.377296 1.712594 0
M  V30 13 C 0.570432 2.573664 1.844446 0
M  V30 14 C 1.313958 3.580441 2.753887 0
M  V30 15 C 2.674981 3.644062 2.773503 0
M  V30 16 C 3.249358 4.573635 3.616431 0
M  V30 17 N 2.470821 5.384998 4.389031 0
M  V30 18 C 1.134520 5.273318 4.324263 0
M  V30 19 N 0.431527 6.171632 5.175134 0
M  V30 20 C 0.476473 4.373576 3.511335 0
M  V30 21 C 1.109674 1.703658 1.024404 0
M  V30 22 C 0.323319 0.874404 0.280364 0
M  V30 23 C 0.675291 -0.103544 -0.634033 0
M  V30 24 O 1.872325 -0.370452 -0.915511 0
M  V30 25 C 1.444397 -3.701069 -1.075490 0
M  V30 26 C 1.484601 -4.962560 -0.516991 0
M  V30 27 H -1.357257 -7.498810 0.955497 0
M  V30 28 H -0.276460 -8.858216 0.519386 0
M  V30 29 H -1.211109 -8.020866 -0.759376 0
M  V30 30 H -1.775324 -5.843369 -0.972032 0
M  V30 31 H -1.773977 -3.641346 -1.928521 0
M  V30 32 H -0.647960 -1.950810 -3.015230 0
M  V30 33 H 1.053327 -1.564626 -2.752356 0
M  V30 34 H -2.422114 -1.190247 -1.549226 0
M  V30 35 H 3.239604 2.978338 2.141723 0
M  V30 36 H 4.312839 4.662139 3.667637 0
M  V30 37 H -0.190286 6.096690 6.034958 0
M  V30 38 H 0.537988 7.174738 4.905938 0
M  V30 39 H -0.605497 4.326000 3.498513 0
M  V30 40 H 2.214497 1.669346 0.960708 0
M  V30 41 H 2.314789 -3.074284 -1.124417 0
M  V30 42 H 2.436463 -5.298229 -0.126529 0
M  V30 END ATOM
M  V30 BEGIN BOND
M  V30 1 1 1 2
M  V30 2 1 2 3
M  V30 3 2 3 4
M  V30 4 1 4 5
M  V30 5 2 5 6
M  V30 6 1 6 7
M  V30 7 1 7 8
M  V30 8 1 8 9
M  V30 9 2 9 10
M  V30 10 1 10 11
M  V30 11 1 11 12
M  V30 12 1 12 13
M  V30 13 1 13 14
M  V30 14 2 14 15
M  V30 15 1 15 16
M  V30 16 2 16 17
M  V30 17 1 17 18
M  V30 18 1 18 19
M  V30 19 2 18 20
M  V30 20 2 13 21
M  V30 21 1 21 22
M  V30 22 1 22 23
M  V30 23 2 23 24
M  V30 24 1 6 25
M  V30 25 2 25 26
M  V30 26 1 26 3
M  V30 27 1 23 8
M  V30 28 2 22 11
M  V30 29 1 20 14
M  V30 30 1 1 27
M  V30 31 1 1 28
M  V30 32 1 1 29
M  V30 33 1 4 30
M  V30 34 1 5 31
M  V30 35 1 7 32
M  V30 36 1 7 33
M  V30 37 1 9 34
M  V30 38 1 15 35
M  V30 39 1 16 36
M  V30 40 1 19 37
M  V30 41 1 19 38
M  V30 42 1 20 39
M  V30 43 1 21 40
M  V30 44 1 25 41
M  V30 45 1 26 42
M  V30 END BOND
M  V30 END CTAB
M  END
>  <Dataset>  (755) 
ChEMBL_Kinases

>  <Ligand_Instance>  (755) 
nan

>  <PDB_ID>  (755) 
nan

>  <Standardized_SMILES>  (755) 
COc1ccc(Cn2cnc3sc(-c4ccnc(N)c4)cc3c2=O)cc1

>  <Name>  (755) 
nan

>  <Pocket>  (755) 
nan

>  <ATP_Site>  (755) 
nan

>  <Peripheral>  (755) 
nan

>  <Num_H_Atoms_ProtBoundConf>  (755) 
nan

>  <Num_Resolved_Atoms>  (755) 
nan

>  <Num_Not_Resolved_Atoms>  (755) 
nan

$$$$
CHEMBL576734
     RDKit          3D

  0  0  0  0  0  0  0  0  0  0999 V3000
M  V30 BEGIN CTAB
M  V30 COUNTS 60 63 0 0 0
M  V30 BEGIN ATOM
M  V30 1 C 2.828407 -1.686701 5.933456 0
M  V30 2 N 1.715080 -2.023920 5.066905 0
M  V30 3 C 0.943023 -3.021071 5.782787 0
M  V30 4 C 2.237590 -2.599274 3.860104 0
M  V30 5 C 3.144777 -1.629817 3.143907 0
M  V30 6 N 2.598212 -0.812015 2.261765 0
M  V30 7 C 3.314345 0.089389 1.567831 0
M  V30 8 C 4.640774 0.050356 1.884265 0
M  V30 9 S 5.405184 1.272311 0.900269 0
M  V30 10 C 3.796545 1.808944 0.057694 0
M  V30 11 C 3.634922 2.801992 -0.906963 0
M  V30 12 C 2.343771 2.978185 -1.344255 0
M  V30 13 C 1.374846 2.172275 -0.793268 0
M  V30 14 C 0.017356 2.387717 -1.283318 0
M  V30 15 C -1.108637 2.547909 -1.688067 0
M  V30 16 C -2.474536 2.718623 -2.189020 0
M  V30 17 C -3.223490 1.392646 -2.222123 0
M  V30 18 C -3.336161 0.766984 -0.880661 0
M  V30 19 C -4.080415 -0.538664 -0.823484 0
M  V30 20 N -3.610613 -1.630929 -1.533369 0
M  V30 21 C -3.629399 -1.714762 -2.936036 0
M  V30 22 C -3.981937 -3.139431 -3.407425 0
M  V30 23 C -3.045353 -4.114818 -2.766998 0
M  V30 24 C -1.998281 -3.413721 -1.962571 0
M  V30 25 C -2.601921 -2.449778 -0.928802 0
M  V30 26 C 1.590163 1.218701 0.145771 0
M  V30 27 C 2.855346 0.978311 0.637667 0
M  V30 28 C 5.210548 -0.802791 2.804413 0
M  V30 29 O 6.445183 -0.725628 2.992248 0
M  V30 30 N 4.444691 -1.683629 3.468702 0
M  V30 31 H 2.459100 -1.382850 6.945167 0
M  V30 32 H 3.451197 -0.885334 5.496674 0
M  V30 33 H 3.478013 -2.575650 6.055930 0
M  V30 34 H 0.217429 -3.490393 5.069436 0
M  V30 35 H 1.587265 -3.825719 6.203019 0
M  V30 36 H 0.369827 -2.599738 6.625157 0
M  V30 37 H 1.358840 -2.846041 3.219295 0
M  V30 38 H 2.803880 -3.531376 4.035794 0
M  V30 39 H 4.499085 3.343953 -1.232291 0
M  V30 40 H 2.203966 3.743987 -2.090696 0
M  V30 41 H -3.055750 3.470376 -1.622617 0
M  V30 42 H -2.384129 3.031805 -3.248419 0
M  V30 43 H -4.263518 1.651621 -2.550527 0
M  V30 44 H -2.817064 0.736325 -3.012351 0
M  V30 45 H -3.882435 1.440132 -0.148504 0
M  V30 46 H -2.341844 0.634831 -0.392170 0
M  V30 47 H -4.211436 -0.864223 0.257319 0
M  V30 48 H -5.151010 -0.285485 -1.128922 0
M  V30 49 H -4.333432 -1.027370 -3.397830 0
M  V30 50 H -2.592104 -1.542196 -3.338749 0
M  V30 51 H -5.040532 -3.317918 -3.100885 0
M  V30 52 H -3.933296 -3.148649 -4.503403 0
M  V30 53 H -3.558151 -4.915355 -2.189358 0
M  V30 54 H -2.495541 -4.656040 -3.584481 0
M  V30 55 H -1.259453 -2.891522 -2.576776 0
M  V30 56 H -1.476677 -4.194162 -1.365145 0
M  V30 57 H -1.757119 -1.851238 -0.533696 0
M  V30 58 H -3.012404 -3.104660 -0.119601 0
M  V30 59 H 0.736657 0.653949 0.496059 0
M  V30 60 H 4.907294 -2.313418 4.156017 0
M  V30 END ATOM
M  V30 BEGIN BOND
M  V30 1 1 1 2
M  V30 2 1 2 3
M  V30 3 1 2 4
M  V30 4 1 4 5
M  V30 5 2 5 6
M  V30 6 1 6 7
M  V30 7 2 7 8
M  V30 8 1 8 9
M  V30 9 1 9 10
M  V30 10 2 10 11
M  V30 11 1 11 12
M  V30 12 2 12 13
M  V30 13 1 13 14
M  V30 14 3 14 15
M  V30 15 1 15 16
M  V30 16 1 16 17
M  V30 17 1 17 18
M  V30 18 1 18 19
M  V30 19 1 19 20
M  V30 20 1 20 21
M  V30 21 1 21 22
M  V30 22 1 22 23
M  V30 23 1 23 24
M  V30 24 1 24 25
M  V30 25 1 13 26
M  V30 26 2 26 27
M  V30 27 1 8 28
M  V30 28 2 28 29
M  V30 29 1 28 30
M  V30 30 1 30 5
M  V30 31 1 27 7
M  V30 32 1 27 10
M  V30 33 1 25 20
M  V30 34 1 1 31
M  V30 35 1 1 32
M  V30 36 1 1 33
M  V30 37 1 3 34
M  V30 38 1 3 35
M  V30 39 1 3 36
M  V30 40 1 4 37
M  V30 41 1 4 38
M  V30 42 1 11 39
M  V30 43 1 12 40
M  V30 44 1 16 41
M  V30 45 1 16 42
M  V30 46 1 17 43
M  V30 47 1 17 44
M  V30 48 1 18 45
M  V30 49 1 18 46
M  V30 50 1 19 47
M  V30 51 1 19 48
M  V30 52 1 21 49
M  V30 53 1 21 50
M  V30 54 1 22 51
M  V30 55 1 22 52
M  V30 56 1 23 53
M  V30 57 1 23 54
M  V30 58 1 24 55
M  V30 59 1 24 56
M  V30 60 1 25 57
M  V30 61 1 25 58
M  V30 62 1 26 59
M  V30 63 1 30 60
M  V30 END BOND
M  V30 END CTAB
M  END
>  <Dataset>  (756) 
ChEMBL_Kinases

>  <Ligand_Instance>  (756) 
nan

>  <PDB_ID>  (756) 
nan

>  <Standardized_SMILES>  (756) 
CN(C)Cc1nc2c(sc3ccc(C#CCCCCN4CCCCC4)cc32)c(=O)[nH]1

>  <Name>  (756) 
nan

>  <Pocket>  (756) 
nan

>  <ATP_Site>  (756) 
nan

>  <Peripheral>  (756) 
nan

>  <Num_H_Atoms_ProtBoundConf>  (756) 
nan

>  <Num_Resolved_Atoms>  (756) 
nan

>  <Num_Not_Resolved_Atoms>  (756) 
nan

$$$$
CHEMBL591047
     RDKit          3D

  0  0  0  0  0  0  0  0  0  0999 V3000
M  V30 BEGIN CTAB
M  V30 COUNTS 51 54 0 0 0
M  V30 BEGIN ATOM
M  V30 1 C 0.208268 -5.086522 0.987141 0
M  V30 2 N -0.787499 -4.126611 0.589056 0
M  V30 3 C -0.673247 -3.720498 -0.796775 0
M  V30 4 C -1.739619 -2.734617 -1.103788 0
M  V30 5 C -1.352670 -1.294258 -1.020793 0
M  V30 6 N -0.098572 -1.120627 -0.379322 0
M  V30 7 C 0.203784 0.047260 0.373392 0
M  V30 8 N 1.250663 0.821398 -0.027788 0
M  V30 9 C 1.601325 1.944089 0.626278 0
M  V30 10 C 2.741687 2.676063 0.087796 0
M  V30 11 C 3.380254 2.188838 -1.032966 0
M  V30 12 C 4.479557 2.842728 -1.599147 0
M  V30 13 N 4.937384 3.982651 -1.042566 0
M  V30 14 C 4.334337 4.486167 0.055516 0
M  V30 15 C 3.249589 3.843505 0.616519 0
M  V30 16 C 0.908782 2.360331 1.739448 0
M  V30 17 N -0.128802 1.609019 2.151697 0
M  V30 18 C -0.471881 0.488113 1.491328 0
M  V30 19 N -1.572374 -0.285257 1.954659 0
M  V30 20 C -1.861403 -1.621441 2.446336 0
M  V30 21 C -2.484766 -1.275309 3.806190 0
M  V30 22 C -3.246176 0.018962 3.501320 0
M  V30 23 C -2.926800 0.287066 2.028717 0
M  V30 24 C 1.052007 -1.981012 -0.338344 0
M  V30 25 C 0.685880 -3.211934 -1.145313 0
M  V30 26 H -0.199195 -5.812162 1.749109 0
M  V30 27 H 0.614741 -5.697167 0.177913 0
M  V30 28 H 0.981771 -4.512980 1.556654 0
M  V30 29 H -1.719317 -4.604318 0.676833 0
M  V30 30 H -0.824130 -4.648970 -1.419800 0
M  V30 31 H -2.607743 -2.891163 -0.393480 0
M  V30 32 H -2.181376 -2.987851 -2.100148 0
M  V30 33 H -2.159470 -0.662025 -0.597718 0
M  V30 34 H -1.222547 -0.947164 -2.083413 0
M  V30 35 H 3.060144 1.273127 -1.530463 0
M  V30 36 H 5.000531 2.479680 -2.482022 0
M  V30 37 H 4.677992 5.401542 0.527806 0
M  V30 38 H 2.787210 4.254888 1.481583 0
M  V30 39 H 1.192342 3.262646 2.263338 0
M  V30 40 H -2.642789 -2.144056 1.883994 0
M  V30 41 H -0.932386 -2.205798 2.616024 0
M  V30 42 H -1.661234 -0.987992 4.513126 0
M  V30 43 H -3.119833 -2.068809 4.200292 0
M  V30 44 H -4.330309 -0.132290 3.646321 0
M  V30 45 H -2.910113 0.860169 4.115232 0
M  V30 46 H -2.950075 1.364278 1.877039 0
M  V30 47 H -3.628989 -0.270819 1.374085 0
M  V30 48 H 1.257734 -2.262498 0.710448 0
M  V30 49 H 1.949050 -1.496419 -0.733484 0
M  V30 50 H 1.478828 -3.953648 -1.068176 0
M  V30 51 H 0.647160 -2.875008 -2.205023 0
M  V30 END ATOM
M  V30 BEGIN BOND
M  V30 1 1 1 2
M  V30 2 1 2 3
M  V30 3 1 3 4
M  V30 4 1 4 5
M  V30 5 1 5 6
M  V30 6 1 6 7
M  V30 7 2 7 8
M  V30 8 1 8 9
M  V30 9 1 9 10
M  V30 10 2 10 11
M  V30 11 1 11 12
M  V30 12 2 12 13
M  V30 13 1 13 14
M  V30 14 2 14 15
M  V30 15 2 9 16
M  V30 16 1 16 17
M  V30 17 2 17 18
M  V30 18 1 18 19
M  V30 19 1 19 20
M  V30 20 1 20 21
M  V30 21 1 21 22
M  V30 22 1 22 23
M  V30 23 1 6 24
M  V30 24 1 24 25
M  V30 25 1 25 3
M  V30 26 1 18 7
M  V30 27 1 23 19
M  V30 28 1 15 10
M  V30 29 1 1 26
M  V30 30 1 1 27
M  V30 31 1 1 28
M  V30 32 1 2 29
M  V30 33 1 3 30
M  V30 34 1 4 31
M  V30 35 1 4 32
M  V30 36 1 5 33
M  V30 37 1 5 34
M  V30 38 1 11 35
M  V30 39 1 12 36
M  V30 40 1 14 37
M  V30 41 1 15 38
M  V30 42 1 16 39
M  V30 43 1 20 40
M  V30 44 1 20 41
M  V30 45 1 21 42
M  V30 46 1 21 43
M  V30 47 1 22 44
M  V30 48 1 22 45
M  V30 49 1 23 46
M  V30 50 1 23 47
M  V30 51 1 24 48
M  V30 52 1 24 49
M  V30 53 1 25 50
M  V30 54 1 25 51
M  V30 END BOND
M  V30 END CTAB
M  END
>  <Dataset>  (757) 
ChEMBL_Kinases

>  <Ligand_Instance>  (757) 
nan

>  <PDB_ID>  (757) 
nan

>  <Standardized_SMILES>  (757) 
CNC1CCN(c2nc(-c3ccncc3)cnc2N2CCCC2)CC1

>  <Name>  (757) 
nan

>  <Pocket>  (757) 
nan

>  <ATP_Site>  (757) 
nan

>  <Peripheral>  (757) 
nan

>  <Num_H_Atoms_ProtBoundConf>  (757) 
nan

>  <Num_Resolved_Atoms>  (757) 
nan

>  <Num_Not_Resolved_Atoms>  (757) 
nan

$$$$
CHEMBL1097454
     RDKit          3D

  0  0  0  0  0  0  0  0  0  0999 V3000
M  V30 BEGIN CTAB
M  V30 COUNTS 58 62 0 0 0
M  V30 BEGIN ATOM
M  V30 1 O 2.789372 -0.272568 2.479283 0
M  V30 2 C 3.724980 0.488603 2.063953 0
M  V30 3 N 5.050865 0.417888 2.590926 0
M  V30 4 C 5.354425 -0.531279 3.616890 0
M  V30 5 C 5.776361 -1.751144 3.095186 0
M  V30 6 C 6.101655 -2.757840 3.997856 0
M  V30 7 C 6.008004 -2.550301 5.358461 0
M  V30 8 C 5.585021 -1.326715 5.867000 0
M  V30 9 C 5.257057 -0.312752 4.975427 0
M  V30 10 N 3.316307 1.407247 1.031086 0
M  V30 11 C 1.920217 1.254245 0.697153 0
M  V30 12 C 0.896813 1.945790 1.313100 0
M  V30 13 C -0.382895 1.667434 0.859700 0
M  V30 14 C -0.625703 0.755511 -0.145921 0
M  V30 15 C -2.011581 0.567459 -0.515511 0
M  V30 16 N -2.996350 1.319105 -1.009261 0
M  V30 17 N -4.107030 0.594548 -1.155745 0
M  V30 18 C -5.369120 1.048141 -1.655658 0
M  V30 19 C -5.415989 0.862288 -3.157877 0
M  V30 20 C -4.290520 1.676405 -3.757213 0
M  V30 21 O -4.271318 1.553080 -5.148520 0
M  V30 22 C -3.858414 -0.673504 -0.749605 0
M  V30 23 C -2.525708 -0.708047 -0.337891 0
M  V30 24 C -1.954034 -1.954300 0.160310 0
M  V30 25 C -1.537420 -1.892736 1.494947 0
M  V30 26 C -0.985770 -3.059346 2.011978 0
M  V30 27 N -0.844328 -4.201172 1.300490 0
M  V30 28 C -1.255275 -4.231935 0.013991 0
M  V30 29 N -1.268419 -5.171453 -0.967026 0
M  V30 30 C -1.802134 -4.669194 -2.094734 0
M  V30 31 C -2.164863 -3.355226 -1.887072 0
M  V30 32 C -1.813892 -3.113796 -0.572926 0
M  V30 33 C 0.423265 0.085988 -0.735248 0
M  V30 34 C 1.715727 0.331153 -0.315829 0
M  V30 35 H 5.709961 1.115019 2.142486 0
M  V30 36 H 5.870046 -1.974209 2.038468 0
M  V30 37 H 6.436436 -3.728142 3.632260 0
M  V30 38 H 6.257653 -3.325392 6.099415 0
M  V30 39 H 5.492126 -1.106439 6.933926 0
M  V30 40 H 4.917865 0.673995 5.283897 0
M  V30 41 H 4.063044 2.050250 0.665273 0
M  V30 42 H 1.154940 2.645722 2.093732 0
M  V30 43 H -1.177278 2.231938 1.367250 0
M  V30 44 H -5.510334 2.155515 -1.486015 0
M  V30 45 H -6.244583 0.593467 -1.151718 0
M  V30 46 H -6.390687 1.205628 -3.572431 0
M  V30 47 H -5.320433 -0.217604 -3.403818 0
M  V30 48 H -4.424895 2.722681 -3.428955 0
M  V30 49 H -3.328997 1.234743 -3.363551 0
M  V30 50 H -4.589928 0.654387 -5.409285 0
M  V30 51 H -4.586367 -1.474577 -0.760349 0
M  V30 52 H -1.615539 -1.030280 2.120041 0
M  V30 53 H -0.654809 -3.026538 3.055780 0
M  V30 54 H -0.884062 -6.126233 -0.749279 0
M  V30 55 H -1.916417 -5.236169 -3.011723 0
M  V30 56 H -2.619468 -2.667920 -2.587377 0
M  V30 57 H 0.171729 -0.629508 -1.531695 0
M  V30 58 H 2.495295 -0.219761 -0.810770 0
M  V30 END ATOM
M  V30 BEGIN BOND
M  V30 1 2 1 2
M  V30 2 1 2 3
M  V30 3 1 3 4
M  V30 4 2 4 5
M  V30 5 1 5 6
M  V30 6 2 6 7
M  V30 7 1 7 8
M  V30 8 2 8 9
M  V30 9 1 2 10
M  V30 10 1 10 11
M  V30 11 2 11 12
M  V30 12 1 12 13
M  V30 13 2 13 14
M  V30 14 1 14 15
M  V30 15 2 15 16
M  V30 16 1 16 17
M  V30 17 1 17 18
M  V30 18 1 18 19
M  V30 19 1 19 20
M  V30 20 1 20 21
M  V30 21 1 17 22
M  V30 22 2 22 23
M  V30 23 1 23 24
M  V30 24 2 24 25
M  V30 25 1 25 26
M  V30 26 2 26 27
M  V30 27 1 27 28
M  V30 28 1 28 29
M  V30 29 1 29 30
M  V30 30 2 30 31
M  V30 31 1 31 32
M  V30 32 1 14 33
M  V30 33 2 33 34
M  V30 34 1 9 4
M  V30 35 1 34 11
M  V30 36 1 23 15
M  V30 37 1 32 24
M  V30 38 2 32 28
M  V30 39 1 3 35
M  V30 40 1 5 36
M  V30 41 1 6 37
M  V30 42 1 7 38
M  V30 43 1 8 39
M  V30 44 1 9 40
M  V30 45 1 10 41
M  V30 46 1 12 42
M  V30 47 1 13 43
M  V30 48 1 18 44
M  V30 49 1 18 45
M  V30 50 1 19 46
M  V30 51 1 19 47
M  V30 52 1 20 48
M  V30 53 1 20 49
M  V30 54 1 21 50
M  V30 55 1 22 51
M  V30 56 1 25 52
M  V30 57 1 26 53
M  V30 58 1 29 54
M  V30 59 1 30 55
M  V30 60 1 31 56
M  V30 61 1 33 57
M  V30 62 1 34 58
M  V30 END BOND
M  V30 END CTAB
M  END
>  <Dataset>  (758) 
ChEMBL_Kinases

>  <Ligand_Instance>  (758) 
nan

>  <PDB_ID>  (758) 
nan

>  <Standardized_SMILES>  (758) 
O=C(Nc1ccccc1)Nc1ccc(-c2nn(CCCO)cc2-c2ccnc3[nH]ccc23)cc1

>  <Name>  (758) 
nan

>  <Pocket>  (758) 
nan

>  <ATP_Site>  (758) 
nan

>  <Peripheral>  (758) 
nan

>  <Num_H_Atoms_ProtBoundConf>  (758) 
nan

>  <Num_Resolved_Atoms>  (758) 
nan

>  <Num_Not_Resolved_Atoms>  (758) 
nan

$$$$
CHEMBL21156
     RDKit          3D

  0  0  0  0  0  0  0  0  0  0999 V3000
M  V30 BEGIN CTAB
M  V30 COUNTS 39 42 0 0 0
M  V30 BEGIN ATOM
M  V30 1 C -0.079431 -4.500229 1.546745 0
M  V30 2 C 1.107037 -3.565643 1.764544 0
M  V30 3 C 1.465656 -3.663646 3.222210 0
M  V30 4 C 2.247440 -4.092312 0.926013 0
M  V30 5 C 0.774012 -2.180537 1.340984 0
M  V30 6 N 1.571182 -1.076636 1.382659 0
M  V30 7 C 0.878080 -0.022119 0.903286 0
M  V30 8 C 1.130931 1.318753 0.698551 0
M  V30 9 C 2.408236 1.728730 1.064207 0
M  V30 10 C 2.693542 3.064924 0.872046 0
M  V30 11 C 1.803254 4.008731 0.346655 0
M  V30 12 F 2.225578 5.292339 0.214954 0
M  V30 13 C 0.557093 3.526476 0.008015 0
M  V30 14 C 0.223556 2.210929 0.178422 0
M  V30 15 C -1.012129 1.733580 -0.157611 0
M  V30 16 C -1.953510 2.575008 -0.678782 0
M  V30 17 O -1.859224 3.793277 -0.913137 0
M  V30 18 N -3.171306 2.117213 -1.012798 0
M  V30 19 C -3.421971 0.796723 -0.811769 0
M  V30 20 C -2.529060 -0.116954 -0.292008 0
M  V30 21 C -1.285796 0.402944 0.037437 0
M  V30 22 C -0.369876 -0.488181 0.560394 0
M  V30 23 N -0.422302 -1.800653 0.830420 0
M  V30 24 H 0.249872 -5.518155 1.816555 0
M  V30 25 H -0.935639 -4.180380 2.201299 0
M  V30 26 H -0.348885 -4.404315 0.476139 0
M  V30 27 H 1.712258 -4.739781 3.396115 0
M  V30 28 H 2.414537 -3.123533 3.437785 0
M  V30 29 H 0.634721 -3.402896 3.883832 0
M  V30 30 H 3.134007 -3.482828 1.204563 0
M  V30 31 H 2.357447 -5.167335 1.163629 0
M  V30 32 H 1.988950 -3.947154 -0.142645 0
M  V30 33 H 3.157941 1.068045 1.477130 0
M  V30 34 H 3.693129 3.396842 1.155757 0
M  V30 35 H -0.050035 4.309406 -0.380922 0
M  V30 36 H -3.972241 2.678002 -1.422101 0
M  V30 37 H -4.400027 0.394605 -1.072466 0
M  V30 38 H -2.792163 -1.150544 -0.158535 0
M  V30 39 H -1.237901 -2.433500 0.678540 0
M  V30 END ATOM
M  V30 BEGIN BOND
M  V30 1 1 1 2
M  V30 2 1 2 3
M  V30 3 1 2 4
M  V30 4 1 2 5
M  V30 5 2 5 6
M  V30 6 1 6 7
M  V30 7 2 7 8
M  V30 8 1 8 9
M  V30 9 2 9 10
M  V30 10 1 10 11
M  V30 11 1 11 12
M  V30 12 2 11 13
M  V30 13 1 13 14
M  V30 14 2 14 15
M  V30 15 1 15 16
M  V30 16 2 16 17
M  V30 17 1 16 18
M  V30 18 1 18 19
M  V30 19 2 19 20
M  V30 20 1 20 21
M  V30 21 2 21 22
M  V30 22 1 22 23
M  V30 23 1 23 5
M  V30 24 1 22 7
M  V30 25 1 14 8
M  V30 26 1 21 15
M  V30 27 1 1 24
M  V30 28 1 1 25
M  V30 29 1 1 26
M  V30 30 1 3 27
M  V30 31 1 3 28
M  V30 32 1 3 29
M  V30 33 1 4 30
M  V30 34 1 4 31
M  V30 35 1 4 32
M  V30 36 1 9 33
M  V30 37 1 10 34
M  V30 38 1 13 35
M  V30 39 1 18 36
M  V30 40 1 19 37
M  V30 41 1 20 38
M  V30 42 1 23 39
M  V30 END BOND
M  V30 END CTAB
M  END
>  <Dataset>  (759) 
ChEMBL_Kinases

>  <Ligand_Instance>  (759) 
nan

>  <PDB_ID>  (759) 
nan

>  <Standardized_SMILES>  (759) 
CC(C)(C)c1nc2c3ccc(F)cc3c3c(=O)[nH]ccc3c2[nH]1

>  <Name>  (759) 
nan

>  <Pocket>  (759) 
nan

>  <ATP_Site>  (759) 
nan

>  <Peripheral>  (759) 
nan

>  <Num_H_Atoms_ProtBoundConf>  (759) 
nan

>  <Num_Resolved_Atoms>  (759) 
nan

>  <Num_Not_Resolved_Atoms>  (759) 
nan

$$$$
CHEMBL211514
     RDKit          3D

  0  0  0  0  0  0  0  0  0  0999 V3000
M  V30 BEGIN CTAB
M  V30 COUNTS 60 62 0 0 0
M  V30 BEGIN ATOM
M  V30 1 C 2.294632 -2.576810 0.484649 0
M  V30 2 C 3.167241 -1.451356 0.969818 0
M  V30 3 C 4.204513 -1.926889 1.780413 0
M  V30 4 C 5.126375 -1.017447 2.314262 0
M  V30 5 C 4.938120 0.308266 1.995753 0
M  V30 6 Cl 6.059009 1.491565 2.634187 0
M  V30 7 C 3.932871 0.811659 1.204030 0
M  V30 8 N 3.724243 2.169351 0.854283 0
M  V30 9 C 4.684318 2.871174 0.026693 0
M  V30 10 C 4.717046 2.173946 -1.289425 0
M  V30 11 N 4.723721 1.629042 -2.329114 0
M  V30 12 C 2.543824 2.773661 1.361898 0
M  V30 13 C 1.723917 2.058470 2.243565 0
M  V30 14 C 0.539008 2.615170 2.745487 0
M  V30 15 N -0.187167 1.737673 3.633493 0
M  V30 16 C -0.964324 0.834192 2.822614 0
M  V30 17 C -1.216556 1.032220 1.464268 0
M  V30 18 C -1.956372 0.088312 0.740636 0
M  V30 19 C -2.457300 -1.063062 1.345143 0
M  V30 20 O -3.136734 -1.817712 0.441436 0
M  V30 21 C -3.746537 -3.051052 0.764946 0
M  V30 22 C -4.434596 -3.598097 -0.489356 0 CFG=1
M  V30 23 O -5.402707 -2.622395 -0.802792 0
M  V30 24 C -3.365475 -3.623733 -1.561148 0
M  V30 25 N -3.806388 -3.900735 -2.863059 0
M  V30 26 C -4.284041 -5.171921 -3.205691 0
M  V30 27 C -3.230091 -3.131751 -3.901390 0
M  V30 28 C -2.191780 -1.225265 2.677775 0
M  V30 29 C -1.473413 -0.325885 3.421151 0
M  V30 30 N 0.214414 3.875867 2.346322 0
M  V30 31 C 0.984219 4.561108 1.510117 0
M  V30 32 N 2.096745 4.004783 1.054127 0
M  V30 33 C 3.018660 -0.109225 0.675819 0
M  V30 34 H 1.864419 -3.111409 1.327705 0
M  V30 35 H 2.970507 -3.295916 -0.067664 0
M  V30 36 H 1.572198 -2.201461 -0.259793 0
M  V30 37 H 4.368518 -2.956764 2.039854 0
M  V30 38 H 5.943362 -1.344821 2.946571 0
M  V30 39 H 5.714444 2.879789 0.454053 0
M  V30 40 H 4.276441 3.879835 -0.178536 0
M  V30 41 H 2.012331 1.043310 2.558383 0
M  V30 42 H -0.250644 1.648399 4.667403 0
M  V30 43 H -0.828565 1.928900 0.989875 0
M  V30 44 H -2.077050 0.376040 -0.317751 0
M  V30 45 H -4.468905 -2.833126 1.579791 0
M  V30 46 H -2.958562 -3.722805 1.146325 0
M  V30 47 H -4.851414 -4.564656 -0.248453 0
M  V30 48 H -5.117360 -2.156732 -1.640827 0
M  V30 49 H -2.633766 -4.403367 -1.214280 0
M  V30 50 H -2.878645 -2.609515 -1.552268 0
M  V30 51 H -3.666479 -6.027097 -2.855860 0
M  V30 52 H -4.250650 -5.269508 -4.332744 0
M  V30 53 H -5.371409 -5.347402 -2.983996 0
M  V30 54 H -2.146196 -2.869026 -3.723624 0
M  V30 55 H -3.720531 -2.142786 -4.050326 0
M  V30 56 H -3.281021 -3.633935 -4.879508 0
M  V30 57 H -2.627856 -2.160982 3.063840 0
M  V30 58 H -1.325541 -0.553779 4.475200 0
M  V30 59 H 0.689324 5.553050 1.221602 0
M  V30 60 H 2.160332 0.127677 0.028989 0
M  V30 END ATOM
M  V30 BEGIN BOND
M  V30 1 1 1 2
M  V30 2 2 2 3
M  V30 3 1 3 4
M  V30 4 2 4 5
M  V30 5 1 5 6
M  V30 6 1 5 7
M  V30 7 1 7 8
M  V30 8 1 8 9
M  V30 9 1 9 10
M  V30 10 3 10 11
M  V30 11 1 8 12
M  V30 12 2 12 13
M  V30 13 1 13 14
M  V30 14 1 14 15
M  V30 15 1 15 16
M  V30 16 2 16 17
M  V30 17 1 17 18
M  V30 18 2 18 19
M  V30 19 1 19 20
M  V30 20 1 20 21
M  V30 21 1 21 22
M  V30 22 1 22 23
M  V30 23 1 22 24
M  V30 24 1 24 25
M  V30 25 1 25 26
M  V30 26 1 25 27
M  V30 27 1 19 28
M  V30 28 2 28 29
M  V30 29 2 14 30
M  V30 30 1 30 31
M  V30 31 2 31 32
M  V30 32 2 7 33
M  V30 33 1 33 2
M  V30 34 1 32 12
M  V30 35 1 29 16
M  V30 36 1 1 34
M  V30 37 1 1 35
M  V30 38 1 1 36
M  V30 39 1 3 37
M  V30 40 1 4 38
M  V30 41 1 9 39
M  V30 42 1 9 40
M  V30 43 1 13 41
M  V30 44 1 15 42
M  V30 45 1 17 43
M  V30 46 1 18 44
M  V30 47 1 21 45
M  V30 48 1 21 46
M  V30 49 1 22 47 CFG=1
M  V30 50 1 23 48
M  V30 51 1 24 49
M  V30 52 1 24 50
M  V30 53 1 26 51
M  V30 54 1 26 52
M  V30 55 1 26 53
M  V30 56 1 27 54
M  V30 57 1 27 55
M  V30 58 1 27 56
M  V30 59 1 28 57
M  V30 60 1 29 58
M  V30 61 1 31 59
M  V30 62 1 33 60
M  V30 END BOND
M  V30 END CTAB
M  END
>  <Dataset>  (760) 
ChEMBL_Kinases

>  <Ligand_Instance>  (760) 
nan

>  <PDB_ID>  (760) 
nan

>  <Standardized_SMILES>  (760) 
Cc1ccc(Cl)c(N(CC#N)c2cc(Nc3ccc(OC[C@@H](O)CN(C)C)cc3)ncn2)c1

>  <Name>  (760) 
nan

>  <Pocket>  (760) 
nan

>  <ATP_Site>  (760) 
nan

>  <Peripheral>  (760) 
nan

>  <Num_H_Atoms_ProtBoundConf>  (760) 
nan

>  <Num_Resolved_Atoms>  (760) 
nan

>  <Num_Not_Resolved_Atoms>  (760) 
nan

$$$$
CHEMBL4594036
     RDKit          3D

  0  0  0  0  0  0  0  0  0  0999 V3000
M  V30 BEGIN CTAB
M  V30 COUNTS 49 53 0 0 0
M  V30 BEGIN ATOM
M  V30 1 C -0.617118 -2.759307 4.912915 0
M  V30 2 C 0.186416 -2.396084 3.701968 0
M  V30 3 C 1.552284 -2.622889 3.651219 0
M  V30 4 C 2.126100 -2.224141 2.469537 0
M  V30 5 C 1.333837 -1.657613 1.477364 0
M  V30 6 C -0.052348 -1.449229 1.579060 0
M  V30 7 C -0.492513 -0.834968 0.338329 0
M  V30 8 N -0.410828 0.510165 0.330244 0
M  V30 9 N -0.791411 1.012674 -0.830401 0
M  V30 10 C -0.875599 2.400518 -1.227449 0
M  V30 11 C 0.351420 2.968258 -1.777283 0
M  V30 12 S 0.762363 3.364980 -3.310213 0
M  V30 13 N 1.412540 3.237369 -0.860500 0
M  V30 14 C 1.542204 3.061326 0.562779 0
M  V30 15 C 2.309189 2.108090 1.209774 0
M  V30 16 C 2.319838 2.044652 2.589576 0
M  V30 17 C 1.568531 2.926869 3.376596 0
M  V30 18 C 0.792628 3.890752 2.754255 0
M  V30 19 C 0.810141 3.919160 1.374768 0
M  V30 20 C -1.130682 -0.038576 -1.592663 0
M  V30 21 C -0.959264 -1.215487 -0.896581 0
M  V30 22 C -1.181558 -2.621884 -1.183409 0
M  V30 23 C -2.567966 -2.821959 -1.263776 0
M  V30 24 C -3.067350 -4.095543 -1.530744 0
M  V30 25 C -2.256223 -5.169104 -1.721319 0
M  V30 26 N -2.627036 -6.483790 -1.995701 0
M  V30 27 S -1.197697 -7.364169 -2.134058 0
M  V30 28 N 0.014195 -6.049364 -1.835465 0
M  V30 29 C -0.946106 -4.909553 -1.632238 0
M  V30 30 C -0.386363 -3.707062 -1.376589 0
M  V30 31 N -0.577229 -1.853647 2.751664 0
M  V30 32 H -1.486018 -3.373069 4.565437 0
M  V30 33 H 0.031983 -3.323939 5.618998 0
M  V30 34 H -1.018933 -1.831071 5.349396 0
M  V30 35 H 2.076586 -3.063980 4.470686 0
M  V30 36 H 3.197710 -2.388583 2.386972 0
M  V30 37 H 1.975814 -1.410563 0.615794 0
M  V30 38 H -1.731218 2.515255 -1.964316 0
M  V30 39 H -1.192646 3.036116 -0.348955 0
M  V30 40 H 2.365642 3.636828 -1.028226 0
M  V30 41 H 2.865762 1.460992 0.544058 0
M  V30 42 H 2.933374 1.275014 3.062783 0
M  V30 43 H 1.614262 2.824928 4.470275 0
M  V30 44 H 0.207442 4.578020 3.347484 0
M  V30 45 H 0.181587 4.693279 0.905533 0
M  V30 46 H -1.493795 -0.075929 -2.623887 0
M  V30 47 H -3.376367 -2.093936 -1.144590 0
M  V30 48 H -4.146872 -4.293011 -1.601200 0
M  V30 49 H 0.644195 -3.444248 -1.292299 0
M  V30 END ATOM
M  V30 BEGIN BOND
M  V30 1 1 1 2
M  V30 2 2 2 3
M  V30 3 1 3 4
M  V30 4 2 4 5
M  V30 5 1 5 6
M  V30 6 1 6 7
M  V30 7 2 7 8
M  V30 8 1 8 9
M  V30 9 1 9 10
M  V30 10 1 10 11
M  V30 11 2 11 12
M  V30 12 1 11 13
M  V30 13 1 13 14
M  V30 14 2 14 15
M  V30 15 1 15 16
M  V30 16 2 16 17
M  V30 17 1 17 18
M  V30 18 2 18 19
M  V30 19 1 9 20
M  V30 20 2 20 21
M  V30 21 1 21 22
M  V30 22 1 22 23
M  V30 23 2 23 24
M  V30 24 1 24 25
M  V30 25 2 25 26
M  V30 26 1 26 27
M  V30 27 1 27 28
M  V30 28 2 28 29
M  V30 29 1 29 30
M  V30 30 2 6 31
M  V30 31 1 31 2
M  V30 32 1 21 7
M  V30 33 2 30 22
M  V30 34 1 19 14
M  V30 35 1 29 25
M  V30 36 1 1 32
M  V30 37 1 1 33
M  V30 38 1 1 34
M  V30 39 1 3 35
M  V30 40 1 4 36
M  V30 41 1 5 37
M  V30 42 1 10 38
M  V30 43 1 10 39
M  V30 44 1 13 40
M  V30 45 1 15 41
M  V30 46 1 16 42
M  V30 47 1 17 43
M  V30 48 1 18 44
M  V30 49 1 19 45
M  V30 50 1 20 46
M  V30 51 1 23 47
M  V30 52 1 24 48
M  V30 53 1 30 49
M  V30 END BOND
M  V30 END CTAB
M  END
>  <Dataset>  (761) 
ChEMBL_Kinases

>  <Ligand_Instance>  (761) 
nan

>  <PDB_ID>  (761) 
nan

>  <Standardized_SMILES>  (761) 
Cc1cccc(-c2nn(CC(=S)Nc3ccccc3)cc2-c2ccc3nsnc3c2)n1

>  <Name>  (761) 
nan

>  <Pocket>  (761) 
nan

>  <ATP_Site>  (761) 
nan

>  <Peripheral>  (761) 
nan

>  <Num_H_Atoms_ProtBoundConf>  (761) 
nan

>  <Num_Resolved_Atoms>  (761) 
nan

>  <Num_Not_Resolved_Atoms>  (761) 
nan

$$$$
CHEMBL4632948
     RDKit          3D

  0  0  0  0  0  0  0  0  0  0999 V3000
M  V30 BEGIN CTAB
M  V30 COUNTS 68 72 0 0 0
M  V30 BEGIN ATOM
M  V30 1 C 5.632168 0.692196 1.256733 0
M  V30 2 C 5.026106 -0.158905 0.140283 0
M  V30 3 C 5.850403 -1.429490 0.040882 0
M  V30 4 O 3.721933 -0.439227 0.512705 0
M  V30 5 C 2.549477 -0.089801 -0.100014 0
M  V30 6 C 2.509758 0.645594 -1.260324 0
M  V30 7 C 1.342927 1.005276 -1.888857 0
M  V30 8 N 1.309770 1.759406 -3.096739 0
M  V30 9 C 0.132132 2.336543 -3.713417 0
M  V30 10 C -0.191169 1.437290 -4.890848 0
M  V30 11 C 1.005714 1.250780 -5.790843 0
M  V30 12 O 1.314300 -0.108215 -5.888570 0
M  V30 13 C 2.177026 2.100848 -5.379460 0
M  V30 14 C 2.489259 2.050965 -3.903540 0
M  V30 15 C 0.151763 0.601613 -1.316318 0
M  V30 16 C 0.208927 -0.137193 -0.149727 0
M  V30 17 C 1.362648 -0.514154 0.505091 0
M  V30 18 N 1.388345 -1.274485 1.703202 0
M  V30 19 C 0.300671 -1.795695 2.454800 0
M  V30 20 N 0.561105 -2.493192 3.572396 0
M  V30 21 C -0.358273 -3.040506 4.375601 0
M  V30 22 C -1.666154 -2.867487 4.016597 0
M  V30 23 C -2.010024 -2.164801 2.885284 0
M  V30 24 N -1.000722 -1.663258 2.160289 0
M  V30 25 N -3.286484 -1.866012 2.331929 0
M  V30 26 C -3.307770 -1.565655 0.923550 0
M  V30 27 C -4.515670 -1.834126 3.010001 0
M  V30 28 C -5.426046 -1.029048 2.355517 0
M  V30 29 C -6.686456 -0.880738 2.882580 0
M  V30 30 C -6.976870 -1.564393 4.068626 0
M  V30 31 C -6.066810 -2.374222 4.730207 0
M  V30 32 C -4.807530 -2.509705 4.184695 0
M  V30 33 C -3.958635 -3.398282 4.999866 0
M  V30 34 O -4.556365 -4.148624 5.822874 0
M  V30 35 N -2.530640 -3.496898 4.953370 0
M  V30 36 C -1.901411 -4.322954 5.964205 0
M  V30 37 H 6.053548 0.021049 2.042012 0
M  V30 38 H 4.853661 1.299463 1.763341 0
M  V30 39 H 6.407302 1.352530 0.862507 0
M  V30 40 H 5.133257 0.422384 -0.779761 0
M  V30 41 H 6.856664 -1.166771 -0.342719 0
M  V30 42 H 5.925135 -1.860973 1.045103 0
M  V30 43 H 5.323780 -2.107467 -0.662388 0
M  V30 44 H 3.438664 0.964222 -1.708420 0
M  V30 45 H 0.350266 3.364111 -4.130264 0
M  V30 46 H -0.730694 2.375657 -3.048123 0
M  V30 47 H -1.071922 1.856938 -5.411441 0
M  V30 48 H -0.502625 0.456422 -4.473184 0
M  V30 49 H 0.697014 1.577585 -6.804945 0
M  V30 50 H 0.686863 -0.578718 -6.467392 0
M  V30 51 H 2.059000 3.123117 -5.762327 0
M  V30 52 H 3.080817 1.669458 -5.893366 0
M  V30 53 H 3.318447 1.376368 -3.667825 0
M  V30 54 H 2.791236 3.075855 -3.602800 0
M  V30 55 H -0.827746 0.846133 -1.757377 0
M  V30 56 H -0.745315 -0.414002 0.237775 0
M  V30 57 H 2.355802 -1.478839 2.086289 0
M  V30 58 H -0.038638 -3.575662 5.239792 0
M  V30 59 H -3.175222 -0.507937 0.668340 0
M  V30 60 H -4.196502 -2.046100 0.417838 0
M  V30 61 H -2.441858 -2.105491 0.435565 0
M  V30 62 H -5.110285 -0.528796 1.426314 0
M  V30 63 H -7.402103 -0.257525 2.383285 0
M  V30 64 H -7.970525 -1.446175 4.482821 0
M  V30 65 H -6.302786 -2.889674 5.633120 0
M  V30 66 H -2.721869 -4.849254 6.535765 0
M  V30 67 H -1.295768 -5.147774 5.563653 0
M  V30 68 H -1.402224 -3.714440 6.750951 0
M  V30 END ATOM
M  V30 BEGIN BOND
M  V30 1 1 1 2
M  V30 2 1 2 3
M  V30 3 1 2 4
M  V30 4 1 4 5
M  V30 5 2 5 6
M  V30 6 1 6 7
M  V30 7 1 7 8
M  V30 8 1 8 9
M  V30 9 1 9 10
M  V30 10 1 10 11
M  V30 11 1 11 12
M  V30 12 1 11 13
M  V30 13 1 13 14
M  V30 14 2 7 15
M  V30 15 1 15 16
M  V30 16 2 16 17
M  V30 17 1 17 18
M  V30 18 1 18 19
M  V30 19 2 19 20
M  V30 20 1 20 21
M  V30 21 2 21 22
M  V30 22 1 22 23
M  V30 23 2 23 24
M  V30 24 1 23 25
M  V30 25 1 25 26
M  V30 26 1 25 27
M  V30 27 2 27 28
M  V30 28 1 28 29
M  V30 29 2 29 30
M  V30 30 1 30 31
M  V30 31 2 31 32
M  V30 32 1 32 33
M  V30 33 2 33 34
M  V30 34 1 33 35
M  V30 35 1 35 36
M  V30 36 1 17 5
M  V30 37 1 24 19
M  V30 38 1 32 27
M  V30 39 1 14 8
M  V30 40 1 35 22
M  V30 41 1 1 37
M  V30 42 1 1 38
M  V30 43 1 1 39
M  V30 44 1 2 40
M  V30 45 1 3 41
M  V30 46 1 3 42
M  V30 47 1 3 43
M  V30 48 1 6 44
M  V30 49 1 9 45
M  V30 50 1 9 46
M  V30 51 1 10 47
M  V30 52 1 10 48
M  V30 53 1 11 49
M  V30 54 1 12 50
M  V30 55 1 13 51
M  V30 56 1 13 52
M  V30 57 1 14 53
M  V30 58 1 14 54
M  V30 59 1 15 55
M  V30 60 1 16 56
M  V30 61 1 18 57
M  V30 62 1 21 58
M  V30 63 1 26 59
M  V30 64 1 26 60
M  V30 65 1 26 61
M  V30 66 1 28 62
M  V30 67 1 29 63
M  V30 68 1 30 64
M  V30 69 1 31 65
M  V30 70 1 36 66
M  V30 71 1 36 67
M  V30 72 1 36 68
M  V30 END BOND
M  V30 END CTAB
M  END
>  <Dataset>  (762) 
ChEMBL_Kinases

>  <Ligand_Instance>  (762) 
nan

>  <PDB_ID>  (762) 
nan

>  <Standardized_SMILES>  (762) 
CC(C)Oc1cc(N2CCC(O)CC2)ccc1Nc1ncc2c(n1)N(C)c1ccccc1C(=O)N2C

>  <Name>  (762) 
nan

>  <Pocket>  (762) 
nan

>  <ATP_Site>  (762) 
nan

>  <Peripheral>  (762) 
nan

>  <Num_H_Atoms_ProtBoundConf>  (762) 
nan

>  <Num_Resolved_Atoms>  (762) 
nan

>  <Num_Not_Resolved_Atoms>  (762) 
nan

$$$$
CHEMBL4632717
     RDKit          3D

  0  0  0  0  0  0  0  0  0  0999 V3000
M  V30 BEGIN CTAB
M  V30 COUNTS 50 53 0 0 0
M  V30 BEGIN ATOM
M  V30 1 C -1.552972 -5.710872 2.510519 0
M  V30 2 N -1.154943 -4.343548 2.759795 0
M  V30 3 N -0.337876 -3.936132 3.729607 0
M  V30 4 C -0.208609 -2.589553 3.657416 0
M  V30 5 C -0.988109 -2.127343 2.583083 0
M  V30 6 C -0.951546 -0.693367 2.340754 0
M  V30 7 N -0.542837 0.057399 1.303119 0
M  V30 8 C -0.621418 1.378187 1.263953 0
M  V30 9 N -0.137766 2.042768 0.129645 0
M  V30 10 C 0.453539 1.335501 -0.980265 0 CFG=1
M  V30 11 C 0.863943 2.285104 -2.076890 0
M  V30 12 C 2.317492 2.636513 -2.064172 0
M  V30 13 C 2.791897 2.759689 -0.652369 0 CFG=2
M  V30 14 N 4.205516 3.166278 -0.603333 0
M  V30 15 C 2.658643 1.475938 0.131883 0
M  V30 16 C 1.684527 0.561329 -0.564299 0
M  V30 17 N -1.140461 2.077485 2.311278 0
M  V30 18 C -1.582157 1.439911 3.404520 0
M  V30 19 C -1.481383 0.051470 3.406109 0
M  V30 20 F -1.947582 -0.515896 4.548653 0
M  V30 21 C -1.548385 -3.276259 2.070832 0
M  V30 22 C -2.463346 -3.144561 0.917515 0
M  V30 23 C -1.830521 -2.917466 -0.401484 0
M  V30 24 C -0.867478 -3.965653 -0.946592 0
M  V30 25 C -0.425682 -2.583576 -0.650085 0
M  V30 26 H -2.658873 -5.789984 2.380986 0
M  V30 27 H -1.049888 -6.135080 1.643353 0
M  V30 28 H -1.302417 -6.353526 3.388986 0
M  V30 29 H 0.434028 -2.131572 4.398586 0
M  V30 30 H -0.206248 3.071891 0.096920 0
M  V30 31 H -0.276758 0.614208 -1.384509 0
M  V30 32 H 0.290666 3.247333 -1.941603 0
M  V30 33 H 0.571534 1.911731 -3.081786 0
M  V30 34 H 2.948494 1.961966 -2.675502 0
M  V30 35 H 2.430655 3.654383 -2.522870 0
M  V30 36 H 2.216556 3.561020 -0.153939 0
M  V30 37 H 4.793196 2.322018 -0.486574 0
M  V30 38 H 4.324890 3.751278 0.246331 0
M  V30 39 H 3.650088 0.954222 0.156100 0
M  V30 40 H 2.384554 1.708114 1.159749 0
M  V30 41 H 2.168243 0.239924 -1.514484 0
M  V30 42 H 1.452631 -0.340904 0.004138 0
M  V30 43 H -1.992457 2.001274 4.231779 0
M  V30 44 H -3.234923 -2.338508 1.122685 0
M  V30 45 H -3.105216 -4.066705 0.811695 0
M  V30 46 H -2.566241 -2.602169 -1.209020 0
M  V30 47 H -0.911429 -4.237427 -2.029701 0
M  V30 48 H -0.679719 -4.813807 -0.292999 0
M  V30 49 H 0.225210 -2.377398 0.224639 0
M  V30 50 H -0.197538 -1.917065 -1.532884 0
M  V30 END ATOM
M  V30 BEGIN BOND
M  V30 1 1 1 2
M  V30 2 1 2 3
M  V30 3 2 3 4
M  V30 4 1 4 5
M  V30 5 1 5 6
M  V30 6 2 6 7
M  V30 7 1 7 8
M  V30 8 1 8 9
M  V30 9 1 9 10
M  V30 10 1 10 11
M  V30 11 1 11 12
M  V30 12 1 12 13
M  V30 13 1 13 14
M  V30 14 1 13 15
M  V30 15 1 15 16
M  V30 16 2 8 17
M  V30 17 1 17 18
M  V30 18 2 18 19
M  V30 19 1 19 20
M  V30 20 2 5 21
M  V30 21 1 21 22
M  V30 22 1 22 23
M  V30 23 1 23 24
M  V30 24 1 24 25
M  V30 25 1 21 2
M  V30 26 1 25 23
M  V30 27 1 19 6
M  V30 28 1 16 10
M  V30 29 1 1 26
M  V30 30 1 1 27
M  V30 31 1 1 28
M  V30 32 1 4 29
M  V30 33 1 9 30
M  V30 34 1 10 31 CFG=3
M  V30 35 1 11 32
M  V30 36 1 11 33
M  V30 37 1 12 34
M  V30 38 1 12 35
M  V30 39 1 13 36 CFG=1
M  V30 40 1 14 37
M  V30 41 1 14 38
M  V30 42 1 15 39
M  V30 43 1 15 40
M  V30 44 1 16 41
M  V30 45 1 16 42
M  V30 46 1 18 43
M  V30 47 1 22 44
M  V30 48 1 22 45
M  V30 49 1 23 46
M  V30 50 1 24 47
M  V30 51 1 24 48
M  V30 52 1 25 49
M  V30 53 1 25 50
M  V30 END BOND
M  V30 END CTAB
M  END
>  <Dataset>  (763) 
ChEMBL_Kinases

>  <Ligand_Instance>  (763) 
nan

>  <PDB_ID>  (763) 
nan

>  <Standardized_SMILES>  (763) 
Cn1ncc(-c2nc(N[C@H]3CC[C@H](N)CC3)ncc2F)c1CC1CC1

>  <Name>  (763) 
nan

>  <Pocket>  (763) 
nan

>  <ATP_Site>  (763) 
nan

>  <Peripheral>  (763) 
nan

>  <Num_H_Atoms_ProtBoundConf>  (763) 
nan

>  <Num_Resolved_Atoms>  (763) 
nan

>  <Num_Not_Resolved_Atoms>  (763) 
nan

$$$$
CHEMBL4636499
     RDKit          3D

  0  0  0  0  0  0  0  0  0  0999 V3000
M  V30 BEGIN CTAB
M  V30 COUNTS 44 48 0 0 0
M  V30 BEGIN ATOM
M  V30 1 C 3.140490 -4.839664 2.457505 0
M  V30 2 O 4.369940 -4.151305 2.321985 0
M  V30 3 C 4.641449 -3.236398 1.314180 0
M  V30 4 C 5.874555 -2.628405 1.283895 0
M  V30 5 C 6.107775 -1.726695 0.269751 0
M  V30 6 C 5.111338 -1.461945 -0.674868 0
M  V30 7 C 3.862245 -2.091999 -0.626001 0
M  V30 8 C 2.931703 -1.683576 -1.716069 0
M  V30 9 N 2.121173 -0.522935 -1.341621 0
M  V30 10 C 2.664814 0.667656 -1.643855 0
M  V30 11 N 1.929101 1.741407 -1.302918 0
M  V30 12 C 0.718514 1.563877 -0.692625 0
M  V30 13 S -0.569071 2.770187 -0.078875 0
M  V30 14 C -1.677300 1.492228 0.508091 0
M  V30 15 C -2.939163 1.853482 1.130410 0
M  V30 16 C -3.272035 3.185110 1.263243 0
M  V30 17 C -4.507403 3.418666 1.875571 0
M  V30 18 C -5.333973 2.388627 2.315345 0
M  V30 19 N -6.533465 2.432334 2.914535 0
M  V30 20 N -6.929433 1.192795 3.144121 0
M  V30 21 C -5.992615 0.335441 2.697012 0
M  V30 22 C -4.945086 1.080475 2.153883 0
M  V30 23 C -3.730403 0.804757 1.552974 0
M  V30 24 C -1.049849 0.346384 0.223150 0
M  V30 25 C 0.163321 0.332530 -0.383585 0
M  V30 26 C 0.942778 -0.747844 -0.746253 0
M  V30 27 O 0.572933 -1.931039 -0.531265 0
M  V30 28 C 3.654659 -2.990245 0.399244 0
M  V30 29 H 3.019365 -5.140840 3.533389 0
M  V30 30 H 2.257086 -4.243274 2.210986 0
M  V30 31 H 3.230106 -5.775440 1.838634 0
M  V30 32 H 6.601371 -2.876616 2.043541 0
M  V30 33 H 7.067128 -1.224288 0.208527 0
M  V30 34 H 5.379489 -0.730672 -1.449326 0
M  V30 35 H 2.255002 -2.551917 -1.964904 0
M  V30 36 H 3.475456 -1.463345 -2.631260 0
M  V30 37 H 3.590098 0.903472 -2.112853 0
M  V30 38 H -2.660303 4.004116 0.936344 0
M  V30 39 H -4.791216 4.456869 1.991289 0
M  V30 40 H -7.036811 3.328132 3.143731 0
M  V30 41 H -5.941520 -0.750469 2.698969 0
M  V30 42 H -3.446952 -0.227183 1.437276 0
M  V30 43 H -1.606075 -0.533195 0.523791 0
M  V30 44 H 2.678669 -3.440077 0.382494 0
M  V30 END ATOM
M  V30 BEGIN BOND
M  V30 1 1 1 2
M  V30 2 1 2 3
M  V30 3 2 3 4
M  V30 4 1 4 5
M  V30 5 2 5 6
M  V30 6 1 6 7
M  V30 7 1 7 8
M  V30 8 1 8 9
M  V30 9 1 9 10
M  V30 10 2 10 11
M  V30 11 1 11 12
M  V30 12 1 12 13
M  V30 13 1 13 14
M  V30 14 1 14 15
M  V30 15 2 15 16
M  V30 16 1 16 17
M  V30 17 2 17 18
M  V30 18 1 18 19
M  V30 19 1 19 20
M  V30 20 2 20 21
M  V30 21 1 21 22
M  V30 22 2 22 23
M  V30 23 2 14 24
M  V30 24 1 24 25
M  V30 25 1 25 26
M  V30 26 2 26 27
M  V30 27 2 7 28
M  V30 28 1 28 3
M  V30 29 1 26 9
M  V30 30 2 25 12
M  V30 31 1 23 15
M  V30 32 1 22 18
M  V30 33 1 1 29
M  V30 34 1 1 30
M  V30 35 1 1 31
M  V30 36 1 4 32
M  V30 37 1 5 33
M  V30 38 1 6 34
M  V30 39 1 8 35
M  V30 40 1 8 36
M  V30 41 1 10 37
M  V30 42 1 16 38
M  V30 43 1 17 39
M  V30 44 1 19 40
M  V30 45 1 21 41
M  V30 46 1 23 42
M  V30 47 1 24 43
M  V30 48 1 28 44
M  V30 END BOND
M  V30 END CTAB
M  END
>  <Dataset>  (764) 
ChEMBL_Kinases

>  <Ligand_Instance>  (764) 
nan

>  <PDB_ID>  (764) 
nan

>  <Standardized_SMILES>  (764) 
COc1cccc(Cn2cnc3sc(-c4ccc5[nH]ncc5c4)cc3c2=O)c1

>  <Name>  (764) 
nan

>  <Pocket>  (764) 
nan

>  <ATP_Site>  (764) 
nan

>  <Peripheral>  (764) 
nan

>  <Num_H_Atoms_ProtBoundConf>  (764) 
nan

>  <Num_Resolved_Atoms>  (764) 
nan

>  <Num_Not_Resolved_Atoms>  (764) 
nan

$$$$
CHEMBL4644434
     RDKit          3D

  0  0  0  0  0  0  0  0  0  0999 V3000
M  V30 BEGIN CTAB
M  V30 COUNTS 55 57 0 0 0
M  V30 BEGIN ATOM
M  V30 1 C 0.799846 0.276069 -3.577067 0
M  V30 2 C 0.746630 1.203387 -2.401824 0
M  V30 3 C -0.652801 1.732915 -2.203860 0
M  V30 4 C 1.310463 0.596443 -1.149212 0
M  V30 5 C 2.631691 0.742063 -0.705550 0
M  V30 6 N 2.741289 0.058457 0.459415 0
M  V30 7 N 1.597244 -0.504042 0.782538 0
M  V30 8 C 1.168869 -1.269719 1.802723 0
M  V30 9 N 2.056302 -1.638128 2.855020 0
M  V30 10 C 2.112439 -0.793525 4.015512 0
M  V30 11 C 2.515835 0.593758 3.758534 0
M  V30 12 C 3.809605 1.071076 3.775806 0
M  V30 13 C 3.993380 2.408927 3.511648 0
M  V30 14 C 2.969566 3.314156 3.228554 0
M  V30 15 C 1.676500 2.781289 3.222411 0
M  V30 16 C 1.457597 1.435663 3.485280 0
M  V30 17 C -0.135285 -1.716169 1.854102 0
M  V30 18 C -1.022663 -1.381513 0.853049 0
M  V30 19 N -2.403818 -1.753358 0.766276 0
M  V30 20 C -3.008926 -3.048495 0.575921 0 CFG=1
M  V30 21 C -4.498957 -2.874101 0.459040 0
M  V30 22 O -4.936424 -2.275996 1.660963 0
M  V30 23 C -2.380553 -3.921753 -0.440667 0 CFG=1
M  V30 24 O -3.011721 -5.183148 -0.567712 0
M  V30 25 C -2.274465 -3.370405 -1.820214 0
M  V30 26 O -3.511871 -3.221151 -2.450808 0
M  V30 27 N -0.572919 -0.616883 -0.154283 0
M  V30 28 C 0.694900 -0.199968 -0.175400 0
M  V30 29 H 0.053991 0.575740 -4.336720 0
M  V30 30 H 0.525010 -0.757240 -3.234418 0
M  V30 31 H 1.847137 0.298514 -3.961093 0
M  V30 32 H 1.381201 2.118629 -2.606527 0
M  V30 33 H -1.398448 1.288169 -2.906444 0
M  V30 34 H -0.987937 1.471568 -1.174611 0
M  V30 35 H -0.703471 2.853179 -2.237577 0
M  V30 36 H 3.411094 1.309635 -1.227643 0
M  V30 37 H 2.639688 -2.516482 2.746362 0
M  V30 38 H 1.150634 -0.861650 4.575832 0
M  V30 39 H 2.867288 -1.243732 4.702699 0
M  V30 40 H 4.602299 0.380410 3.993383 0
M  V30 41 H 5.012527 2.745505 3.534412 0
M  V30 42 H 3.206086 4.350981 3.031198 0
M  V30 43 H 0.877668 3.484956 3.003473 0
M  V30 44 H 0.390559 1.163806 3.444869 0
M  V30 45 H -0.551136 -2.336182 2.644331 0
M  V30 46 H -2.991043 -0.874139 0.869306 0
M  V30 47 H -2.861681 -3.582172 1.572290 0
M  V30 48 H -4.773497 -2.169032 -0.363316 0
M  V30 49 H -5.045664 -3.830761 0.404541 0
M  V30 50 H -5.624660 -1.573026 1.460828 0
M  V30 51 H -1.347179 -4.185102 -0.069172 0
M  V30 52 H -2.780560 -5.604937 -1.420440 0
M  V30 53 H -1.767125 -2.393600 -1.909216 0
M  V30 54 H -1.637878 -4.065845 -2.439515 0
M  V30 55 H -3.421575 -3.433974 -3.409776 0
M  V30 END ATOM
M  V30 BEGIN BOND
M  V30 1 1 1 2
M  V30 2 1 2 3
M  V30 3 1 2 4
M  V30 4 1 4 5
M  V30 5 2 5 6
M  V30 6 1 6 7
M  V30 7 1 7 8
M  V30 8 1 8 9
M  V30 9 1 9 10
M  V30 10 1 10 11
M  V30 11 2 11 12
M  V30 12 1 12 13
M  V30 13 2 13 14
M  V30 14 1 14 15
M  V30 15 2 15 16
M  V30 16 2 8 17
M  V30 17 1 17 18
M  V30 18 1 18 19
M  V30 19 1 19 20
M  V30 20 1 20 21
M  V30 21 1 21 22
M  V30 22 1 20 23
M  V30 23 1 23 24
M  V30 24 1 23 25
M  V30 25 1 25 26
M  V30 26 2 18 27
M  V30 27 1 27 28
M  V30 28 2 28 4
M  V30 29 1 28 7
M  V30 30 1 16 11
M  V30 31 1 1 29
M  V30 32 1 1 30
M  V30 33 1 1 31
M  V30 34 1 2 32
M  V30 35 1 3 33
M  V30 36 1 3 34
M  V30 37 1 3 35
M  V30 38 1 5 36
M  V30 39 1 9 37
M  V30 40 1 10 38
M  V30 41 1 10 39
M  V30 42 1 12 40
M  V30 43 1 13 41
M  V30 44 1 14 42
M  V30 45 1 15 43
M  V30 46 1 16 44
M  V30 47 1 17 45
M  V30 48 1 19 46
M  V30 49 1 20 47 CFG=1
M  V30 50 1 21 48
M  V30 51 1 21 49
M  V30 52 1 22 50
M  V30 53 1 23 51 CFG=1
M  V30 54 1 24 52
M  V30 55 1 25 53
M  V30 56 1 25 54
M  V30 57 1 26 55
M  V30 END BOND
M  V30 END CTAB
M  END
>  <Dataset>  (765) 
ChEMBL_Kinases

>  <Ligand_Instance>  (765) 
nan

>  <PDB_ID>  (765) 
nan

>  <Standardized_SMILES>  (765) 
CC(C)c1cnn2c(NCc3ccccc3)cc(N[C@@H](CO)[C@@H](O)CO)nc12

>  <Name>  (765) 
nan

>  <Pocket>  (765) 
nan

>  <ATP_Site>  (765) 
nan

>  <Peripheral>  (765) 
nan

>  <Num_H_Atoms_ProtBoundConf>  (765) 
nan

>  <Num_Resolved_Atoms>  (765) 
nan

>  <Num_Not_Resolved_Atoms>  (765) 
nan

$$$$
CHEMBL2064558
     RDKit          3D

  0  0  0  0  0  0  0  0  0  0999 V3000
M  V30 BEGIN CTAB
M  V30 COUNTS 63 66 0 0 0
M  V30 BEGIN ATOM
M  V30 1 C 2.944907 -2.838364 4.326823 0
M  V30 2 N 1.616829 -2.345395 4.449933 0
M  V30 3 C 1.325823 -1.482474 5.527151 0
M  V30 4 C 1.098794 -1.994833 3.157630 0
M  V30 5 C 1.733799 -0.838198 2.486499 0 CFG=1
M  V30 6 N 1.174097 -0.532956 1.184182 0
M  V30 7 C 1.837614 -0.580606 -0.057315 0
M  V30 8 O 3.062956 -0.935178 0.011910 0
M  V30 9 N 1.171392 -0.254554 -1.272883 0
M  V30 10 C -0.218437 0.155705 -1.426539 0
M  V30 11 C -0.534251 -0.556392 -2.711212 0
M  V30 12 C -1.588379 -1.055396 -3.464093 0
M  V30 13 N -2.946626 -0.963362 -3.053423 0
M  V30 14 C -3.638639 -1.926892 -2.274684 0
M  V30 15 O -3.024968 -2.957782 -1.902214 0
M  V30 16 C -5.034443 -1.773312 -1.886151 0
M  V30 17 C -5.617571 -2.771415 -1.125198 0
M  V30 18 C -6.935755 -2.733457 -0.698069 0
M  V30 19 C -7.703517 -1.623544 -1.062460 0
M  V30 20 C -7.139780 -0.619977 -1.820062 0
M  V30 21 C -5.808574 -0.688417 -2.234377 0
M  V30 22 N -1.023169 -1.597746 -4.582586 0
M  V30 23 N 0.288651 -1.442715 -4.521566 0
M  V30 24 C 0.642289 -0.816457 -3.406803 0
M  V30 25 C 1.780201 -0.276122 -2.592303 0
M  V30 26 C 2.058496 1.115513 -3.103473 0
M  V30 27 C 2.981610 -1.159448 -2.694932 0
M  V30 28 C 1.792006 0.415230 3.237057 0
M  V30 29 C 0.700929 1.279385 3.217523 0
M  V30 30 C 0.660840 2.486110 3.888479 0
M  V30 31 C 1.778115 2.866078 4.631593 0
M  V30 32 C 2.886163 2.050465 4.686940 0
M  V30 33 C 2.870938 0.852821 3.995071 0
M  V30 34 H 3.643414 -2.347485 5.036757 0
M  V30 35 H 2.896196 -3.944338 4.548528 0
M  V30 36 H 3.363675 -2.807838 3.284814 0
M  V30 37 H 0.581639 -0.701337 5.306298 0
M  V30 38 H 2.229251 -1.056975 6.059404 0
M  V30 39 H 0.837788 -2.095658 6.346857 0
M  V30 40 H 1.314539 -2.898060 2.511386 0
M  V30 41 H -0.002613 -1.866772 3.261740 0
M  V30 42 H 2.801146 -1.122850 2.277521 0
M  V30 43 H 0.162870 -0.244069 1.157133 0
M  V30 44 H -0.293465 1.233396 -1.621155 0
M  V30 45 H -0.868846 -0.182579 -0.607003 0
M  V30 46 H -3.426693 -0.096294 -3.378668 0
M  V30 47 H -5.053707 -3.624920 -0.835637 0
M  V30 48 H -7.348434 -3.520240 -0.114233 0
M  V30 49 H -8.741204 -1.523746 -0.765722 0
M  V30 50 H -7.669704 0.287060 -2.150962 0
M  V30 51 H -5.375942 0.104735 -2.828512 0
M  V30 52 H 0.917731 -1.787351 -5.279947 0
M  V30 53 H 2.877881 1.110897 -3.851418 0
M  V30 54 H 2.410966 1.769374 -2.276418 0
M  V30 55 H 1.143480 1.582942 -3.536665 0
M  V30 56 H 2.953321 -2.033715 -2.046181 0
M  V30 57 H 2.964841 -1.557981 -3.749655 0
M  V30 58 H 3.892023 -0.553247 -2.624201 0
M  V30 59 H -0.212398 1.072095 2.668968 0
M  V30 60 H -0.186202 3.149256 3.868527 0
M  V30 61 H 1.814226 3.798898 5.182079 0
M  V30 62 H 3.803646 2.267569 5.243175 0
M  V30 63 H 3.722776 0.200348 4.023035 0
M  V30 END ATOM
M  V30 BEGIN BOND
M  V30 1 1 1 2
M  V30 2 1 2 3
M  V30 3 1 2 4
M  V30 4 1 4 5
M  V30 5 1 5 6
M  V30 6 1 6 7
M  V30 7 2 7 8
M  V30 8 1 7 9
M  V30 9 1 9 10
M  V30 10 1 10 11
M  V30 11 1 11 12
M  V30 12 1 12 13
M  V30 13 1 13 14
M  V30 14 2 14 15
M  V30 15 1 14 16
M  V30 16 2 16 17
M  V30 17 1 17 18
M  V30 18 2 18 19
M  V30 19 1 19 20
M  V30 20 2 20 21
M  V30 21 2 12 22
M  V30 22 1 22 23
M  V30 23 1 23 24
M  V30 24 1 24 25
M  V30 25 1 25 26
M  V30 26 1 25 27
M  V30 27 1 5 28
M  V30 28 2 28 29
M  V30 29 1 29 30
M  V30 30 2 30 31
M  V30 31 1 31 32
M  V30 32 2 32 33
M  V30 33 1 25 9
M  V30 34 1 33 28
M  V30 35 2 24 11
M  V30 36 1 21 16
M  V30 37 1 1 34
M  V30 38 1 1 35
M  V30 39 1 1 36
M  V30 40 1 3 37
M  V30 41 1 3 38
M  V30 42 1 3 39
M  V30 43 1 4 40
M  V30 44 1 4 41
M  V30 45 1 5 42 CFG=3
M  V30 46 1 6 43
M  V30 47 1 10 44
M  V30 48 1 10 45
M  V30 49 1 13 46
M  V30 50 1 17 47
M  V30 51 1 18 48
M  V30 52 1 19 49
M  V30 53 1 20 50
M  V30 54 1 21 51
M  V30 55 1 23 52
M  V30 56 1 26 53
M  V30 57 1 26 54
M  V30 58 1 26 55
M  V30 59 1 27 56
M  V30 60 1 27 57
M  V30 61 1 27 58
M  V30 62 1 29 59
M  V30 63 1 30 60
M  V30 64 1 31 61
M  V30 65 1 32 62
M  V30 66 1 33 63
M  V30 END BOND
M  V30 END CTAB
M  END
>  <Dataset>  (766) 
ChEMBL_Kinases

>  <Ligand_Instance>  (766) 
nan

>  <PDB_ID>  (766) 
nan

>  <Standardized_SMILES>  (766) 
CN(C)C[C@@H](NC(=O)N1Cc2c(NC(=O)c3ccccc3)n[nH]c2C1(C)C)c1ccccc1

>  <Name>  (766) 
nan

>  <Pocket>  (766) 
nan

>  <ATP_Site>  (766) 
nan

>  <Peripheral>  (766) 
nan

>  <Num_H_Atoms_ProtBoundConf>  (766) 
nan

>  <Num_Resolved_Atoms>  (766) 
nan

>  <Num_Not_Resolved_Atoms>  (766) 
nan

$$$$
CHEMBL1095788
     RDKit          3D

  0  0  0  0  0  0  0  0  0  0999 V3000
M  V30 BEGIN CTAB
M  V30 COUNTS 75 80 0 0 0
M  V30 BEGIN ATOM
M  V30 1 C 6.275167 -3.915514 5.156493 0
M  V30 2 C 6.055313 -3.819673 3.668271 0
M  V30 3 N 4.737875 -3.283732 3.387330 0
M  V30 4 C 3.569342 -3.928135 3.216908 0
M  V30 5 C 2.527691 -3.047164 2.963733 0
M  V30 6 C 1.121800 -3.337697 2.728818 0
M  V30 7 C 0.534693 -4.002585 3.801848 0
M  V30 8 C -0.818252 -4.353857 3.728821 0
M  V30 9 N -1.523184 -4.040093 2.620242 0
M  V30 10 C -0.966253 -3.400803 1.584125 0
M  V30 11 N -1.378841 -2.959415 0.382102 0
M  V30 12 C -0.373656 -2.353905 -0.304671 0
M  V30 13 C -0.476523 -1.763210 -1.635004 0
M  V30 14 C 0.616979 -1.169299 -2.230130 0
M  V30 15 C 0.439434 -0.630442 -3.491409 0
M  V30 16 C -0.776665 -0.669239 -4.158569 0
M  V30 17 C -1.885575 -1.265747 -3.567508 0
M  V30 18 C -3.182787 -1.316674 -4.272499 0
M  V30 19 N -4.017738 -0.154353 -4.043382 0
M  V30 20 C -4.335886 0.056122 -2.643552 0
M  V30 21 C -5.563061 -0.781653 -2.370559 0
M  V30 22 C -6.255192 -0.923290 -3.713939 0
M  V30 23 C -5.300182 -0.302939 -4.710548 0
M  V30 24 C -1.683923 -1.800205 -2.300947 0
M  V30 25 C 0.784064 -2.385689 0.472187 0
M  V30 26 C 0.366104 -3.035732 1.614422 0
M  V30 27 C 3.144273 -1.814504 2.991418 0
M  V30 28 C 2.542947 -0.504285 2.786769 0
M  V30 29 C 1.564245 0.134168 3.518009 0
M  V30 30 C 1.129305 1.391040 3.154552 0
M  V30 31 C 1.666780 2.007530 2.068747 0
M  V30 32 N 1.263445 3.302475 1.637565 0
M  V30 33 C 0.180955 3.166954 0.702369 0
M  V30 34 O -0.100640 1.931949 0.533401 0
M  V30 35 N -0.480231 4.248719 0.058566 0
M  V30 36 C -0.165766 5.662956 0.244261 0
M  V30 37 C -1.544755 3.865649 -0.845831 0
M  V30 38 C 2.647725 1.401607 1.311801 0
M  V30 39 C 3.099099 0.127817 1.667339 0
M  V30 40 N 4.439440 -2.024973 3.244715 0
M  V30 41 H 7.322660 -3.613222 5.437958 0
M  V30 42 H 5.612689 -3.145843 5.636415 0
M  V30 43 H 6.026665 -4.897878 5.580292 0
M  V30 44 H 6.818461 -3.125796 3.263980 0
M  V30 45 H 6.194393 -4.800037 3.151573 0
M  V30 46 H 3.447708 -5.007319 3.269708 0
M  V30 47 H 1.028700 -4.288028 4.719975 0
M  V30 48 H -1.294398 -4.879725 4.569917 0
M  V30 49 H -2.387123 -3.105870 0.079883 0
M  V30 50 H 1.564971 -1.121701 -1.747060 0
M  V30 51 H 1.292344 -0.158449 -3.973714 0
M  V30 52 H -0.843577 -0.222196 -5.155206 0
M  V30 53 H -3.748400 -2.214973 -3.898492 0
M  V30 54 H -3.082881 -1.476314 -5.361651 0
M  V30 55 H -3.503287 -0.132503 -1.957096 0
M  V30 56 H -4.631493 1.143289 -2.563845 0
M  V30 57 H -6.226460 -0.284820 -1.650305 0
M  V30 58 H -5.304142 -1.787304 -1.971639 0
M  V30 59 H -7.206643 -0.351442 -3.706780 0
M  V30 60 H -6.513635 -1.956241 -3.961237 0
M  V30 61 H -5.251085 -0.933124 -5.612521 0
M  V30 62 H -5.699005 0.685590 -5.028732 0
M  V30 63 H -2.519812 -2.289392 -1.782570 0
M  V30 64 H 1.749638 -2.008766 0.251688 0
M  V30 65 H 1.210514 -0.442605 4.353917 0
M  V30 66 H 0.361294 1.859863 3.750912 0
M  V30 67 H 1.585281 4.292689 1.856962 0
M  V30 68 H -1.075524 6.290277 0.166047 0
M  V30 69 H 0.605462 6.007776 -0.482522 0
M  V30 70 H 0.266632 5.737111 1.281128 0
M  V30 71 H -2.546908 3.850185 -0.377736 0
M  V30 72 H -1.545087 4.518595 -1.767506 0
M  V30 73 H -1.384730 2.837905 -1.276851 0
M  V30 74 H 3.078698 1.907213 0.433578 0
M  V30 75 H 3.876633 -0.280233 1.016114 0
M  V30 END ATOM
M  V30 BEGIN BOND
M  V30 1 1 1 2
M  V30 2 1 2 3
M  V30 3 1 3 4
M  V30 4 2 4 5
M  V30 5 1 5 6
M  V30 6 2 6 7
M  V30 7 1 7 8
M  V30 8 2 8 9
M  V30 9 1 9 10
M  V30 10 1 10 11
M  V30 11 1 11 12
M  V30 12 1 12 13
M  V30 13 2 13 14
M  V30 14 1 14 15
M  V30 15 2 15 16
M  V30 16 1 16 17
M  V30 17 1 17 18
M  V30 18 1 18 19
M  V30 19 1 19 20
M  V30 20 1 20 21
M  V30 21 1 21 22
M  V30 22 1 22 23
M  V30 23 2 17 24
M  V30 24 2 12 25
M  V30 25 1 25 26
M  V30 26 1 5 27
M  V30 27 1 27 28
M  V30 28 2 28 29
M  V30 29 1 29 30
M  V30 30 2 30 31
M  V30 31 1 31 32
M  V30 32 1 32 33
M  V30 33 2 33 34
M  V30 34 1 33 35
M  V30 35 1 35 36
M  V30 36 1 35 37
M  V30 37 1 31 38
M  V30 38 2 38 39
M  V30 39 2 27 40
M  V30 40 1 40 3
M  V30 41 1 26 6
M  V30 42 1 39 28
M  V30 43 2 26 10
M  V30 44 1 24 13
M  V30 45 1 23 19
M  V30 46 1 1 41
M  V30 47 1 1 42
M  V30 48 1 1 43
M  V30 49 1 2 44
M  V30 50 1 2 45
M  V30 51 1 4 46
M  V30 52 1 7 47
M  V30 53 1 8 48
M  V30 54 1 11 49
M  V30 55 1 14 50
M  V30 56 1 15 51
M  V30 57 1 16 52
M  V30 58 1 18 53
M  V30 59 1 18 54
M  V30 60 1 20 55
M  V30 61 1 20 56
M  V30 62 1 21 57
M  V30 63 1 21 58
M  V30 64 1 22 59
M  V30 65 1 22 60
M  V30 66 1 23 61
M  V30 67 1 23 62
M  V30 68 1 24 63
M  V30 69 1 25 64
M  V30 70 1 29 65
M  V30 71 1 30 66
M  V30 72 1 32 67
M  V30 73 1 36 68
M  V30 74 1 36 69
M  V30 75 1 36 70
M  V30 76 1 37 71
M  V30 77 1 37 72
M  V30 78 1 37 73
M  V30 79 1 38 74
M  V30 80 1 39 75
M  V30 END BOND
M  V30 END CTAB
M  END
>  <Dataset>  (767) 
ChEMBL_Kinases

>  <Ligand_Instance>  (767) 
nan

>  <PDB_ID>  (767) 
nan

>  <Standardized_SMILES>  (767) 
CCn1cc(-c2ccnc3[nH]c(-c4cccc(CN5CCCC5)c4)cc23)c(-c2ccc(NC(=O)N(C)C)cc2)n1

>  <Name>  (767) 
nan

>  <Pocket>  (767) 
nan

>  <ATP_Site>  (767) 
nan

>  <Peripheral>  (767) 
nan

>  <Num_H_Atoms_ProtBoundConf>  (767) 
nan

>  <Num_Resolved_Atoms>  (767) 
nan

>  <Num_Not_Resolved_Atoms>  (767) 
nan

$$$$
CHEMBL4637286
     RDKit          3D

  0  0  0  0  0  0  0  0  0  0999 V3000
M  V30 BEGIN CTAB
M  V30 COUNTS 28 30 0 0 0
M  V30 BEGIN ATOM
M  V30 1 N 0.833449 -3.989992 4.599258 0
M  V30 2 C 1.567250 -2.771122 4.578777 0
M  V30 3 O 2.331466 -2.615230 5.565865 0
M  V30 4 C 1.435607 -1.795639 3.501003 0
M  V30 5 C 2.189708 -0.647856 3.575015 0
M  V30 6 C 2.073620 0.296188 2.548657 0
M  V30 7 C 1.208149 0.058412 1.486078 0
M  V30 8 N 0.858520 0.721330 0.369468 0
M  V30 9 C -0.051125 0.022748 -0.341030 0
M  V30 10 C -0.687404 0.385894 -1.609428 0
M  V30 11 C -1.594471 -0.465976 -2.177314 0
M  V30 12 C -2.175510 -0.075950 -3.388515 0
M  V30 13 N -1.868917 1.097350 -3.998406 0
M  V30 14 C -0.961178 1.914355 -3.397952 0
M  V30 15 C -0.347172 1.587655 -2.195419 0
M  V30 16 N -0.256930 -1.092288 0.364896 0
M  V30 17 C 0.478917 -1.132505 1.487850 0
M  V30 18 C 0.563276 -2.090320 2.479829 0
M  V30 19 H 0.617569 -4.754802 3.897548 0
M  V30 20 H 0.329268 -4.338007 5.466048 0
M  V30 21 H 2.874232 -0.424023 4.383043 0
M  V30 22 H 2.641804 1.218784 2.552087 0
M  V30 23 H 1.240034 1.656667 0.085720 0
M  V30 24 H -1.889462 -1.431740 -1.738260 0
M  V30 25 H -2.910712 -0.688375 -3.919486 0
M  V30 26 H -0.639476 2.884362 -3.801409 0
M  V30 27 H 0.371399 2.214586 -1.702152 0
M  V30 28 H -0.026306 -2.997492 2.430839 0
M  V30 END ATOM
M  V30 BEGIN BOND
M  V30 1 1 1 2
M  V30 2 2 2 3
M  V30 3 1 2 4
M  V30 4 2 4 5
M  V30 5 1 5 6
M  V30 6 2 6 7
M  V30 7 1 7 8
M  V30 8 1 8 9
M  V30 9 1 9 10
M  V30 10 2 10 11
M  V30 11 1 11 12
M  V30 12 2 12 13
M  V30 13 1 13 14
M  V30 14 2 14 15
M  V30 15 2 9 16
M  V30 16 1 16 17
M  V30 17 2 17 18
M  V30 18 1 18 4
M  V30 19 1 17 7
M  V30 20 1 15 10
M  V30 21 1 1 19
M  V30 22 1 1 20
M  V30 23 1 5 21
M  V30 24 1 6 22
M  V30 25 1 8 23
M  V30 26 1 11 24
M  V30 27 1 12 25
M  V30 28 1 14 26
M  V30 29 1 15 27
M  V30 30 1 18 28
M  V30 END BOND
M  V30 END CTAB
M  END
>  <Dataset>  (768) 
ChEMBL_Kinases

>  <Ligand_Instance>  (768) 
nan

>  <PDB_ID>  (768) 
nan

>  <Standardized_SMILES>  (768) 
NC(=O)c1ccc2[nH]c(-c3ccncc3)nc2c1

>  <Name>  (768) 
nan

>  <Pocket>  (768) 
nan

>  <ATP_Site>  (768) 
nan

>  <Peripheral>  (768) 
nan

>  <Num_H_Atoms_ProtBoundConf>  (768) 
nan

>  <Num_Resolved_Atoms>  (768) 
nan

>  <Num_Not_Resolved_Atoms>  (768) 
nan

$$$$
CHEMBL4636488
     RDKit          3D

  0  0  0  0  0  0  0  0  0  0999 V3000
M  V30 BEGIN CTAB
M  V30 COUNTS 44 47 0 0 0
M  V30 BEGIN ATOM
M  V30 1 C -2.449310 -5.342168 3.664052 0
M  V30 2 C -1.192337 -5.734690 3.273673 0
M  V30 3 C -0.357309 -4.953800 2.493403 0
M  V30 4 C -0.833981 -3.729437 2.103585 0
M  V30 5 C -0.021997 -2.847050 1.283039 0
M  V30 6 C -0.160343 -1.498200 1.417334 0
M  V30 7 C 0.570888 -0.582116 0.677260 0
M  V30 8 N 0.438311 0.814928 0.813413 0
M  V30 9 C 0.693374 2.157870 0.523489 0 CFG=1
M  V30 10 C 0.162846 2.647188 -0.832033 0
M  V30 11 C 0.910290 3.912778 -1.144879 0
M  V30 12 C 0.790190 4.938693 -0.041331 0
M  V30 13 N 0.855215 4.411816 1.280093 0
M  V30 14 C 0.151584 3.188500 1.512386 0
M  V30 15 C 1.472910 -1.097904 -0.228215 0
M  V30 16 C 2.294057 -0.342990 -1.044373 0
M  V30 17 C 3.200491 -0.853017 -1.945052 0
M  V30 18 N 3.314779 -2.188551 -2.057774 0
M  V30 19 C 2.567473 -3.024032 -1.313818 0
M  V30 20 C 1.675045 -2.462211 -0.426887 0
M  V30 21 C 0.895904 -3.268717 0.360210 0
M  V30 22 C -2.098754 -3.295229 2.476745 0
M  V30 23 C -2.908041 -4.092705 3.253297 0
M  V30 24 H -3.089193 -5.965920 4.274693 0
M  V30 25 H -0.828876 -6.705928 3.589717 0
M  V30 26 H 0.625138 -5.254741 2.185396 0
M  V30 27 H -0.892747 -1.145785 2.153567 0
M  V30 28 H -0.262480 0.987478 1.565189 0
M  V30 29 H 1.804508 2.411419 0.492098 0
M  V30 30 H -0.939341 2.870770 -0.712302 0
M  V30 31 H 0.343481 1.914625 -1.611037 0
M  V30 32 H 1.984951 3.630071 -1.251977 0
M  V30 33 H 0.571938 4.382543 -2.088054 0
M  V30 34 H -0.151477 5.515228 -0.201251 0
M  V30 35 H 1.634470 5.656489 -0.177864 0
M  V30 36 H 1.848256 4.278490 1.587930 0
M  V30 37 H -0.933763 3.258130 1.367359 0
M  V30 38 H 0.430766 2.821395 2.510652 0
M  V30 39 H 2.250758 0.720123 -0.988892 0
M  V30 40 H 3.819719 -0.209910 -2.561107 0
M  V30 41 H 2.654883 -4.094965 -1.399795 0
M  V30 42 H 0.999725 -4.339722 0.259166 0
M  V30 43 H -2.540340 -2.348607 2.209342 0
M  V30 44 H -3.903777 -3.810954 3.577138 0
M  V30 END ATOM
M  V30 BEGIN BOND
M  V30 1 2 1 2
M  V30 2 1 2 3
M  V30 3 2 3 4
M  V30 4 1 4 5
M  V30 5 2 5 6
M  V30 6 1 6 7
M  V30 7 1 7 8
M  V30 8 1 8 9
M  V30 9 1 9 10
M  V30 10 1 10 11
M  V30 11 1 11 12
M  V30 12 1 12 13
M  V30 13 1 13 14
M  V30 14 2 7 15
M  V30 15 1 15 16
M  V30 16 2 16 17
M  V30 17 1 17 18
M  V30 18 2 18 19
M  V30 19 1 19 20
M  V30 20 2 20 21
M  V30 21 1 4 22
M  V30 22 2 22 23
M  V30 23 1 23 1
M  V30 24 1 21 5
M  V30 25 1 14 9
M  V30 26 1 20 15
M  V30 27 1 1 24
M  V30 28 1 2 25
M  V30 29 1 3 26
M  V30 30 1 6 27
M  V30 31 1 8 28
M  V30 32 1 9 29 CFG=3
M  V30 33 1 10 30
M  V30 34 1 10 31
M  V30 35 1 11 32
M  V30 36 1 11 33
M  V30 37 1 12 34
M  V30 38 1 12 35
M  V30 39 1 13 36
M  V30 40 1 14 37
M  V30 41 1 14 38
M  V30 42 1 16 39
M  V30 43 1 17 40
M  V30 44 1 19 41
M  V30 45 1 21 42
M  V30 46 1 22 43
M  V30 47 1 23 44
M  V30 END BOND
M  V30 END CTAB
M  END
>  <Dataset>  (769) 
ChEMBL_Kinases

>  <Ligand_Instance>  (769) 
nan

>  <PDB_ID>  (769) 
nan

>  <Standardized_SMILES>  (769) 
c1ccc(-c2cc(N[C@H]3CCCNC3)c3ccncc3c2)cc1

>  <Name>  (769) 
nan

>  <Pocket>  (769) 
nan

>  <ATP_Site>  (769) 
nan

>  <Peripheral>  (769) 
nan

>  <Num_H_Atoms_ProtBoundConf>  (769) 
nan

>  <Num_Resolved_Atoms>  (769) 
nan

>  <Num_Not_Resolved_Atoms>  (769) 
nan

$$$$
CHEMBL214183
     RDKit          3D

  0  0  0  0  0  0  0  0  0  0999 V3000
M  V30 BEGIN CTAB
M  V30 COUNTS 51 53 0 0 0
M  V30 BEGIN ATOM
M  V30 1 C 1.442688 -2.871102 4.070499 0
M  V30 2 O 0.395930 -3.415418 3.291547 0
M  V30 3 C 0.429944 -4.718546 2.856404 0
M  V30 4 C 1.013442 -4.996302 1.638890 0
M  V30 5 C 1.593616 -4.030878 0.723434 0
M  V30 6 O 2.727676 -4.459820 0.374996 0
M  V30 7 C 1.136898 -2.762613 0.181326 0
M  V30 8 C -0.093529 -2.179464 0.379730 0
M  V30 9 N -0.402781 -0.991976 -0.195223 0
M  V30 10 C 0.513003 -0.361119 -0.982601 0
M  V30 11 N 0.167094 0.873760 -1.569655 0
M  V30 12 C -1.152627 1.428894 -1.314223 0
M  V30 13 C -1.360611 1.661075 0.128067 0
M  V30 14 C -2.177410 2.847851 0.513527 0
M  V30 15 N -1.917640 3.989774 -0.292513 0
M  V30 16 S -0.384159 4.697749 -0.039966 0
M  V30 17 C -0.283590 5.248913 1.650701 0
M  V30 18 O 0.765823 3.760393 -0.232686 0
M  V30 19 O -0.182956 5.897489 -0.913534 0
M  V30 20 C -2.235562 3.682491 -1.644980 0
M  V30 21 C -1.467681 2.542615 -2.232539 0
M  V30 22 N 1.718382 -0.922660 -1.183320 0
M  V30 23 C 2.044241 -2.104396 -0.618998 0
M  V30 24 N 3.375242 -2.533122 -0.955570 0
M  V30 25 C 0.982260 -6.359756 1.321016 0
M  V30 26 C 0.435046 -7.340441 2.116617 0
M  V30 27 F 0.462367 -8.632303 1.704281 0
M  V30 28 C -0.122668 -6.962404 3.310295 0
M  V30 29 F -0.662062 -7.926111 4.094674 0
M  V30 30 C -0.127132 -5.638113 3.687705 0
M  V30 31 F -0.687615 -5.302531 4.875137 0
M  V30 32 H 1.255631 -1.770085 4.208684 0
M  V30 33 H 1.419137 -3.322713 5.093602 0
M  V30 34 H 2.420655 -3.038760 3.601499 0
M  V30 35 H -0.810385 -2.694638 0.997821 0
M  V30 36 H 0.879166 1.361921 -2.180373 0
M  V30 37 H -1.843183 0.580803 -1.604380 0
M  V30 38 H -0.378400 1.756581 0.675624 0
M  V30 39 H -1.839763 0.777424 0.641641 0
M  V30 40 H -3.255004 2.582019 0.371198 0
M  V30 41 H -2.019914 3.031907 1.599315 0
M  V30 42 H 0.551480 6.002332 1.660155 0
M  V30 43 H -1.224880 5.709367 1.998195 0
M  V30 44 H 0.064746 4.413864 2.293476 0
M  V30 45 H -2.094639 4.593147 -2.277699 0
M  V30 46 H -3.327471 3.465634 -1.687758 0
M  V30 47 H -1.992151 2.236285 -3.164161 0
M  V30 48 H -0.496258 2.980714 -2.580466 0
M  V30 49 H 4.025321 -2.169818 -0.209331 0
M  V30 50 H 3.533513 -3.099091 -1.814444 0
M  V30 51 H 1.434473 -6.645527 0.359020 0
M  V30 END ATOM
M  V30 BEGIN BOND
M  V30 1 1 1 2
M  V30 2 1 2 3
M  V30 3 2 3 4
M  V30 4 1 4 5
M  V30 5 2 5 6
M  V30 6 1 5 7
M  V30 7 2 7 8
M  V30 8 1 8 9
M  V30 9 2 9 10
M  V30 10 1 10 11
M  V30 11 1 11 12
M  V30 12 1 12 13
M  V30 13 1 13 14
M  V30 14 1 14 15
M  V30 15 1 15 16
M  V30 16 1 16 17
M  V30 17 2 16 18
M  V30 18 2 16 19
M  V30 19 1 15 20
M  V30 20 1 20 21
M  V30 21 1 10 22
M  V30 22 2 22 23
M  V30 23 1 23 24
M  V30 24 1 4 25
M  V30 25 2 25 26
M  V30 26 1 26 27
M  V30 27 1 26 28
M  V30 28 1 28 29
M  V30 29 2 28 30
M  V30 30 1 30 31
M  V30 31 1 30 3
M  V30 32 1 23 7
M  V30 33 1 21 12
M  V30 34 1 1 32
M  V30 35 1 1 33
M  V30 36 1 1 34
M  V30 37 1 8 35
M  V30 38 1 11 36
M  V30 39 1 12 37
M  V30 40 1 13 38
M  V30 41 1 13 39
M  V30 42 1 14 40
M  V30 43 1 14 41
M  V30 44 1 17 42
M  V30 45 1 17 43
M  V30 46 1 17 44
M  V30 47 1 20 45
M  V30 48 1 20 46
M  V30 49 1 21 47
M  V30 50 1 21 48
M  V30 51 1 24 49
M  V30 52 1 24 50
M  V30 53 1 25 51
M  V30 END BOND
M  V30 END CTAB
M  END
>  <Dataset>  (770) 
ChEMBL_Kinases

>  <Ligand_Instance>  (770) 
nan

>  <PDB_ID>  (770) 
nan

>  <Standardized_SMILES>  (770) 
COc1c(C(=O)c2cnc(NC3CCN(S(C)(=O)=O)CC3)nc2N)cc(F)c(F)c1F

>  <Name>  (770) 
nan

>  <Pocket>  (770) 
nan

>  <ATP_Site>  (770) 
nan

>  <Peripheral>  (770) 
nan

>  <Num_H_Atoms_ProtBoundConf>  (770) 
nan

>  <Num_Resolved_Atoms>  (770) 
nan

>  <Num_Not_Resolved_Atoms>  (770) 
nan

$$$$
CHEMBL1095817
     RDKit          3D

  0  0  0  0  0  0  0  0  0  0999 V3000
M  V30 BEGIN CTAB
M  V30 COUNTS 54 58 0 0 0
M  V30 BEGIN ATOM
M  V30 1 O 3.550050 -1.100887 1.631690 0
M  V30 2 C 4.164675 -0.517583 0.678108 0
M  V30 3 N 5.556353 -0.536375 0.499161 0
M  V30 4 C 6.307008 -1.271311 1.475420 0
M  V30 5 C 6.606871 -2.629437 1.344913 0
M  V30 6 C 7.339094 -3.282578 2.327110 0
M  V30 7 C 7.768530 -2.577754 3.434565 0
M  V30 8 C 7.506077 -1.232094 3.625453 0
M  V30 9 C 6.772724 -0.619029 2.621714 0
M  V30 10 N 3.313550 0.175122 -0.219510 0
M  V30 11 C 1.896140 0.316406 -0.219818 0
M  V30 12 C 1.255228 1.347673 0.435328 0
M  V30 13 C -0.131587 1.419741 0.388470 0
M  V30 14 C -0.875904 0.468100 -0.308359 0
M  V30 15 C -2.301738 0.762883 -0.206648 0
M  V30 16 N -2.930198 1.882853 -0.621142 0
M  V30 17 N -4.232077 1.802803 -0.363698 0
M  V30 18 C -5.250733 2.800927 -0.656187 0
M  V30 19 C -5.825414 2.556246 -2.033641 0
M  V30 20 F -4.883027 2.625152 -3.022231 0
M  V30 21 F -6.837459 3.489698 -2.198649 0
M  V30 22 F -6.437294 1.317844 -2.061970 0
M  V30 23 C -4.429594 0.593951 0.231820 0
M  V30 24 C -3.235881 -0.087765 0.346811 0
M  V30 25 C -3.098969 -1.393860 0.929085 0
M  V30 26 C -2.391178 -1.797663 2.038775 0
M  V30 27 C -2.364215 -3.102030 2.467518 0
M  V30 28 N -3.060148 -4.043983 1.778066 0
M  V30 29 C -3.766576 -3.696086 0.687117 0
M  V30 30 N -4.520126 -4.489367 -0.127410 0
M  V30 31 C -5.048441 -3.708266 -1.099458 0
M  V30 32 C -4.622317 -2.415630 -0.891973 0
M  V30 33 C -3.803797 -2.390016 0.243435 0
M  V30 34 C -0.238741 -0.557054 -0.959587 0
M  V30 35 C 1.144121 -0.633892 -0.916189 0
M  V30 36 H 5.985271 -0.032909 -0.310165 0
M  V30 37 H 6.247764 -3.139950 0.457236 0
M  V30 38 H 7.567882 -4.352923 2.210801 0
M  V30 39 H 8.349508 -3.096847 4.213446 0
M  V30 40 H 7.832754 -0.662536 4.484560 0
M  V30 41 H 6.533143 0.451077 2.718409 0
M  V30 42 H 3.685713 0.701663 -1.051976 0
M  V30 43 H 1.886409 2.055403 0.958986 0
M  V30 44 H -0.521524 2.281222 0.945536 0
M  V30 45 H -4.806015 3.796444 -0.554083 0
M  V30 46 H -6.106305 2.723751 0.048074 0
M  V30 47 H -5.408633 0.257145 0.554071 0
M  V30 48 H -1.864071 -0.982891 2.530662 0
M  V30 49 H -1.774563 -3.308864 3.353272 0
M  V30 50 H -4.711334 -5.514345 -0.086982 0
M  V30 51 H -5.703863 -3.946269 -1.943330 0
M  V30 52 H -4.861269 -1.538556 -1.488437 0
M  V30 53 H -0.910822 -1.222923 -1.457576 0
M  V30 54 H 1.575909 -1.467881 -1.451893 0
M  V30 END ATOM
M  V30 BEGIN BOND
M  V30 1 2 1 2
M  V30 2 1 2 3
M  V30 3 1 3 4
M  V30 4 2 4 5
M  V30 5 1 5 6
M  V30 6 2 6 7
M  V30 7 1 7 8
M  V30 8 2 8 9
M  V30 9 1 2 10
M  V30 10 1 10 11
M  V30 11 2 11 12
M  V30 12 1 12 13
M  V30 13 2 13 14
M  V30 14 1 14 15
M  V30 15 2 15 16
M  V30 16 1 16 17
M  V30 17 1 17 18
M  V30 18 1 18 19
M  V30 19 1 19 20
M  V30 20 1 19 21
M  V30 21 1 19 22
M  V30 22 1 17 23
M  V30 23 2 23 24
M  V30 24 1 24 25
M  V30 25 2 25 26
M  V30 26 1 26 27
M  V30 27 2 27 28
M  V30 28 1 28 29
M  V30 29 1 29 30
M  V30 30 1 30 31
M  V30 31 2 31 32
M  V30 32 1 32 33
M  V30 33 1 14 34
M  V30 34 2 34 35
M  V30 35 1 9 4
M  V30 36 1 35 11
M  V30 37 1 24 15
M  V30 38 1 33 25
M  V30 39 2 33 29
M  V30 40 1 3 36
M  V30 41 1 5 37
M  V30 42 1 6 38
M  V30 43 1 7 39
M  V30 44 1 8 40
M  V30 45 1 9 41
M  V30 46 1 10 42
M  V30 47 1 12 43
M  V30 48 1 13 44
M  V30 49 1 18 45
M  V30 50 1 18 46
M  V30 51 1 23 47
M  V30 52 1 26 48
M  V30 53 1 27 49
M  V30 54 1 30 50
M  V30 55 1 31 51
M  V30 56 1 32 52
M  V30 57 1 34 53
M  V30 58 1 35 54
M  V30 END BOND
M  V30 END CTAB
M  END
>  <Dataset>  (771) 
ChEMBL_Kinases

>  <Ligand_Instance>  (771) 
nan

>  <PDB_ID>  (771) 
nan

>  <Standardized_SMILES>  (771) 
O=C(Nc1ccccc1)Nc1ccc(-c2nn(CC(F)(F)F)cc2-c2ccnc3[nH]ccc23)cc1

>  <Name>  (771) 
nan

>  <Pocket>  (771) 
nan

>  <ATP_Site>  (771) 
nan

>  <Peripheral>  (771) 
nan

>  <Num_H_Atoms_ProtBoundConf>  (771) 
nan

>  <Num_Resolved_Atoms>  (771) 
nan

>  <Num_Not_Resolved_Atoms>  (771) 
nan

$$$$
CHEMBL2088586
     RDKit          3D

  0  0  0  0  0  0  0  0  0  0999 V3000
M  V30 BEGIN CTAB
M  V30 COUNTS 38 41 0 0 0
M  V30 BEGIN ATOM
M  V30 1 O 1.036938 -4.235313 3.895593 0
M  V30 2 C 1.231906 -3.149613 3.303764 0
M  V30 3 C 2.300950 -2.358600 3.634693 0
M  V30 4 C 2.481954 -1.175799 2.964117 0
M  V30 5 N 1.670735 -0.701801 1.968816 0
M  V30 6 N 1.894318 0.448204 1.355968 0
M  V30 7 C 1.060802 0.886381 0.367154 0
M  V30 8 O 1.545648 2.076240 -0.058500 0
M  V30 9 C 1.175392 2.980401 -0.989244 0
M  V30 10 C 0.195391 3.173689 -1.928838 0
M  V30 11 C 0.083318 4.251569 -2.767657 0
M  V30 12 C 1.039994 5.232591 -2.660722 0
M  V30 13 F 0.881562 6.276123 -3.513858 0
M  V30 14 C 2.073723 5.133728 -1.742368 0
M  V30 15 C 2.134840 4.008004 -0.912297 0
M  V30 16 F 3.228968 4.143284 -0.106486 0
M  V30 17 C 0.010930 0.047917 0.084853 0
M  V30 18 C -0.229511 -1.146738 0.714773 0
M  V30 19 C 0.656998 -1.519835 1.702076 0
M  V30 20 C 0.383141 -2.722995 2.310420 0
M  V30 21 C -0.770643 -3.541296 1.928714 0
M  V30 22 C -0.823771 -4.529720 0.963233 0
M  V30 23 F 0.339332 -4.745976 0.309962 0
M  V30 24 C -2.005184 -5.195359 0.744129 0
M  V30 25 C -3.154763 -4.910593 1.460612 0
M  V30 26 C -3.105292 -3.922073 2.427563 0
M  V30 27 C -1.910787 -3.253135 2.645031 0
M  V30 28 F -1.987310 -2.307046 3.617091 0
M  V30 29 H 2.997089 -2.651209 4.409727 0
M  V30 30 H 3.349443 -0.563347 3.253038 0
M  V30 31 H -0.496522 2.358327 -1.932865 0
M  V30 32 H -0.765771 4.208550 -3.435923 0
M  V30 33 H 2.727898 5.978873 -1.790007 0
M  V30 34 H -0.613301 0.427466 -0.691286 0
M  V30 35 H -1.104254 -1.673558 0.360568 0
M  V30 36 H -1.984273 -5.960010 -0.026104 0
M  V30 37 H -4.057091 -5.472356 1.240063 0
M  V30 38 H -4.018076 -3.716110 2.976379 0
M  V30 END ATOM
M  V30 BEGIN BOND
M  V30 1 2 1 2
M  V30 2 1 2 3
M  V30 3 2 3 4
M  V30 4 1 4 5
M  V30 5 1 5 6
M  V30 6 2 6 7
M  V30 7 1 7 8
M  V30 8 1 8 9
M  V30 9 2 9 10
M  V30 10 1 10 11
M  V30 11 2 11 12
M  V30 12 1 12 13
M  V30 13 1 12 14
M  V30 14 2 14 15
M  V30 15 1 15 16
M  V30 16 1 7 17
M  V30 17 2 17 18
M  V30 18 1 18 19
M  V30 19 2 19 20
M  V30 20 1 20 21
M  V30 21 2 21 22
M  V30 22 1 22 23
M  V30 23 1 22 24
M  V30 24 2 24 25
M  V30 25 1 25 26
M  V30 26 2 26 27
M  V30 27 1 27 28
M  V30 28 1 20 2
M  V30 29 1 27 21
M  V30 30 1 19 5
M  V30 31 1 15 9
M  V30 32 1 3 29
M  V30 33 1 4 30
M  V30 34 1 10 31
M  V30 35 1 11 32
M  V30 36 1 14 33
M  V30 37 1 17 34
M  V30 38 1 18 35
M  V30 39 1 24 36
M  V30 40 1 25 37
M  V30 41 1 26 38
M  V30 END BOND
M  V30 END CTAB
M  END
>  <Dataset>  (772) 
ChEMBL_Kinases

>  <Ligand_Instance>  (772) 
nan

>  <PDB_ID>  (772) 
nan

>  <Standardized_SMILES>  (772) 
O=c1ccn2nc(Oc3ccc(F)cc3F)ccc2c1-c1c(F)cccc1F

>  <Name>  (772) 
nan

>  <Pocket>  (772) 
nan

>  <ATP_Site>  (772) 
nan

>  <Peripheral>  (772) 
nan

>  <Num_H_Atoms_ProtBoundConf>  (772) 
nan

>  <Num_Resolved_Atoms>  (772) 
nan

>  <Num_Not_Resolved_Atoms>  (772) 
nan

$$$$
CHEMBL575945
     RDKit          3D

  0  0  0  0  0  0  0  0  0  0999 V3000
M  V30 BEGIN CTAB
M  V30 COUNTS 30 33 0 0 0
M  V30 BEGIN ATOM
M  V30 1 N -2.479448 -3.954880 2.901098 0
M  V30 2 C -1.196723 -3.426532 2.517076 0
M  V30 3 N -0.043863 -3.795298 3.062160 0
M  V30 4 C 0.958595 -3.096195 2.494695 0
M  V30 5 C 2.330673 -3.099973 2.728178 0
M  V30 6 C 3.107470 -2.239176 2.000501 0
M  V30 7 N 2.549019 -1.415576 1.085719 0
M  V30 8 C 1.231283 -1.382619 0.828563 0
M  V30 9 C 0.607677 -0.478535 -0.132025 0
M  V30 10 C 0.061980 -0.933014 -1.340657 0
M  V30 11 N -0.384325 0.145886 -2.074585 0
M  V30 12 C -0.127472 1.252442 -1.334176 0
M  V30 13 C -0.392432 2.604174 -1.588005 0
M  V30 14 C -0.043494 3.572612 -0.631383 0
M  V30 15 C 0.565514 3.167605 0.560640 0
M  V30 16 C 0.824972 1.825739 0.803339 0
M  V30 17 C 0.468667 0.886664 -0.164751 0
M  V30 18 C 0.408195 -2.228624 1.534523 0
M  V30 19 N -0.908241 -2.483442 1.598977 0
M  V30 20 H -2.576880 -4.162580 3.949722 0
M  V30 21 H -3.318452 -4.158557 2.333222 0
M  V30 22 H 2.831453 -3.730957 3.446226 0
M  V30 23 H 4.170123 -2.104182 2.054582 0
M  V30 24 H -0.020580 -1.954624 -1.693776 0
M  V30 25 H -0.843866 0.083496 -3.031207 0
M  V30 26 H -0.863993 2.940086 -2.510788 0
M  V30 27 H -0.245286 4.636695 -0.831180 0
M  V30 28 H 0.820442 3.971492 1.254478 0
M  V30 29 H 1.310776 1.544880 1.746730 0
M  V30 30 H -1.598908 -2.004149 1.015006 0
M  V30 END ATOM
M  V30 BEGIN BOND
M  V30 1 1 1 2
M  V30 2 2 2 3
M  V30 3 1 3 4
M  V30 4 2 4 5
M  V30 5 1 5 6
M  V30 6 2 6 7
M  V30 7 1 7 8
M  V30 8 1 8 9
M  V30 9 2 9 10
M  V30 10 1 10 11
M  V30 11 1 11 12
M  V30 12 2 12 13
M  V30 13 1 13 14
M  V30 14 2 14 15
M  V30 15 1 15 16
M  V30 16 2 16 17
M  V30 17 2 8 18
M  V30 18 1 18 19
M  V30 19 1 19 2
M  V30 20 1 18 4
M  V30 21 1 17 9
M  V30 22 1 17 12
M  V30 23 1 1 20
M  V30 24 1 1 21
M  V30 25 1 5 22
M  V30 26 1 6 23
M  V30 27 1 10 24
M  V30 28 1 11 25
M  V30 29 1 13 26
M  V30 30 1 14 27
M  V30 31 1 15 28
M  V30 32 1 16 29
M  V30 33 1 19 30
M  V30 END BOND
M  V30 END CTAB
M  END
>  <Dataset>  (773) 
ChEMBL_Kinases

>  <Ligand_Instance>  (773) 
nan

>  <PDB_ID>  (773) 
nan

>  <Standardized_SMILES>  (773) 
Nc1nc2ccnc(-c3c[nH]c4ccccc34)c2[nH]1

>  <Name>  (773) 
nan

>  <Pocket>  (773) 
nan

>  <ATP_Site>  (773) 
nan

>  <Peripheral>  (773) 
nan

>  <Num_H_Atoms_ProtBoundConf>  (773) 
nan

>  <Num_Resolved_Atoms>  (773) 
nan

>  <Num_Not_Resolved_Atoms>  (773) 
nan

$$$$
CHEMBL591287
     RDKit          3D

  0  0  0  0  0  0  0  0  0  0999 V3000
M  V30 BEGIN CTAB
M  V30 COUNTS 45 48 0 0 0
M  V30 BEGIN ATOM
M  V30 1 C -2.565431 -3.956401 4.162312 0
M  V30 2 C -1.894492 -3.098712 3.288715 0
M  V30 3 C -2.472692 -2.697381 2.103520 0
M  V30 4 C -1.732683 -1.806142 1.233024 0
M  V30 5 C -2.215499 -1.347679 0.033833 0
M  V30 6 N -1.464027 -0.517163 -0.723476 0
M  V30 7 C -0.240318 -0.135670 -0.306839 0
M  V30 8 N 0.471397 0.740845 -1.176926 0
M  V30 9 C 1.711959 0.804565 -1.937291 0
M  V30 10 C 1.182009 1.129944 -3.339539 0
M  V30 11 C 0.046943 2.096456 -3.070531 0
M  V30 12 C -0.041722 2.068096 -1.561584 0
M  V30 13 C 0.265030 -0.585687 0.897603 0
M  V30 14 N 1.552931 -0.168501 1.309404 0
M  V30 15 C 1.994629 1.188187 1.543487 0
M  V30 16 C 2.629550 1.295897 2.927572 0
M  V30 17 N 3.442033 0.176364 3.279769 0
M  V30 18 C 3.791250 -0.681763 2.197025 0
M  V30 19 C 2.553539 -1.207842 1.525038 0
M  V30 20 N -0.510359 -1.423605 1.646678 0
M  V30 21 C -3.727842 -3.193096 1.853574 0
M  V30 22 C -4.368828 -4.038252 2.731945 0
M  V30 23 N -3.804597 -4.429971 3.888647 0
M  V30 24 H -2.149587 -4.304344 5.115472 0
M  V30 25 H -0.899336 -2.769820 3.595908 0
M  V30 26 H -3.196223 -1.647668 -0.309859 0
M  V30 27 H 2.224184 -0.170661 -2.029453 0
M  V30 28 H 2.365679 1.641455 -1.626519 0
M  V30 29 H 0.718804 0.218708 -3.787296 0
M  V30 30 H 1.913059 1.633880 -3.971732 0
M  V30 31 H -0.926217 1.745230 -3.450018 0
M  V30 32 H 0.298834 3.138724 -3.360854 0
M  V30 33 H -1.039134 2.267788 -1.172251 0
M  V30 34 H 0.665936 2.781220 -1.076494 0
M  V30 35 H 1.188822 1.938249 1.536421 0
M  V30 36 H 2.807163 1.395802 0.819324 0
M  V30 37 H 3.316959 2.185883 2.869727 0
M  V30 38 H 1.862896 1.556863 3.685854 0
M  V30 39 H 2.976165 -0.361467 4.040428 0
M  V30 40 H 4.529623 -0.264459 1.509314 0
M  V30 41 H 4.290285 -1.583803 2.650352 0
M  V30 42 H 2.090136 -1.947778 2.212022 0
M  V30 43 H 2.776608 -1.756893 0.589966 0
M  V30 44 H -4.214659 -2.901823 0.934934 0
M  V30 45 H -5.373942 -4.380578 2.438939 0
M  V30 END ATOM
M  V30 BEGIN BOND
M  V30 1 2 1 2
M  V30 2 1 2 3
M  V30 3 1 3 4
M  V30 4 2 4 5
M  V30 5 1 5 6
M  V30 6 2 6 7
M  V30 7 1 7 8
M  V30 8 1 8 9
M  V30 9 1 9 10
M  V30 10 1 10 11
M  V30 11 1 11 12
M  V30 12 1 7 13
M  V30 13 1 13 14
M  V30 14 1 14 15
M  V30 15 1 15 16
M  V30 16 1 16 17
M  V30 17 1 17 18
M  V30 18 1 18 19
M  V30 19 2 13 20
M  V30 20 2 3 21
M  V30 21 1 21 22
M  V30 22 2 22 23
M  V30 23 1 23 1
M  V30 24 1 20 4
M  V30 25 1 12 8
M  V30 26 1 19 14
M  V30 27 1 1 24
M  V30 28 1 2 25
M  V30 29 1 5 26
M  V30 30 1 9 27
M  V30 31 1 9 28
M  V30 32 1 10 29
M  V30 33 1 10 30
M  V30 34 1 11 31
M  V30 35 1 11 32
M  V30 36 1 12 33
M  V30 37 1 12 34
M  V30 38 1 15 35
M  V30 39 1 15 36
M  V30 40 1 16 37
M  V30 41 1 16 38
M  V30 42 1 17 39
M  V30 43 1 18 40
M  V30 44 1 18 41
M  V30 45 1 19 42
M  V30 46 1 19 43
M  V30 47 1 21 44
M  V30 48 1 22 45
M  V30 END BOND
M  V30 END CTAB
M  END
>  <Dataset>  (774) 
ChEMBL_Kinases

>  <Ligand_Instance>  (774) 
nan

>  <PDB_ID>  (774) 
nan

>  <Standardized_SMILES>  (774) 
c1cc(-c2cnc(N3CCCC3)c(N3CCNCC3)n2)ccn1

>  <Name>  (774) 
nan

>  <Pocket>  (774) 
nan

>  <ATP_Site>  (774) 
nan

>  <Peripheral>  (774) 
nan

>  <Num_H_Atoms_ProtBoundConf>  (774) 
nan

>  <Num_Resolved_Atoms>  (774) 
nan

>  <Num_Not_Resolved_Atoms>  (774) 
nan

$$$$
CHEMBL2089032
     RDKit          3D

  0  0  0  0  0  0  0  0  0  0999 V3000
M  V30 BEGIN CTAB
M  V30 COUNTS 59 62 0 0 0
M  V30 BEGIN ATOM
M  V30 1 C 4.564920 -1.115195 4.934614 0
M  V30 2 C 4.639445 -1.473703 3.445012 0
M  V30 3 C 3.898523 -2.780161 3.284093 0
M  V30 4 N 4.008958 -0.446301 2.644764 0
M  V30 5 C 4.107833 0.875535 2.853264 0
M  V30 6 N 3.387489 1.524248 1.911244 0
M  V30 7 C 2.825622 0.612625 1.096810 0
M  V30 8 C 2.002539 0.797208 -0.011652 0
M  V30 9 N 1.631048 2.076531 -0.449346 0
M  V30 10 C 0.799660 2.397268 -1.559955 0
M  V30 11 C -0.576611 1.876483 -1.497243 0
M  V30 12 C -1.051276 0.684096 -1.995815 0
M  V30 13 C -2.367420 0.289212 -1.874480 0
M  V30 14 C -3.279784 1.097394 -1.231863 0
M  V30 15 C -4.656105 0.633539 -1.129089 0
M  V30 16 C -5.661001 1.347105 -0.510826 0
M  V30 17 C -6.939357 0.794602 -0.477127 0
M  V30 18 C -7.260926 -0.442979 -1.034852 0
M  V30 19 C -6.196974 -1.101619 -1.639542 0
M  V30 20 N -4.978758 -0.558255 -1.663101 0
M  V30 21 C -2.855643 2.302344 -0.714561 0
M  V30 22 C -1.520829 2.678835 -0.849889 0
M  V30 23 N 1.629729 -0.353516 -0.583407 0
M  V30 24 C 1.988364 -1.580488 -0.165068 0
M  V30 25 N 1.471070 -2.657820 -0.931804 0
M  V30 26 C 0.378588 -3.542110 -1.143781 0
M  V30 27 C -0.029670 -4.396044 0.008474 0 CFG=1
M  V30 28 O 0.998981 -5.203314 0.442431 0
M  V30 29 C -0.783454 -3.689129 1.094097 0
M  V30 30 O 0.055307 -2.882138 1.817480 0
M  V30 31 N 2.797096 -1.692388 0.927815 0
M  V30 32 C 3.224325 -0.617030 1.569359 0
M  V30 33 H 5.123514 -1.844763 5.529997 0
M  V30 34 H 4.808116 -0.057584 5.111472 0
M  V30 35 H 3.478875 -1.272730 5.200683 0
M  V30 36 H 5.689750 -1.642106 3.147871 0
M  V30 37 H 4.148850 -3.282349 2.349643 0
M  V30 38 H 2.804111 -2.616094 3.387439 0
M  V30 39 H 4.226345 -3.433749 4.125181 0
M  V30 40 H 4.657432 1.385731 3.627935 0
M  V30 41 H 2.015754 2.895380 0.115112 0
M  V30 42 H 0.723972 3.480363 -1.714381 0
M  V30 43 H 1.341755 2.021921 -2.476085 0
M  V30 44 H -0.345902 0.066644 -2.492044 0
M  V30 45 H -2.615085 -0.683271 -2.315481 0
M  V30 46 H -5.450186 2.292612 -0.075506 0
M  V30 47 H -7.694108 1.391087 0.018263 0
M  V30 48 H -8.292495 -0.761042 -0.941922 0
M  V30 49 H -6.446059 -2.061367 -2.071830 0
M  V30 50 H -3.529372 2.950899 -0.212846 0
M  V30 51 H -1.234669 3.633723 -0.426920 0
M  V30 52 H 2.336553 -2.729393 -1.543521 0
M  V30 53 H -0.483178 -2.962562 -1.540387 0
M  V30 54 H 0.667017 -4.241158 -1.965426 0
M  V30 55 H -0.790588 -5.126777 -0.434623 0
M  V30 56 H 1.838729 -5.110602 -0.075193 0
M  V30 57 H -1.272706 -4.396033 1.793325 0
M  V30 58 H -1.636933 -3.121501 0.633809 0
M  V30 59 H 0.347690 -3.245047 2.688930 0
M  V30 END ATOM
M  V30 BEGIN BOND
M  V30 1 1 1 2
M  V30 2 1 2 3
M  V30 3 1 2 4
M  V30 4 1 4 5
M  V30 5 2 5 6
M  V30 6 1 6 7
M  V30 7 2 7 8
M  V30 8 1 8 9
M  V30 9 1 9 10
M  V30 10 1 10 11
M  V30 11 2 11 12
M  V30 12 1 12 13
M  V30 13 2 13 14
M  V30 14 1 14 15
M  V30 15 2 15 16
M  V30 16 1 16 17
M  V30 17 2 17 18
M  V30 18 1 18 19
M  V30 19 2 19 20
M  V30 20 1 14 21
M  V30 21 2 21 22
M  V30 22 1 8 23
M  V30 23 2 23 24
M  V30 24 1 24 25
M  V30 25 1 25 26
M  V30 26 1 26 27
M  V30 27 1 27 28
M  V30 28 1 27 29
M  V30 29 1 29 30
M  V30 30 1 24 31
M  V30 31 2 31 32
M  V30 32 1 32 4
M  V30 33 1 32 7
M  V30 34 1 22 11
M  V30 35 1 20 15
M  V30 36 1 1 33
M  V30 37 1 1 34
M  V30 38 1 1 35
M  V30 39 1 2 36
M  V30 40 1 3 37
M  V30 41 1 3 38
M  V30 42 1 3 39
M  V30 43 1 5 40
M  V30 44 1 9 41
M  V30 45 1 10 42
M  V30 46 1 10 43
M  V30 47 1 12 44
M  V30 48 1 13 45
M  V30 49 1 16 46
M  V30 50 1 17 47
M  V30 51 1 18 48
M  V30 52 1 19 49
M  V30 53 1 21 50
M  V30 54 1 22 51
M  V30 55 1 25 52
M  V30 56 1 26 53
M  V30 57 1 26 54
M  V30 58 1 27 55 CFG=3
M  V30 59 1 28 56
M  V30 60 1 29 57
M  V30 61 1 29 58
M  V30 62 1 30 59
M  V30 END BOND
M  V30 END CTAB
M  END
>  <Dataset>  (775) 
ChEMBL_Kinases

>  <Ligand_Instance>  (775) 
nan

>  <PDB_ID>  (775) 
nan

>  <Standardized_SMILES>  (775) 
CC(C)n1cnc2c(NCc3ccc(-c4ccccn4)cc3)nc(NC[C@@H](O)CO)nc21

>  <Name>  (775) 
nan

>  <Pocket>  (775) 
nan

>  <ATP_Site>  (775) 
nan

>  <Peripheral>  (775) 
nan

>  <Num_H_Atoms_ProtBoundConf>  (775) 
nan

>  <Num_Resolved_Atoms>  (775) 
nan

>  <Num_Not_Resolved_Atoms>  (775) 
nan

$$$$
CHEMBL591285
     RDKit          3D

  0  0  0  0  0  0  0  0  0  0999 V3000
M  V30 BEGIN CTAB
M  V30 COUNTS 51 54 0 0 0
M  V30 BEGIN ATOM
M  V30 1 N 0.995050 -5.890799 -0.206541 0
M  V30 2 C -0.140745 -5.074925 0.155759 0
M  V30 3 C -0.335260 -3.896772 -0.772567 0
M  V30 4 C -1.517706 -3.068750 -0.375237 0
M  V30 5 C -1.285426 -1.622760 -0.677323 0
M  V30 6 N -0.138628 -1.166826 0.040069 0
M  V30 7 C 0.086505 0.133662 0.580253 0
M  V30 8 N 1.170939 0.792043 0.109915 0
M  V30 9 C 1.530689 2.023098 0.509456 0
M  V30 10 C 2.723800 2.624338 -0.075513 0
M  V30 11 C 3.415186 1.884114 -1.011796 0
M  V30 12 C 4.538256 2.487458 -1.542029 0
M  V30 13 N 5.036054 3.713974 -1.250885 0
M  V30 14 C 4.329287 4.421246 -0.320881 0
M  V30 15 C 3.179245 3.880287 0.264270 0
M  V30 16 C 0.730390 2.627666 1.454824 0
M  V30 17 N -0.358383 2.013308 1.952695 0
M  V30 18 C -0.684491 0.778960 1.525532 0
M  V30 19 N -1.818928 0.064968 2.003535 0
M  V30 20 C -2.178014 -1.184222 2.692562 0
M  V30 21 C -2.837816 -0.570379 3.935135 0
M  V30 22 C -3.590738 0.622800 3.331570 0
M  V30 23 C -3.186103 0.591502 1.851250 0
M  V30 24 C 0.970019 -2.080206 0.286754 0
M  V30 25 C 0.940059 -3.076153 -0.853168 0
M  V30 26 H 1.754627 -5.902063 0.511109 0
M  V30 27 H 0.739658 -6.838587 -0.513263 0
M  V30 28 H -0.037784 -4.694143 1.213417 0
M  V30 29 H -1.042557 -5.716834 0.108217 0
M  V30 30 H -0.519647 -4.300630 -1.788985 0
M  V30 31 H -1.803257 -3.247024 0.687650 0
M  V30 32 H -2.435772 -3.364170 -0.962487 0
M  V30 33 H -2.169390 -0.993972 -0.576678 0
M  V30 34 H -1.010406 -1.578825 -1.771896 0
M  V30 35 H 3.129522 0.902257 -1.331302 0
M  V30 36 H 5.157234 1.976915 -2.296784 0
M  V30 37 H 4.659734 5.410422 -0.031688 0
M  V30 38 H 2.653226 4.469938 0.991318 0
M  V30 39 H 0.992225 3.615171 1.795765 0
M  V30 40 H -2.964631 -1.724490 2.133190 0
M  V30 41 H -1.316370 -1.773698 2.995868 0
M  V30 42 H -2.049595 -0.194428 4.590157 0
M  V30 43 H -3.506990 -1.269496 4.442670 0
M  V30 44 H -4.674508 0.515560 3.384162 0
M  V30 45 H -3.191952 1.575248 3.741453 0
M  V30 46 H -3.210204 1.606122 1.459884 0
M  V30 47 H -3.835024 -0.127957 1.323164 0
M  V30 48 H 0.752017 -2.612146 1.225652 0
M  V30 49 H 1.937747 -1.592901 0.401528 0
M  V30 50 H 1.785057 -3.793799 -0.818074 0
M  V30 51 H 0.881500 -2.500810 -1.797026 0
M  V30 END ATOM
M  V30 BEGIN BOND
M  V30 1 1 1 2
M  V30 2 1 2 3
M  V30 3 1 3 4
M  V30 4 1 4 5
M  V30 5 1 5 6
M  V30 6 1 6 7
M  V30 7 2 7 8
M  V30 8 1 8 9
M  V30 9 1 9 10
M  V30 10 2 10 11
M  V30 11 1 11 12
M  V30 12 2 12 13
M  V30 13 1 13 14
M  V30 14 2 14 15
M  V30 15 2 9 16
M  V30 16 1 16 17
M  V30 17 2 17 18
M  V30 18 1 18 19
M  V30 19 1 19 20
M  V30 20 1 20 21
M  V30 21 1 21 22
M  V30 22 1 22 23
M  V30 23 1 6 24
M  V30 24 1 24 25
M  V30 25 1 25 3
M  V30 26 1 18 7
M  V30 27 1 23 19
M  V30 28 1 15 10
M  V30 29 1 1 26
M  V30 30 1 1 27
M  V30 31 1 2 28
M  V30 32 1 2 29
M  V30 33 1 3 30
M  V30 34 1 4 31
M  V30 35 1 4 32
M  V30 36 1 5 33
M  V30 37 1 5 34
M  V30 38 1 11 35
M  V30 39 1 12 36
M  V30 40 1 14 37
M  V30 41 1 15 38
M  V30 42 1 16 39
M  V30 43 1 20 40
M  V30 44 1 20 41
M  V30 45 1 21 42
M  V30 46 1 21 43
M  V30 47 1 22 44
M  V30 48 1 22 45
M  V30 49 1 23 46
M  V30 50 1 23 47
M  V30 51 1 24 48
M  V30 52 1 24 49
M  V30 53 1 25 50
M  V30 54 1 25 51
M  V30 END BOND
M  V30 END CTAB
M  END
>  <Dataset>  (776) 
ChEMBL_Kinases

>  <Ligand_Instance>  (776) 
nan

>  <PDB_ID>  (776) 
nan

>  <Standardized_SMILES>  (776) 
NCC1CCN(c2nc(-c3ccncc3)cnc2N2CCCC2)CC1

>  <Name>  (776) 
nan

>  <Pocket>  (776) 
nan

>  <ATP_Site>  (776) 
nan

>  <Peripheral>  (776) 
nan

>  <Num_H_Atoms_ProtBoundConf>  (776) 
nan

>  <Num_Resolved_Atoms>  (776) 
nan

>  <Num_Not_Resolved_Atoms>  (776) 
nan

$$$$
CHEMBL2063459
     RDKit          3D

  0  0  0  0  0  0  0  0  0  0999 V3000
M  V30 BEGIN CTAB
M  V30 COUNTS 49 52 0 0 0
M  V30 BEGIN ATOM
M  V30 1 N 0.976594 -1.908914 3.135328 0
M  V30 2 C 2.284408 -2.286203 3.502980 0
M  V30 3 N 2.545660 -3.106671 4.560647 0
M  V30 4 C 3.848711 -3.426463 4.837750 0
M  V30 5 N 4.871152 -2.944204 4.084664 0
M  V30 6 N 4.707064 -2.144101 3.046202 0
M  V30 7 C 5.504105 -1.541106 2.157554 0
M  V30 8 C 4.673879 -0.828149 1.305278 0
M  V30 9 C 3.361495 -1.045415 1.743260 0
M  V30 10 C 2.404628 -0.308861 0.932487 0
M  V30 11 O 2.158842 -0.753847 -0.210649 0
M  V30 12 N 1.847731 0.865651 1.527619 0
M  V30 13 C 0.906213 1.699086 0.859280 0
M  V30 14 C 0.668957 2.899897 1.483102 0
M  V30 15 C -0.195299 3.827365 0.955680 0
M  V30 16 C -0.828787 3.522596 -0.234448 0
M  V30 17 C -0.627210 2.329382 -0.896763 0
M  V30 18 C -1.241642 1.948934 -2.156433 0
M  V30 19 N -2.583910 1.357214 -2.028548 0
M  V30 20 C -2.805633 0.031574 -1.573038 0
M  V30 21 O -1.955632 -0.788124 -1.209269 0
M  V30 22 N -4.110047 -0.570725 -1.465187 0
M  V30 23 C -3.798766 -1.902404 -0.971884 0
M  V30 24 C -3.944105 -2.061831 0.396596 0
M  V30 25 C -3.646033 -3.271162 1.029672 0
M  V30 26 C -3.212203 -4.230475 0.165111 0
M  V30 27 Cl -2.778644 -5.793980 0.852344 0
M  V30 28 C -3.051911 -4.132838 -1.193130 0
M  V30 29 C -3.349438 -2.944140 -1.789041 0
M  V30 30 C 0.259113 1.441803 -0.297683 0
M  V30 31 C 3.404058 -1.877438 2.839296 0
M  V30 32 H 0.644164 -2.093964 2.158492 0
M  V30 33 H 0.203919 -1.447791 3.656604 0
M  V30 34 H 4.175301 -4.061966 5.636261 0
M  V30 35 H 6.578952 -1.652023 2.187301 0
M  V30 36 H 5.192300 -0.266414 0.518591 0
M  V30 37 H 2.161994 1.073674 2.510030 0
M  V30 38 H 1.149805 3.177413 2.415986 0
M  V30 39 H -0.335353 4.781751 1.491960 0
M  V30 40 H -1.509987 4.253942 -0.669174 0
M  V30 41 H -0.657680 1.142530 -2.679942 0
M  V30 42 H -1.304442 2.751229 -2.913744 0
M  V30 43 H -3.455280 1.922495 -2.285730 0
M  V30 44 H -4.948732 0.029224 -1.725435 0
M  V30 45 H -4.313436 -1.227891 1.008491 0
M  V30 46 H -3.753297 -3.397201 2.077172 0
M  V30 47 H -2.699118 -4.895641 -1.871012 0
M  V30 48 H -3.255526 -2.747996 -2.861265 0
M  V30 49 H 0.425964 0.494728 -0.797759 0
M  V30 END ATOM
M  V30 BEGIN BOND
M  V30 1 1 1 2
M  V30 2 2 2 3
M  V30 3 1 3 4
M  V30 4 2 4 5
M  V30 5 1 5 6
M  V30 6 1 6 7
M  V30 7 2 7 8
M  V30 8 1 8 9
M  V30 9 1 9 10
M  V30 10 2 10 11
M  V30 11 1 10 12
M  V30 12 1 12 13
M  V30 13 2 13 14
M  V30 14 1 14 15
M  V30 15 2 15 16
M  V30 16 1 16 17
M  V30 17 1 17 18
M  V30 18 1 18 19
M  V30 19 1 19 20
M  V30 20 2 20 21
M  V30 21 1 20 22
M  V30 22 1 22 23
M  V30 23 2 23 24
M  V30 24 1 24 25
M  V30 25 2 25 26
M  V30 26 1 26 27
M  V30 27 1 26 28
M  V30 28 2 28 29
M  V30 29 2 17 30
M  V30 30 2 9 31
M  V30 31 1 31 2
M  V30 32 1 31 6
M  V30 33 1 30 13
M  V30 34 1 29 23
M  V30 35 1 1 32
M  V30 36 1 1 33
M  V30 37 1 4 34
M  V30 38 1 7 35
M  V30 39 1 8 36
M  V30 40 1 12 37
M  V30 41 1 14 38
M  V30 42 1 15 39
M  V30 43 1 16 40
M  V30 44 1 18 41
M  V30 45 1 18 42
M  V30 46 1 19 43
M  V30 47 1 22 44
M  V30 48 1 24 45
M  V30 49 1 25 46
M  V30 50 1 28 47
M  V30 51 1 29 48
M  V30 52 1 30 49
M  V30 END BOND
M  V30 END CTAB
M  END
>  <Dataset>  (777) 
ChEMBL_Kinases

>  <Ligand_Instance>  (777) 
nan

>  <PDB_ID>  (777) 
nan

>  <Standardized_SMILES>  (777) 
Nc1ncnn2ccc(C(=O)Nc3cccc(CNC(=O)Nc4ccc(Cl)cc4)c3)c12

>  <Name>  (777) 
nan

>  <Pocket>  (777) 
nan

>  <ATP_Site>  (777) 
nan

>  <Peripheral>  (777) 
nan

>  <Num_H_Atoms_ProtBoundConf>  (777) 
nan

>  <Num_Resolved_Atoms>  (777) 
nan

>  <Num_Not_Resolved_Atoms>  (777) 
nan

$$$$
CHEMBL2063460
     RDKit          3D

  0  0  0  0  0  0  0  0  0  0999 V3000
M  V30 BEGIN CTAB
M  V30 COUNTS 52 55 0 0 0
M  V30 BEGIN ATOM
M  V30 1 N 2.203865 -0.875755 -0.291929 0
M  V30 2 C 3.069160 -1.254248 0.769890 0
M  V30 3 N 3.818589 -2.388860 0.737911 0
M  V30 4 C 4.612678 -2.649941 1.812349 0
M  V30 5 N 4.713128 -1.857187 2.919436 0
M  V30 6 N 3.979924 -0.746567 2.951012 0
M  V30 7 C 3.898886 0.182467 3.906553 0
M  V30 8 C 3.004855 1.107242 3.441737 0
M  V30 9 C 2.528161 0.744021 2.185695 0
M  V30 10 C 1.575109 1.475096 1.385298 0
M  V30 11 O 0.438308 1.343375 1.968297 0
M  V30 12 N 1.605779 2.248060 0.191100 0
M  V30 13 C 0.228484 2.652176 0.029828 0
M  V30 14 C -0.118091 3.832943 0.641613 0
M  V30 15 C -1.439683 4.277920 0.547795 0
M  V30 16 C -2.278185 3.445503 -0.176340 0
M  V30 17 C -1.943721 2.236281 -0.807471 0
M  V30 18 C -3.037726 1.535160 -1.503996 0
M  V30 19 N -3.613771 0.579968 -0.543525 0
M  V30 20 C -2.990827 -0.684111 -0.288742 0
M  V30 21 O -1.946894 -1.149658 -0.820578 0
M  V30 22 N -3.467209 -1.674222 0.649633 0
M  V30 23 C -2.520640 -2.764030 0.539526 0
M  V30 24 C -2.928834 -3.692410 -0.401397 0
M  V30 25 C -2.121134 -4.790357 -0.633069 0
M  V30 26 C -0.941161 -4.943859 0.063686 0
M  V30 27 C -0.065517 -6.117648 -0.178347 0
M  V30 28 F -0.789657 -7.284482 -0.326653 0
M  V30 29 F 0.868114 -6.244514 0.831117 0
M  V30 30 F 0.667038 -5.874065 -1.341746 0
M  V30 31 C -0.529571 -4.018751 1.004743 0
M  V30 32 C -1.333427 -2.909822 1.246672 0
M  V30 33 C -0.628502 1.853866 -0.680536 0
M  V30 34 C 3.186109 -0.461259 1.906796 0
M  V30 35 H 1.190805 -1.106006 -0.213888 0
M  V30 36 H 2.543368 -0.374033 -1.148173 0
M  V30 37 H 5.241784 -3.546786 1.854895 0
M  V30 38 H 4.429037 0.192729 4.840103 0
M  V30 39 H 2.737671 1.973578 4.006487 0
M  V30 40 H 2.601206 2.259074 -0.159655 0
M  V30 41 H 0.584653 4.445088 1.199055 0
M  V30 42 H -1.811359 5.186137 0.985650 0
M  V30 43 H -3.312913 3.802930 -0.243339 0
M  V30 44 H -3.833863 2.235184 -1.756486 0
M  V30 45 H -2.610486 0.981639 -2.369704 0
M  V30 46 H -4.500041 0.779034 -0.005920 0
M  V30 47 H -4.335334 -1.433305 1.186342 0
M  V30 48 H -3.857708 -3.611035 -0.975583 0
M  V30 49 H -2.344696 -5.572465 -1.342357 0
M  V30 50 H 0.378336 -4.071642 1.584318 0
M  V30 51 H -1.114036 -2.124414 1.954531 0
M  V30 52 H -0.325718 0.955416 -1.148946 0
M  V30 END ATOM
M  V30 BEGIN BOND
M  V30 1 1 1 2
M  V30 2 2 2 3
M  V30 3 1 3 4
M  V30 4 2 4 5
M  V30 5 1 5 6
M  V30 6 1 6 7
M  V30 7 2 7 8
M  V30 8 1 8 9
M  V30 9 1 9 10
M  V30 10 2 10 11
M  V30 11 1 10 12
M  V30 12 1 12 13
M  V30 13 2 13 14
M  V30 14 1 14 15
M  V30 15 2 15 16
M  V30 16 1 16 17
M  V30 17 1 17 18
M  V30 18 1 18 19
M  V30 19 1 19 20
M  V30 20 2 20 21
M  V30 21 1 20 22
M  V30 22 1 22 23
M  V30 23 2 23 24
M  V30 24 1 24 25
M  V30 25 2 25 26
M  V30 26 1 26 27
M  V30 27 1 27 28
M  V30 28 1 27 29
M  V30 29 1 27 30
M  V30 30 1 26 31
M  V30 31 2 31 32
M  V30 32 2 17 33
M  V30 33 2 9 34
M  V30 34 1 34 2
M  V30 35 1 34 6
M  V30 36 1 33 13
M  V30 37 1 32 23
M  V30 38 1 1 35
M  V30 39 1 1 36
M  V30 40 1 4 37
M  V30 41 1 7 38
M  V30 42 1 8 39
M  V30 43 1 12 40
M  V30 44 1 14 41
M  V30 45 1 15 42
M  V30 46 1 16 43
M  V30 47 1 18 44
M  V30 48 1 18 45
M  V30 49 1 19 46
M  V30 50 1 22 47
M  V30 51 1 24 48
M  V30 52 1 25 49
M  V30 53 1 31 50
M  V30 54 1 32 51
M  V30 55 1 33 52
M  V30 END BOND
M  V30 END CTAB
M  END
>  <Dataset>  (778) 
ChEMBL_Kinases

>  <Ligand_Instance>  (778) 
nan

>  <PDB_ID>  (778) 
nan

>  <Standardized_SMILES>  (778) 
Nc1ncnn2ccc(C(=O)Nc3cccc(CNC(=O)Nc4ccc(C(F)(F)F)cc4)c3)c12

>  <Name>  (778) 
nan

>  <Pocket>  (778) 
nan

>  <ATP_Site>  (778) 
nan

>  <Peripheral>  (778) 
nan

>  <Num_H_Atoms_ProtBoundConf>  (778) 
nan

>  <Num_Resolved_Atoms>  (778) 
nan

>  <Num_Not_Resolved_Atoms>  (778) 
nan

$$$$
CHEMBL119841
     RDKit          3D

  0  0  0  0  0  0  0  0  0  0999 V3000
M  V30 BEGIN CTAB
M  V30 COUNTS 40 43 0 0 0
M  V30 BEGIN ATOM
M  V30 1 C 2.729418 -5.036852 3.822597 0
M  V30 2 C 1.707723 -4.294288 4.397798 0
M  V30 3 C 1.306628 -3.163013 3.733372 0
M  V30 4 C 1.882052 -2.754369 2.532853 0
M  V30 5 C 1.393527 -1.524672 1.880737 0
M  V30 6 N 0.300424 -1.777900 0.952291 0
M  V30 7 C -0.269159 -0.682499 0.251718 0
M  V30 8 N 0.197554 0.561832 0.447436 0
M  V30 9 C -0.286614 1.646195 -0.175141 0
M  V30 10 C 0.283560 2.963545 0.099776 0
M  V30 11 C -0.233676 4.064207 -0.555168 0
M  V30 12 C 0.286752 5.319453 -0.313589 0
M  V30 13 C 1.323382 5.379865 0.598649 0
M  V30 14 N 1.818470 4.293050 1.231428 0
M  V30 15 C 1.321147 3.053309 1.007682 0
M  V30 16 N -1.298950 1.499896 -1.050563 0
M  V30 17 C -1.845755 0.297517 -1.324996 0
M  V30 18 C -2.880097 0.142259 -2.218427 0
M  V30 19 C -3.430630 -1.093300 -2.490319 0
M  V30 20 C -2.879529 -2.164089 -1.810552 0
M  V30 21 C -1.842654 -2.012650 -0.914191 0
M  V30 22 C -1.303332 -0.776993 -0.652295 0
M  V30 23 C 2.904422 -3.509705 1.970287 0
M  V30 24 C 3.318801 -4.655077 2.631946 0
M  V30 25 H 3.067631 -5.943964 4.333249 0
M  V30 26 H 1.268998 -4.625116 5.333544 0
M  V30 27 H 0.503817 -2.547785 4.151695 0
M  V30 28 H 2.216679 -1.091096 1.251262 0
M  V30 29 H 1.127485 -0.728909 2.613146 0
M  V30 30 H 0.019159 -2.775444 0.878080 0
M  V30 31 H -1.050964 3.909262 -1.255429 0
M  V30 32 H -0.110123 6.185551 -0.819938 0
M  V30 33 H 1.719162 6.382606 0.773861 0
M  V30 34 H 1.727929 2.198023 1.520941 0
M  V30 35 H -3.209048 1.075822 -2.676184 0
M  V30 36 H -4.242349 -1.142981 -3.204205 0
M  V30 37 H -3.346828 -3.129896 -2.055995 0
M  V30 38 H -1.483202 -2.911190 -0.435474 0
M  V30 39 H 3.376360 -3.223507 1.037561 0
M  V30 40 H 4.115308 -5.255542 2.206384 0
M  V30 END ATOM
M  V30 BEGIN BOND
M  V30 1 2 1 2
M  V30 2 1 2 3
M  V30 3 2 3 4
M  V30 4 1 4 5
M  V30 5 1 5 6
M  V30 6 1 6 7
M  V30 7 2 7 8
M  V30 8 1 8 9
M  V30 9 1 9 10
M  V30 10 2 10 11
M  V30 11 1 11 12
M  V30 12 2 12 13
M  V30 13 1 13 14
M  V30 14 2 14 15
M  V30 15 2 9 16
M  V30 16 1 16 17
M  V30 17 2 17 18
M  V30 18 1 18 19
M  V30 19 2 19 20
M  V30 20 1 20 21
M  V30 21 2 21 22
M  V30 22 1 4 23
M  V30 23 2 23 24
M  V30 24 1 24 1
M  V30 25 1 22 7
M  V30 26 1 15 10
M  V30 27 1 22 17
M  V30 28 1 1 25
M  V30 29 1 2 26
M  V30 30 1 3 27
M  V30 31 1 5 28
M  V30 32 1 5 29
M  V30 33 1 6 30
M  V30 34 1 11 31
M  V30 35 1 12 32
M  V30 36 1 13 33
M  V30 37 1 15 34
M  V30 38 1 18 35
M  V30 39 1 19 36
M  V30 40 1 20 37
M  V30 41 1 21 38
M  V30 42 1 23 39
M  V30 43 1 24 40
M  V30 END BOND
M  V30 END CTAB
M  END
>  <Dataset>  (779) 
ChEMBL_Kinases

>  <Ligand_Instance>  (779) 
nan

>  <PDB_ID>  (779) 
nan

>  <Standardized_SMILES>  (779) 
c1ccc(CNc2nc(-c3cccnc3)nc3ccccc23)cc1

>  <Name>  (779) 
nan

>  <Pocket>  (779) 
nan

>  <ATP_Site>  (779) 
nan

>  <Peripheral>  (779) 
nan

>  <Num_H_Atoms_ProtBoundConf>  (779) 
nan

>  <Num_Resolved_Atoms>  (779) 
nan

>  <Num_Not_Resolved_Atoms>  (779) 
nan

$$$$
CHEMBL2064515
     RDKit          3D

  0  0  0  0  0  0  0  0  0  0999 V3000
M  V30 BEGIN CTAB
M  V30 COUNTS 45 49 0 0 0
M  V30 BEGIN ATOM
M  V30 1 N -1.596196 -6.881089 -1.285765 0
M  V30 2 C -1.030994 -5.864387 -1.251183 0
M  V30 3 C -0.348044 -4.600583 -1.219063 0
M  V30 4 C 0.928447 -4.436340 -1.720178 0
M  V30 5 C 1.603434 -3.225985 -1.698286 0
M  V30 6 C 0.993155 -2.112987 -1.154475 0
M  V30 7 C 1.593211 -0.784818 -1.070502 0
M  V30 8 C 0.749802 0.309044 -1.138084 0
M  V30 9 C 1.352724 1.548066 -1.055277 0
M  V30 10 C 2.724042 1.759291 -0.911437 0
M  V30 11 C 3.155067 3.199546 -0.842803 0
M  V30 12 S 3.110870 3.623964 0.936352 0
M  V30 13 C 1.390990 3.558590 1.459831 0
M  V30 14 N 0.314004 4.358759 1.551308 0
M  V30 15 N -0.685672 3.655084 2.042579 0
M  V30 16 C -0.240592 2.406872 2.262547 0
M  V30 17 C -1.072734 1.324445 2.811011 0
M  V30 18 C -2.388254 1.473401 3.155293 0
M  V30 19 C -3.079423 0.377554 3.666055 0
M  V30 20 C -2.482466 -0.866356 3.840314 0
M  V30 21 C -1.156607 -0.997018 3.487877 0
M  V30 22 C -0.467542 0.084999 2.981622 0
M  V30 23 O -0.724342 -2.293191 3.725195 0
M  V30 24 C -1.772113 -2.952693 4.407102 0
M  V30 25 O -2.888425 -2.106291 4.307826 0
M  V30 26 O 1.028063 2.375857 1.898705 0
M  V30 27 C 3.522925 0.645793 -0.848750 0
M  V30 28 C 2.962224 -0.592461 -0.927223 0
M  V30 29 C -0.290389 -2.286306 -0.652696 0
M  V30 30 C -0.966944 -3.492269 -0.672791 0
M  V30 31 H 1.442040 -5.304161 -2.160318 0
M  V30 32 H 2.597416 -3.088536 -2.086042 0
M  V30 33 H -0.323564 0.223824 -1.249318 0
M  V30 34 H 0.665817 2.406903 -1.110873 0
M  V30 35 H 2.462509 3.815777 -1.417443 0
M  V30 36 H 4.182681 3.251394 -1.240263 0
M  V30 37 H -2.852535 2.441140 3.019630 0
M  V30 38 H -4.112715 0.486678 3.938657 0
M  V30 39 H 0.569959 -0.032052 2.710054 0
M  V30 40 H -1.496366 -3.205337 5.447471 0
M  V30 41 H -1.937576 -3.909777 3.879428 0
M  V30 42 H 4.573816 0.852082 -0.737772 0
M  V30 43 H 3.618582 -1.470820 -0.875079 0
M  V30 44 H -0.833850 -1.463858 -0.211522 0
M  V30 45 H -1.965603 -3.584752 -0.271567 0
M  V30 END ATOM
M  V30 BEGIN BOND
M  V30 1 3 1 2
M  V30 2 1 2 3
M  V30 3 2 3 4
M  V30 4 1 4 5
M  V30 5 2 5 6
M  V30 6 1 6 7
M  V30 7 2 7 8
M  V30 8 1 8 9
M  V30 9 2 9 10
M  V30 10 1 10 11
M  V30 11 1 11 12
M  V30 12 1 12 13
M  V30 13 2 13 14
M  V30 14 1 14 15
M  V30 15 2 15 16
M  V30 16 1 16 17
M  V30 17 2 17 18
M  V30 18 1 18 19
M  V30 19 2 19 20
M  V30 20 1 20 21
M  V30 21 2 21 22
M  V30 22 1 21 23
M  V30 23 1 23 24
M  V30 24 1 24 25
M  V30 25 1 16 26
M  V30 26 1 10 27
M  V30 27 2 27 28
M  V30 28 1 6 29
M  V30 29 2 29 30
M  V30 30 1 30 3
M  V30 31 1 28 7
M  V30 32 1 26 13
M  V30 33 1 22 17
M  V30 34 1 25 20
M  V30 35 1 4 31
M  V30 36 1 5 32
M  V30 37 1 8 33
M  V30 38 1 9 34
M  V30 39 1 11 35
M  V30 40 1 11 36
M  V30 41 1 18 37
M  V30 42 1 19 38
M  V30 43 1 22 39
M  V30 44 1 24 40
M  V30 45 1 24 41
M  V30 46 1 27 42
M  V30 47 1 28 43
M  V30 48 1 29 44
M  V30 49 1 30 45
M  V30 END BOND
M  V30 END CTAB
M  END
>  <Dataset>  (780) 
ChEMBL_Kinases

>  <Ligand_Instance>  (780) 
nan

>  <PDB_ID>  (780) 
nan

>  <Standardized_SMILES>  (780) 
N#Cc1ccc(-c2ccc(CSc3nnc(-c4ccc5c(c4)OCO5)o3)cc2)cc1

>  <Name>  (780) 
nan

>  <Pocket>  (780) 
nan

>  <ATP_Site>  (780) 
nan

>  <Peripheral>  (780) 
nan

>  <Num_H_Atoms_ProtBoundConf>  (780) 
nan

>  <Num_Resolved_Atoms>  (780) 
nan

>  <Num_Not_Resolved_Atoms>  (780) 
nan

$$$$
CHEMBL2088585
     RDKit          3D

  0  0  0  0  0  0  0  0  0  0999 V3000
M  V30 BEGIN CTAB
M  V30 COUNTS 38 41 0 0 0
M  V30 BEGIN ATOM
M  V30 1 O 0.552098 -4.537162 3.570048 0
M  V30 2 C 0.980078 -3.442373 3.169461 0
M  V30 3 C 2.112407 -2.870002 3.664663 0
M  V30 4 C 2.531632 -1.650643 3.173940 0
M  V30 5 N 1.872682 -0.958482 2.199789 0
M  V30 6 N 2.330818 0.208364 1.774503 0
M  V30 7 C 1.664577 0.893420 0.799508 0
M  V30 8 O 2.313122 2.083064 0.506123 0
M  V30 9 C 1.814971 2.959598 -0.444298 0
M  V30 10 C 2.432908 3.371226 -1.607029 0
M  V30 11 C 1.820839 4.254925 -2.471154 0
M  V30 12 C 0.547204 4.758837 -2.185526 0
M  V30 13 F 0.006836 5.626925 -3.085870 0
M  V30 14 C -0.050001 4.332810 -1.017530 0
M  V30 15 C 0.541933 3.461469 -0.155539 0
M  V30 16 F -0.243517 3.201940 0.923495 0
M  V30 17 C 0.516904 0.324356 0.289832 0
M  V30 18 C 0.075625 -0.882753 0.755298 0
M  V30 19 C 0.767958 -1.554192 1.741607 0
M  V30 20 C 0.290585 -2.768712 2.183998 0
M  V30 21 C -0.949722 -3.289788 1.570739 0
M  V30 22 C -0.928107 -4.097344 0.445742 0
M  V30 23 C -2.105346 -4.572010 -0.108690 0
M  V30 24 C -3.325191 -4.233977 0.470919 0
M  V30 25 C -3.291923 -3.424109 1.594205 0
M  V30 26 C -2.141885 -2.936165 2.169540 0
M  V30 27 F -2.243504 -2.151664 3.269619 0
M  V30 28 H 2.702805 -3.356843 4.448265 0
M  V30 29 H 3.441646 -1.208858 3.584091 0
M  V30 30 H 3.420891 2.950640 -1.782290 0
M  V30 31 H 2.343267 4.549125 -3.370160 0
M  V30 32 H -1.041342 4.792377 -0.900320 0
M  V30 33 H 0.069012 0.941992 -0.476330 0
M  V30 34 H -0.837468 -1.262947 0.301478 0
M  V30 35 H 0.039423 -4.361690 -0.008718 0
M  V30 36 H -2.060883 -5.206072 -0.994448 0
M  V30 37 H -4.254578 -4.598912 0.046839 0
M  V30 38 H -4.242036 -3.167505 2.036379 0
M  V30 END ATOM
M  V30 BEGIN BOND
M  V30 1 2 1 2
M  V30 2 1 2 3
M  V30 3 2 3 4
M  V30 4 1 4 5
M  V30 5 1 5 6
M  V30 6 2 6 7
M  V30 7 1 7 8
M  V30 8 1 8 9
M  V30 9 2 9 10
M  V30 10 1 10 11
M  V30 11 2 11 12
M  V30 12 1 12 13
M  V30 13 1 12 14
M  V30 14 2 14 15
M  V30 15 1 15 16
M  V30 16 1 7 17
M  V30 17 2 17 18
M  V30 18 1 18 19
M  V30 19 2 19 20
M  V30 20 1 20 21
M  V30 21 2 21 22
M  V30 22 1 22 23
M  V30 23 2 23 24
M  V30 24 1 24 25
M  V30 25 2 25 26
M  V30 26 1 26 27
M  V30 27 1 20 2
M  V30 28 1 26 21
M  V30 29 1 19 5
M  V30 30 1 15 9
M  V30 31 1 3 28
M  V30 32 1 4 29
M  V30 33 1 10 30
M  V30 34 1 11 31
M  V30 35 1 14 32
M  V30 36 1 17 33
M  V30 37 1 18 34
M  V30 38 1 22 35
M  V30 39 1 23 36
M  V30 40 1 24 37
M  V30 41 1 25 38
M  V30 END BOND
M  V30 END CTAB
M  END
>  <Dataset>  (781) 
ChEMBL_Kinases

>  <Ligand_Instance>  (781) 
nan

>  <PDB_ID>  (781) 
nan

>  <Standardized_SMILES>  (781) 
O=c1ccn2nc(Oc3ccc(F)cc3F)ccc2c1-c1ccccc1F

>  <Name>  (781) 
nan

>  <Pocket>  (781) 
nan

>  <ATP_Site>  (781) 
nan

>  <Peripheral>  (781) 
nan

>  <Num_H_Atoms_ProtBoundConf>  (781) 
nan

>  <Num_Resolved_Atoms>  (781) 
nan

>  <Num_Not_Resolved_Atoms>  (781) 
nan

$$$$
CHEMBL1096192
     RDKit          3D

  0  0  0  0  0  0  0  0  0  0999 V3000
M  V30 BEGIN CTAB
M  V30 COUNTS 46 50 0 0 0
M  V30 BEGIN ATOM
M  V30 1 C 6.776847 -0.605004 1.598643 0
M  V30 2 C 6.159082 0.382909 0.658548 0
M  V30 3 N 6.650854 1.231043 -0.248392 0
M  V30 4 N 5.624879 1.884457 -0.809860 0
M  V30 5 C 4.494866 1.427087 -0.236292 0
M  V30 6 C 3.127766 1.849045 -0.530025 0
M  V30 7 C 2.837745 2.813588 -1.478573 0
M  V30 8 C 1.526284 3.184786 -1.726329 0
M  V30 9 C 0.465495 2.599769 -1.030123 0
M  V30 10 F -0.836481 2.903651 -1.210628 0
M  V30 11 C 0.760161 1.641217 -0.088093 0
M  V30 12 C -0.236896 0.921656 0.738147 0
M  V30 13 C -0.632953 1.421933 1.968207 0
M  V30 14 O -0.153647 2.501126 2.412289 0
M  V30 15 C -1.563822 0.732379 2.719202 0
M  V30 16 C -2.051622 -0.445225 2.176288 0
M  V30 17 N -1.652893 -0.914549 0.977313 0
M  V30 18 C -2.181651 -2.084126 0.511481 0
M  V30 19 C -3.161287 -2.765121 1.353110 0
M  V30 20 C -2.536949 -3.662795 2.220523 0
M  V30 21 C -3.260595 -4.427847 3.118423 0
M  V30 22 C -4.642725 -4.276775 3.133772 0
M  V30 23 F -5.426536 -4.992184 3.986921 0
M  V30 24 C -5.262597 -3.390152 2.277446 0
M  V30 25 C -4.535041 -2.630074 1.384296 0
M  V30 26 F -5.003856 -1.729610 0.494284 0
M  V30 27 C -1.770197 -2.569582 -0.727054 0
M  V30 28 C -0.843390 -1.914952 -1.511383 0
M  V30 29 C -0.334919 -0.739718 -1.005458 0
M  V30 30 C -0.743004 -0.257926 0.223290 0
M  V30 31 C 2.086267 1.268296 0.159979 0
M  V30 32 O 4.872189 0.521807 0.643607 0
M  V30 33 H 6.498405 -1.662387 1.334904 0
M  V30 34 H 6.350684 -0.434137 2.621065 0
M  V30 35 H 7.859066 -0.477454 1.674583 0
M  V30 36 H 3.642649 3.278462 -2.028088 0
M  V30 37 H 1.262083 3.941039 -2.466446 0
M  V30 38 H -1.885506 1.105704 3.680435 0
M  V30 39 H -2.793724 -0.995587 2.774254 0
M  V30 40 H -1.463221 -3.855131 2.287634 0
M  V30 41 H -2.811331 -5.134822 3.806932 0
M  V30 42 H -6.323312 -3.239887 2.253052 0
M  V30 43 H -2.200543 -3.497787 -1.078984 0
M  V30 44 H -0.531817 -2.295546 -2.464129 0
M  V30 45 H 0.399440 -0.167356 -1.565358 0
M  V30 46 H 2.334051 0.509311 0.904486 0
M  V30 END ATOM
M  V30 BEGIN BOND
M  V30 1 1 1 2
M  V30 2 2 2 3
M  V30 3 1 3 4
M  V30 4 2 4 5
M  V30 5 1 5 6
M  V30 6 2 6 7
M  V30 7 1 7 8
M  V30 8 2 8 9
M  V30 9 1 9 10
M  V30 10 1 9 11
M  V30 11 1 11 12
M  V30 12 1 12 13
M  V30 13 2 13 14
M  V30 14 1 13 15
M  V30 15 2 15 16
M  V30 16 1 16 17
M  V30 17 1 17 18
M  V30 18 1 18 19
M  V30 19 2 19 20
M  V30 20 1 20 21
M  V30 21 2 21 22
M  V30 22 1 22 23
M  V30 23 1 22 24
M  V30 24 2 24 25
M  V30 25 1 25 26
M  V30 26 2 18 27
M  V30 27 1 27 28
M  V30 28 2 28 29
M  V30 29 1 29 30
M  V30 30 2 11 31
M  V30 31 1 5 32
M  V30 32 1 32 2
M  V30 33 1 31 6
M  V30 34 2 30 12
M  V30 35 1 30 17
M  V30 36 1 25 19
M  V30 37 1 1 33
M  V30 38 1 1 34
M  V30 39 1 1 35
M  V30 40 1 7 36
M  V30 41 1 8 37
M  V30 42 1 15 38
M  V30 43 1 16 39
M  V30 44 1 20 40
M  V30 45 1 21 41
M  V30 46 1 24 42
M  V30 47 1 27 43
M  V30 48 1 28 44
M  V30 49 1 29 45
M  V30 50 1 31 46
M  V30 END BOND
M  V30 END CTAB
M  END
>  <Dataset>  (782) 
ChEMBL_Kinases

>  <Ligand_Instance>  (782) 
nan

>  <PDB_ID>  (782) 
nan

>  <Standardized_SMILES>  (782) 
Cc1nnc(-c2ccc(F)c(-c3c(=O)ccn4c(-c5ccc(F)cc5F)cccc34)c2)o1

>  <Name>  (782) 
nan

>  <Pocket>  (782) 
nan

>  <ATP_Site>  (782) 
nan

>  <Peripheral>  (782) 
nan

>  <Num_H_Atoms_ProtBoundConf>  (782) 
nan

>  <Num_Resolved_Atoms>  (782) 
nan

>  <Num_Not_Resolved_Atoms>  (782) 
nan

$$$$
CHEMBL575675
     RDKit          3D

  0  0  0  0  0  0  0  0  0  0999 V3000
M  V30 BEGIN CTAB
M  V30 COUNTS 41 44 0 0 0
M  V30 BEGIN ATOM
M  V30 1 C 0.846374 -5.386954 2.653773 0
M  V30 2 N -0.313000 -4.720478 2.155672 0
M  V30 3 C -0.830891 -3.681990 2.991799 0
M  V30 4 C -0.328086 -4.452908 0.753631 0
M  V30 5 C 0.819553 -3.581426 0.307969 0
M  V30 6 N 0.635523 -2.275310 0.312926 0
M  V30 7 C 1.570789 -1.383459 -0.059310 0
M  V30 8 C 2.717502 -2.011958 -0.436266 0
M  V30 9 S 3.815920 -0.662735 -0.887837 0
M  V30 10 C 2.643801 0.643399 -0.533343 0
M  V30 11 C 2.792684 2.009904 -0.649603 0
M  V30 12 C 1.742768 2.823950 -0.315703 0
M  V30 13 C 0.612230 2.169359 0.115033 0
M  V30 14 C -0.537851 3.037036 0.481865 0
M  V30 15 C -1.425626 2.647290 1.468103 0
M  V30 16 C -2.480309 3.509078 1.760570 0
M  V30 17 C -2.677512 4.720084 1.118529 0
M  V30 18 Cl -4.026644 5.727050 1.556281 0
M  V30 19 C -1.769602 5.072745 0.140424 0
M  V30 20 F -1.935838 6.254286 -0.507616 0
M  V30 21 C -0.704432 4.250858 -0.187101 0
M  V30 22 C 0.448766 0.811718 0.236063 0
M  V30 23 C 1.497679 -0.018899 -0.096724 0
M  V30 24 C 2.947685 -3.384973 -0.454390 0
M  V30 25 O 4.085705 -3.756481 -0.840106 0
M  V30 26 N 1.951760 -4.195983 -0.064472 0
M  V30 27 H 1.157283 -6.142357 1.924383 0
M  V30 28 H 0.594751 -5.864324 3.636584 0
M  V30 29 H 1.670026 -4.660122 2.917638 0
M  V30 30 H -0.047929 -2.960632 3.315691 0
M  V30 31 H -1.639185 -3.166145 2.435869 0
M  V30 32 H -1.308023 -4.156328 3.894080 0
M  V30 33 H -0.311536 -5.401331 0.189578 0
M  V30 34 H -1.283342 -3.927911 0.529816 0
M  V30 35 H 3.730756 2.382493 -0.998945 0
M  V30 36 H 1.822498 3.893703 -0.393702 0
M  V30 37 H -1.317121 1.724280 1.991714 0
M  V30 38 H -3.188656 3.208471 2.540620 0
M  V30 39 H -0.029821 4.591969 -0.966515 0
M  V30 40 H -0.519582 0.439968 0.596171 0
M  V30 41 H 2.123768 -5.220984 -0.078065 0
M  V30 END ATOM
M  V30 BEGIN BOND
M  V30 1 1 1 2
M  V30 2 1 2 3
M  V30 3 1 2 4
M  V30 4 1 4 5
M  V30 5 2 5 6
M  V30 6 1 6 7
M  V30 7 2 7 8
M  V30 8 1 8 9
M  V30 9 1 9 10
M  V30 10 2 10 11
M  V30 11 1 11 12
M  V30 12 2 12 13
M  V30 13 1 13 14
M  V30 14 2 14 15
M  V30 15 1 15 16
M  V30 16 2 16 17
M  V30 17 1 17 18
M  V30 18 1 17 19
M  V30 19 1 19 20
M  V30 20 2 19 21
M  V30 21 1 13 22
M  V30 22 2 22 23
M  V30 23 1 8 24
M  V30 24 2 24 25
M  V30 25 1 24 26
M  V30 26 1 26 5
M  V30 27 1 23 7
M  V30 28 1 23 10
M  V30 29 1 21 14
M  V30 30 1 1 27
M  V30 31 1 1 28
M  V30 32 1 1 29
M  V30 33 1 3 30
M  V30 34 1 3 31
M  V30 35 1 3 32
M  V30 36 1 4 33
M  V30 37 1 4 34
M  V30 38 1 11 35
M  V30 39 1 12 36
M  V30 40 1 15 37
M  V30 41 1 16 38
M  V30 42 1 21 39
M  V30 43 1 22 40
M  V30 44 1 26 41
M  V30 END BOND
M  V30 END CTAB
M  END
>  <Dataset>  (783) 
ChEMBL_Kinases

>  <Ligand_Instance>  (783) 
nan

>  <PDB_ID>  (783) 
nan

>  <Standardized_SMILES>  (783) 
CN(C)Cc1nc2c(sc3ccc(-c4ccc(Cl)c(F)c4)cc32)c(=O)[nH]1

>  <Name>  (783) 
nan

>  <Pocket>  (783) 
nan

>  <ATP_Site>  (783) 
nan

>  <Peripheral>  (783) 
nan

>  <Num_H_Atoms_ProtBoundConf>  (783) 
nan

>  <Num_Resolved_Atoms>  (783) 
nan

>  <Num_Not_Resolved_Atoms>  (783) 
nan

$$$$
CHEMBL4632881
     RDKit          3D

  0  0  0  0  0  0  0  0  0  0999 V3000
M  V30 BEGIN CTAB
M  V30 COUNTS 51 55 0 0 0
M  V30 BEGIN ATOM
M  V30 1 C -2.352941 -5.733007 -3.090341 0
M  V30 2 C -1.106474 -6.047422 -2.575814 0
M  V30 3 C -0.367500 -5.179430 -1.800697 0
M  V30 4 C -0.928044 -3.942040 -1.543435 0
M  V30 5 C -0.313691 -2.864773 -0.740180 0
M  V30 6 N 0.860230 -2.342361 -1.141820 0
M  V30 7 N 1.436461 -1.360751 -0.424872 0
M  V30 8 C 0.855275 -0.889440 0.694134 0
M  V30 9 N 1.564589 0.148642 1.360873 0
M  V30 10 C 2.814985 0.607540 0.842432 0
M  V30 11 C 3.122902 2.045754 1.042195 0
M  V30 12 N 2.101378 2.804561 1.734843 0
M  V30 13 C 2.429810 4.148728 2.083599 0
M  V30 14 N 3.645594 4.619621 1.755265 0
M  V30 15 C 4.035231 5.890248 2.051895 0
M  V30 16 C 3.109269 6.670259 2.710613 0
M  V30 17 C 1.835085 6.212737 3.067631 0
M  V30 18 N 1.543756 4.928448 2.725868 0
M  V30 19 C 0.803049 2.241358 2.064707 0
M  V30 20 C 1.134882 0.827211 2.570235 0
M  V30 21 C -0.347817 -1.407058 1.128193 0
M  V30 22 C -0.965783 -2.414912 0.415769 0
M  V30 23 C -2.235115 -3.001582 0.823111 0
M  V30 24 C -3.476808 -2.380059 0.974113 0
M  V30 25 C -4.549134 -3.148293 1.373989 0
M  V30 26 N -4.465483 -4.458898 1.625670 0
M  V30 27 C -3.261273 -5.086561 1.484300 0
M  V30 28 C -2.158238 -4.355395 1.085264 0
M  V30 29 C -2.175229 -3.584739 -2.039211 0
M  V30 30 C -2.883793 -4.479878 -2.810470 0
M  V30 31 H -2.849331 -6.499039 -3.692607 0
M  V30 32 H -0.676567 -7.022441 -2.784800 0
M  V30 33 H 0.589101 -5.357296 -1.377527 0
M  V30 34 H 2.808227 0.403952 -0.269763 0
M  V30 35 H 3.624487 -0.009153 1.312386 0
M  V30 36 H 4.075664 2.158172 1.624355 0
M  V30 37 H 3.368257 2.555217 0.062734 0
M  V30 38 H 5.009873 6.257237 1.785134 0
M  V30 39 H 3.450992 7.685231 2.935146 0
M  V30 40 H 1.152540 6.878097 3.585429 0
M  V30 41 H 0.256034 2.141219 1.083746 0
M  V30 42 H 0.263254 2.827547 2.806316 0
M  V30 43 H 2.011746 0.958234 3.268587 0
M  V30 44 H 0.273167 0.370583 3.065628 0
M  V30 45 H -0.795643 -1.015809 2.026176 0
M  V30 46 H -3.449890 -1.326619 0.750756 0
M  V30 47 H -5.497001 -2.607163 1.475507 0
M  V30 48 H -3.279495 -6.146536 1.707040 0
M  V30 49 H -1.256502 -4.969070 1.009029 0
M  V30 50 H -2.666931 -2.635558 -1.874296 0
M  V30 51 H -3.869454 -4.242020 -3.222171 0
M  V30 END ATOM
M  V30 BEGIN BOND
M  V30 1 2 1 2
M  V30 2 1 2 3
M  V30 3 2 3 4
M  V30 4 1 4 5
M  V30 5 2 5 6
M  V30 6 1 6 7
M  V30 7 2 7 8
M  V30 8 1 8 9
M  V30 9 1 9 10
M  V30 10 1 10 11
M  V30 11 1 11 12
M  V30 12 1 12 13
M  V30 13 2 13 14
M  V30 14 1 14 15
M  V30 15 2 15 16
M  V30 16 1 16 17
M  V30 17 2 17 18
M  V30 18 1 12 19
M  V30 19 1 19 20
M  V30 20 1 8 21
M  V30 21 2 21 22
M  V30 22 1 22 23
M  V30 23 2 23 24
M  V30 24 1 24 25
M  V30 25 2 25 26
M  V30 26 1 26 27
M  V30 27 2 27 28
M  V30 28 1 4 29
M  V30 29 2 29 30
M  V30 30 1 30 1
M  V30 31 1 22 5
M  V30 32 1 28 23
M  V30 33 1 20 9
M  V30 34 1 18 13
M  V30 35 1 1 31
M  V30 36 1 2 32
M  V30 37 1 3 33
M  V30 38 1 10 34
M  V30 39 1 10 35
M  V30 40 1 11 36
M  V30 41 1 11 37
M  V30 42 1 15 38
M  V30 43 1 16 39
M  V30 44 1 17 40
M  V30 45 1 19 41
M  V30 46 1 19 42
M  V30 47 1 20 43
M  V30 48 1 20 44
M  V30 49 1 21 45
M  V30 50 1 24 46
M  V30 51 1 25 47
M  V30 52 1 27 48
M  V30 53 1 28 49
M  V30 54 1 29 50
M  V30 55 1 30 51
M  V30 END BOND
M  V30 END CTAB
M  END
>  <Dataset>  (784) 
ChEMBL_Kinases

>  <Ligand_Instance>  (784) 
nan

>  <PDB_ID>  (784) 
nan

>  <Standardized_SMILES>  (784) 
c1ccc(-c2nnc(N3CCN(c4ncccn4)CC3)cc2-c2ccncc2)cc1

>  <Name>  (784) 
nan

>  <Pocket>  (784) 
nan

>  <ATP_Site>  (784) 
nan

>  <Peripheral>  (784) 
nan

>  <Num_H_Atoms_ProtBoundConf>  (784) 
nan

>  <Num_Resolved_Atoms>  (784) 
nan

>  <Num_Not_Resolved_Atoms>  (784) 
nan

$$$$
CHEMBL1095988
     RDKit          3D

  0  0  0  0  0  0  0  0  0  0999 V3000
M  V30 BEGIN CTAB
M  V30 COUNTS 78 83 0 0 0
M  V30 BEGIN ATOM
M  V30 1 C 3.948585 -6.492550 2.458532 0
M  V30 2 C 3.643514 -7.142609 1.124031 0
M  V30 3 N 2.916617 -6.191626 0.314908 0
M  V30 4 C 3.325423 -5.242806 -0.563852 0
M  V30 5 C 2.250591 -4.580347 -1.091906 0
M  V30 6 C 2.329176 -3.511797 -2.063183 0
M  V30 7 C 2.846009 -3.959983 -3.284655 0
M  V30 8 C 2.983796 -3.051418 -4.326244 0
M  V30 9 N 2.624795 -1.765834 -4.158319 0
M  V30 10 C 2.125047 -1.308081 -2.996103 0
M  V30 11 N 1.679177 -0.117085 -2.498930 0
M  V30 12 C 1.286498 -0.271130 -1.219977 0
M  V30 13 C 0.753710 0.876704 -0.448135 0
M  V30 14 N 1.786826 1.622385 0.251314 0
M  V30 15 C 1.073344 2.726727 0.906309 0
M  V30 16 C 2.040525 3.575651 1.675556 0
M  V30 17 N 1.420398 4.684474 2.344195 0
M  V30 18 C 0.547555 4.348075 3.421691 0
M  V30 19 C 0.030854 5.685694 3.978395 0
M  V30 20 O 1.119795 6.191404 4.694457 0
M  V30 21 C 2.066338 6.595019 3.785158 0
M  V30 22 C 2.430295 5.616648 2.730450 0
M  V30 23 C 1.455883 -1.586883 -0.807554 0
M  V30 24 C 1.974429 -2.185722 -1.937127 0
M  V30 25 C 1.155080 -5.168054 -0.494570 0
M  V30 26 C -0.225505 -4.746188 -0.777578 0
M  V30 27 C -0.897501 -4.444476 0.401009 0
M  V30 28 C -2.228610 -4.014844 0.311028 0
M  V30 29 C -2.821730 -3.907431 -0.937698 0
M  V30 30 N -4.200020 -3.466288 -0.955350 0
M  V30 31 C -4.506540 -2.064208 -0.964429 0
M  V30 32 O -3.573432 -1.200614 -0.951439 0
M  V30 33 N -5.837607 -1.566107 -0.984124 0
M  V30 34 C -5.794031 -0.120057 -0.965558 0
M  V30 35 C -5.761471 0.829052 -1.961764 0
M  V30 36 C -5.716310 2.160445 -1.570687 0
M  V30 37 C -5.703957 2.543489 -0.250066 0
M  V30 38 C -5.736928 1.564664 0.739409 0
M  V30 39 C -5.782300 0.212018 0.380396 0
M  V30 40 C -2.133215 -4.212986 -2.093363 0
M  V30 41 C -0.821715 -4.636950 -2.015686 0
M  V30 42 N 1.583436 -6.128900 0.342355 0
M  V30 43 H 4.579783 -5.598854 2.239257 0
M  V30 44 H 4.520729 -7.158629 3.121486 0
M  V30 45 H 3.026605 -6.080315 2.947420 0
M  V30 46 H 3.143687 -8.115082 1.202813 0
M  V30 47 H 4.645320 -7.246753 0.612600 0
M  V30 48 H 4.389316 -5.112848 -0.744806 0
M  V30 49 H 3.164093 -4.983805 -3.517346 0
M  V30 50 H 3.385562 -3.355576 -5.301762 0
M  V30 51 H 1.677440 0.737551 -3.095330 0
M  V30 52 H 0.039773 0.550310 0.341966 0
M  V30 53 H 0.160578 1.544532 -1.104043 0
M  V30 54 H 2.428706 2.017179 -0.476022 0
M  V30 55 H 0.635867 3.326092 0.086477 0
M  V30 56 H 0.260789 2.281147 1.492613 0
M  V30 57 H 2.733426 4.018133 0.920667 0
M  V30 58 H 2.687277 2.988167 2.350845 0
M  V30 59 H -0.356499 3.814190 3.084893 0
M  V30 60 H 1.085958 3.866050 4.250941 0
M  V30 61 H -0.772182 5.483425 4.698946 0
M  V30 62 H -0.257333 6.365247 3.155647 0
M  V30 63 H 1.800094 7.596060 3.382161 0
M  V30 64 H 3.008483 6.785604 4.378669 0
M  V30 65 H 3.360554 5.042288 2.962019 0
M  V30 66 H 2.688469 6.200502 1.795642 0
M  V30 67 H 1.237700 -2.015424 0.139606 0
M  V30 68 H -0.500378 -4.504536 1.403946 0
M  V30 69 H -2.779386 -3.772797 1.209257 0
M  V30 70 H -5.004669 -4.124137 -0.964499 0
M  V30 71 H -6.642476 -2.232969 -1.010332 0
M  V30 72 H -5.776585 0.351794 -2.922345 0
M  V30 73 H -5.693275 2.828329 -2.436241 0
M  V30 74 H -5.663380 3.619235 -0.059099 0
M  V30 75 H -5.722416 1.983415 1.757223 0
M  V30 76 H -5.801762 -0.372065 1.285404 0
M  V30 77 H -2.606537 -4.125377 -3.056547 0
M  V30 78 H -0.205301 -4.898021 -2.851108 0
M  V30 END ATOM
M  V30 BEGIN BOND
M  V30 1 1 1 2
M  V30 2 1 2 3
M  V30 3 1 3 4
M  V30 4 2 4 5
M  V30 5 1 5 6
M  V30 6 2 6 7
M  V30 7 1 7 8
M  V30 8 2 8 9
M  V30 9 1 9 10
M  V30 10 1 10 11
M  V30 11 1 11 12
M  V30 12 1 12 13
M  V30 13 1 13 14
M  V30 14 1 14 15
M  V30 15 1 15 16
M  V30 16 1 16 17
M  V30 17 1 17 18
M  V30 18 1 18 19
M  V30 19 1 19 20
M  V30 20 1 20 21
M  V30 21 1 21 22
M  V30 22 2 12 23
M  V30 23 1 23 24
M  V30 24 1 5 25
M  V30 25 1 25 26
M  V30 26 2 26 27
M  V30 27 1 27 28
M  V30 28 2 28 29
M  V30 29 1 29 30
M  V30 30 1 30 31
M  V30 31 2 31 32
M  V30 32 1 31 33
M  V30 33 1 33 34
M  V30 34 2 34 35
M  V30 35 1 35 36
M  V30 36 2 36 37
M  V30 37 1 37 38
M  V30 38 2 38 39
M  V30 39 1 29 40
M  V30 40 2 40 41
M  V30 41 2 25 42
M  V30 42 1 42 3
M  V30 43 1 24 6
M  V30 44 1 41 26
M  V30 45 2 24 10
M  V30 46 1 39 34
M  V30 47 1 22 17
M  V30 48 1 1 43
M  V30 49 1 1 44
M  V30 50 1 1 45
M  V30 51 1 2 46
M  V30 52 1 2 47
M  V30 53 1 4 48
M  V30 54 1 7 49
M  V30 55 1 8 50
M  V30 56 1 11 51
M  V30 57 1 13 52
M  V30 58 1 13 53
M  V30 59 1 14 54
M  V30 60 1 15 55
M  V30 61 1 15 56
M  V30 62 1 16 57
M  V30 63 1 16 58
M  V30 64 1 18 59
M  V30 65 1 18 60
M  V30 66 1 19 61
M  V30 67 1 19 62
M  V30 68 1 21 63
M  V30 69 1 21 64
M  V30 70 1 22 65
M  V30 71 1 22 66
M  V30 72 1 23 67
M  V30 73 1 27 68
M  V30 74 1 28 69
M  V30 75 1 30 70
M  V30 76 1 33 71
M  V30 77 1 35 72
M  V30 78 1 36 73
M  V30 79 1 37 74
M  V30 80 1 38 75
M  V30 81 1 39 76
M  V30 82 1 40 77
M  V30 83 1 41 78
M  V30 END BOND
M  V30 END CTAB
M  END
>  <Dataset>  (785) 
ChEMBL_Kinases

>  <Ligand_Instance>  (785) 
nan

>  <PDB_ID>  (785) 
nan

>  <Standardized_SMILES>  (785) 
CCn1cc(-c2ccnc3[nH]c(CNCCN4CCOCC4)cc23)c(-c2ccc(NC(=O)Nc3ccccc3)cc2)n1

>  <Name>  (785) 
nan

>  <Pocket>  (785) 
nan

>  <ATP_Site>  (785) 
nan

>  <Peripheral>  (785) 
nan

>  <Num_H_Atoms_ProtBoundConf>  (785) 
nan

>  <Num_Resolved_Atoms>  (785) 
nan

>  <Num_Not_Resolved_Atoms>  (785) 
nan

$$$$
CHEMBL183993
     RDKit          3D

  0  0  0  0  0  0  0  0  0  0999 V3000
M  V30 BEGIN CTAB
M  V30 COUNTS 44 47 0 0 0
M  V30 BEGIN ATOM
M  V30 1 C 0.222394 -7.732391 1.587886 0
M  V30 2 C 1.228010 -7.180470 2.548058 0
M  V30 3 O 1.890672 -6.034338 1.993670 0
M  V30 4 C 1.027002 -4.932764 1.644112 0
M  V30 5 C 2.263428 -4.278173 1.221472 0
M  V30 6 C 2.467279 -2.975810 0.658463 0
M  V30 7 C 1.318004 -2.223636 0.490208 0
M  V30 8 C 0.886162 -0.980708 0.071642 0
M  V30 9 C 1.741137 0.098154 -0.374948 0
M  V30 10 C 2.966962 0.115421 -0.991451 0
M  V30 11 C 3.588635 1.285828 -1.352882 0
M  V30 12 N 3.008066 2.466294 -1.109806 0
M  V30 13 C 1.792359 2.489742 -0.499693 0
M  V30 14 N 1.216301 3.770739 -0.218938 0
M  V30 15 C -0.047462 4.099200 0.335763 0
M  V30 16 C -0.289504 5.375294 0.820046 0
M  V30 17 C -1.513908 5.746090 1.365317 0
M  V30 18 C -2.501825 4.789410 1.412030 0
M  V30 19 C -2.354420 3.497995 0.957624 0
M  V30 20 C -3.477465 2.539065 1.041546 0
M  V30 21 F -4.129789 2.477599 -0.193928 0
M  V30 22 F -4.418092 3.000399 1.953246 0
M  V30 23 F -3.080492 1.272573 1.347981 0
M  V30 24 C -1.110934 3.230986 0.437714 0
M  V30 25 N 1.239737 1.324366 -0.175252 0
M  V30 26 C -0.479609 -0.902801 0.229872 0
M  V30 27 N -0.866546 -2.100722 0.742772 0
M  V30 28 N 0.193495 -2.837119 0.881141 0
M  V30 29 N 0.299830 -3.997626 1.346587 0
M  V30 30 H -0.770326 -7.310443 1.824825 0
M  V30 31 H 0.478774 -7.348972 0.574492 0
M  V30 32 H 0.141728 -8.838463 1.598394 0
M  V30 33 H 0.684085 -6.791229 3.440074 0
M  V30 34 H 1.960489 -7.942547 2.814078 0
M  V30 35 H 3.371347 -4.534572 1.185543 0
M  V30 36 H 3.345743 -2.418542 0.329670 0
M  V30 37 H 3.418265 -0.827556 -1.209063 0
M  V30 38 H 4.556212 1.214950 -1.831747 0
M  V30 39 H 1.814707 4.621310 -0.454051 0
M  V30 40 H 0.503352 6.134613 0.783319 0
M  V30 41 H -1.610274 6.762598 1.720659 0
M  V30 42 H -3.465783 5.099372 1.842842 0
M  V30 43 H -0.929137 2.235673 0.058879 0
M  V30 44 H -1.180727 -0.129605 0.029422 0
M  V30 END ATOM
M  V30 BEGIN BOND
M  V30 1 1 1 2
M  V30 2 1 2 3
M  V30 3 1 3 4
M  V30 4 1 4 5
M  V30 5 2 5 6
M  V30 6 1 6 7
M  V30 7 2 7 8
M  V30 8 1 8 9
M  V30 9 2 9 10
M  V30 10 1 10 11
M  V30 11 2 11 12
M  V30 12 1 12 13
M  V30 13 1 13 14
M  V30 14 1 14 15
M  V30 15 2 15 16
M  V30 16 1 16 17
M  V30 17 2 17 18
M  V30 18 1 18 19
M  V30 19 1 19 20
M  V30 20 1 20 21
M  V30 21 1 20 22
M  V30 22 1 20 23
M  V30 23 2 19 24
M  V30 24 2 13 25
M  V30 25 1 8 26
M  V30 26 2 26 27
M  V30 27 1 27 28
M  V30 28 1 28 29
M  V30 29 2 29 4
M  V30 30 1 28 7
M  V30 31 1 25 9
M  V30 32 1 24 15
M  V30 33 1 1 30
M  V30 34 1 1 31
M  V30 35 1 1 32
M  V30 36 1 2 33
M  V30 37 1 2 34
M  V30 38 1 5 35
M  V30 39 1 6 36
M  V30 40 1 10 37
M  V30 41 1 11 38
M  V30 42 1 14 39
M  V30 43 1 16 40
M  V30 44 1 17 41
M  V30 45 1 18 42
M  V30 46 1 24 43
M  V30 47 1 26 44
M  V30 END BOND
M  V30 END CTAB
M  END
>  <Dataset>  (786) 
ChEMBL_Kinases

>  <Ligand_Instance>  (786) 
nan

>  <PDB_ID>  (786) 
nan

>  <Standardized_SMILES>  (786) 
CCOc1ccc2c(-c3ccnc(Nc4cccc(C(F)(F)F)c4)n3)cnn2n1

>  <Name>  (786) 
GW811761X

>  <Pocket>  (786) 
nan

>  <ATP_Site>  (786) 
nan

>  <Peripheral>  (786) 
nan

>  <Num_H_Atoms_ProtBoundConf>  (786) 
nan

>  <Num_Resolved_Atoms>  (786) 
nan

>  <Num_Not_Resolved_Atoms>  (786) 
nan

$$$$
CHEMBL211009
     RDKit          3D

  0  0  0  0  0  0  0  0  0  0999 V3000
M  V30 BEGIN CTAB
M  V30 COUNTS 50 51 0 0 0
M  V30 BEGIN ATOM
M  V30 1 C -0.222239 -1.962401 3.408729 0
M  V30 2 O -1.025451 -3.012781 3.029707 0
M  V30 3 C -0.715139 -3.466994 1.783266 0
M  V30 4 C 0.677318 -3.967109 1.658062 0
M  V30 5 O 0.976172 -4.451111 0.347203 0
M  V30 6 C 0.905972 -3.658526 -0.775729 0
M  V30 7 N 0.565324 -2.369595 -0.806881 0
M  V30 8 C 0.503811 -1.628357 -1.921044 0
M  V30 9 N 0.130547 -0.285835 -1.584580 0
M  V30 10 C -0.957894 0.554513 -1.252692 0
M  V30 11 O -2.135677 0.102868 -1.169953 0
M  V30 12 C -0.598299 1.978849 -1.008353 0
M  V30 13 C -0.487178 2.171381 0.477101 0
M  V30 14 C 0.860160 2.166774 0.889580 0
M  V30 15 C 1.206820 2.298651 2.241485 0
M  V30 16 O 2.551687 2.281734 2.526280 0
M  V30 17 C 3.034983 2.391013 3.820813 0
M  V30 18 C 0.132040 2.426619 3.088186 0
M  V30 19 C -1.163877 2.429564 2.691819 0
M  V30 20 C -1.526895 2.300628 1.351258 0
M  V30 21 O -2.808815 2.292802 0.847677 0
M  V30 22 C -3.979001 2.420366 1.607716 0
M  V30 23 C 0.799994 -2.178737 -3.137111 0
M  V30 24 C 1.155755 -3.507673 -3.130210 0
M  V30 25 N 1.469564 -4.053154 -4.409095 0
M  V30 26 C 1.214380 -4.251940 -1.986155 0
M  V30 27 C 1.600377 -5.619866 -2.108516 0
M  V30 28 N 1.922359 -6.731968 -2.192902 0
M  V30 29 H -0.515529 -1.588422 4.429718 0
M  V30 30 H 0.831544 -2.332470 3.547945 0
M  V30 31 H -0.234722 -1.136315 2.671616 0
M  V30 32 H -0.870888 -2.684767 0.997551 0
M  V30 33 H -1.436040 -4.285823 1.525111 0
M  V30 34 H 1.422016 -3.202850 1.901778 0
M  V30 35 H 0.829211 -4.800318 2.377417 0
M  V30 36 H 1.120438 0.112483 -1.640049 0
M  V30 37 H 0.316207 2.242953 -1.503700 0
M  V30 38 H -1.436546 2.596185 -1.408942 0
M  V30 39 H 1.681075 2.060786 0.187895 0
M  V30 40 H 3.985692 2.983013 3.836470 0
M  V30 41 H 2.322530 2.814951 4.545065 0
M  V30 42 H 3.346173 1.368052 4.181095 0
M  V30 43 H 0.380975 2.528450 4.130471 0
M  V30 44 H -1.927532 2.535256 3.419422 0
M  V30 45 H -3.765922 2.768004 2.632786 0
M  V30 46 H -4.631557 3.207114 1.149724 0
M  V30 47 H -4.541635 1.452962 1.661024 0
M  V30 48 H 0.713626 -1.481357 -3.964146 0
M  V30 49 H 2.189436 -3.539626 -4.965626 0
M  V30 50 H 1.036172 -4.929410 -4.829020 0
M  V30 END ATOM
M  V30 BEGIN BOND
M  V30 1 1 1 2
M  V30 2 1 2 3
M  V30 3 1 3 4
M  V30 4 1 4 5
M  V30 5 1 5 6
M  V30 6 2 6 7
M  V30 7 1 7 8
M  V30 8 1 8 9
M  V30 9 1 9 10
M  V30 10 2 10 11
M  V30 11 1 10 12
M  V30 12 1 12 13
M  V30 13 2 13 14
M  V30 14 1 14 15
M  V30 15 1 15 16
M  V30 16 1 16 17
M  V30 17 2 15 18
M  V30 18 1 18 19
M  V30 19 2 19 20
M  V30 20 1 20 21
M  V30 21 1 21 22
M  V30 22 2 8 23
M  V30 23 1 23 24
M  V30 24 1 24 25
M  V30 25 2 24 26
M  V30 26 1 26 27
M  V30 27 3 27 28
M  V30 28 1 26 6
M  V30 29 1 20 13
M  V30 30 1 1 29
M  V30 31 1 1 30
M  V30 32 1 1 31
M  V30 33 1 3 32
M  V30 34 1 3 33
M  V30 35 1 4 34
M  V30 36 1 4 35
M  V30 37 1 9 36
M  V30 38 1 12 37
M  V30 39 1 12 38
M  V30 40 1 14 39
M  V30 41 1 17 40
M  V30 42 1 17 41
M  V30 43 1 17 42
M  V30 44 1 18 43
M  V30 45 1 19 44
M  V30 46 1 22 45
M  V30 47 1 22 46
M  V30 48 1 22 47
M  V30 49 1 23 48
M  V30 50 1 25 49
M  V30 51 1 25 50
M  V30 END BOND
M  V30 END CTAB
M  END
>  <Dataset>  (787) 
ChEMBL_Kinases

>  <Ligand_Instance>  (787) 
nan

>  <PDB_ID>  (787) 
nan

>  <Standardized_SMILES>  (787) 
COCCOc1nc(NC(=O)Cc2cc(OC)ccc2OC)cc(N)c1C#N

>  <Name>  (787) 
nan

>  <Pocket>  (787) 
nan

>  <ATP_Site>  (787) 
nan

>  <Peripheral>  (787) 
nan

>  <Num_H_Atoms_ProtBoundConf>  (787) 
nan

>  <Num_Resolved_Atoms>  (787) 
nan

>  <Num_Not_Resolved_Atoms>  (787) 
nan

$$$$
CHEMBL1096491
     RDKit          3D

  0  0  0  0  0  0  0  0  0  0999 V3000
M  V30 BEGIN CTAB
M  V30 COUNTS 73 77 0 0 0
M  V30 BEGIN ATOM
M  V30 1 C 0.260525 -1.361093 7.619573 0
M  V30 2 C -0.848785 -1.288713 6.565485 0
M  V30 3 N -0.240494 -0.953995 5.270269 0
M  V30 4 C -0.036132 0.281198 4.766793 0
M  V30 5 C 0.567137 0.168440 3.508881 0
M  V30 6 C 0.893067 1.374297 2.755147 0
M  V30 7 C 1.803266 2.235557 3.380091 0
M  V30 8 C 2.104163 3.387348 2.643243 0
M  V30 9 N 1.603135 3.711539 1.430192 0
M  V30 10 C 0.733188 2.855490 0.868412 0
M  V30 11 N 0.052297 2.846343 -0.291322 0
M  V30 12 C -0.726866 1.738161 -0.423076 0
M  V30 13 C -1.579253 1.468073 -1.605740 0
M  V30 14 N -2.884497 2.019432 -1.504000 0
M  V30 15 C -3.700216 1.572080 -0.427906 0
M  V30 16 C -4.138846 0.149196 -0.510069 0
M  V30 17 N -4.968562 -0.152724 0.637957 0
M  V30 18 C -5.370357 -1.558873 0.497733 0
M  V30 19 C -4.290067 0.042901 1.884563 0
M  V30 20 C -0.514167 1.013429 0.731483 0
M  V30 21 C 0.381078 1.703853 1.517601 0
M  V30 22 C 0.700150 -1.190307 3.312189 0
M  V30 23 C 1.302226 -1.680020 2.075568 0
M  V30 24 C 0.407214 -2.490441 1.370145 0
M  V30 25 C 0.760696 -3.066266 0.167010 0
M  V30 26 C 2.010507 -2.835311 -0.337806 0
M  V30 27 N 2.398726 -3.417746 -1.575441 0
M  V30 28 C 2.196162 -2.779504 -2.805300 0
M  V30 29 O 1.657245 -1.666477 -2.796678 0
M  V30 30 N 2.656357 -3.533311 -3.917460 0
M  V30 31 C 2.615812 -3.202930 -5.301022 0
M  V30 32 C 1.457398 -3.634456 -5.912461 0
M  V30 33 C 1.267543 -3.386904 -7.270573 0
M  V30 34 C 2.194616 -2.721302 -8.046951 0
M  V30 35 C 3.341831 -2.306695 -7.390735 0
M  V30 36 C 3.580008 -2.525204 -6.050639 0
M  V30 37 C 2.903276 -2.034625 0.352992 0
M  V30 38 C 2.561397 -1.453147 1.557251 0
M  V30 39 N 0.209319 -1.847889 4.381314 0
M  V30 40 H 0.698503 -0.352231 7.679872 0
M  V30 41 H -0.241055 -1.579085 8.579492 0
M  V30 42 H 1.043825 -2.086214 7.354099 0
M  V30 43 H -1.289674 -2.303608 6.516599 0
M  V30 44 H -1.554380 -0.520138 6.895492 0
M  V30 45 H -0.321117 1.172419 5.309959 0
M  V30 46 H 2.281173 2.118321 4.328725 0
M  V30 47 H 2.811134 4.106308 3.074694 0
M  V30 48 H 0.134594 3.621071 -0.993091 0
M  V30 49 H -1.103821 1.972490 -2.499796 0
M  V30 50 H -1.564257 0.392058 -1.887208 0
M  V30 51 H -3.428277 1.962958 -2.391673 0
M  V30 52 H -4.627494 2.186894 -0.332971 0
M  V30 53 H -3.075045 1.676421 0.504908 0
M  V30 54 H -4.748723 -0.079026 -1.400219 0
M  V30 55 H -3.260438 -0.555872 -0.426120 0
M  V30 56 H -5.921472 -1.905958 1.396729 0
M  V30 57 H -6.078314 -1.646148 -0.351885 0
M  V30 58 H -4.448906 -2.176525 0.310894 0
M  V30 59 H -4.608610 -0.797540 2.556200 0
M  V30 60 H -4.691348 0.957131 2.387927 0
M  V30 61 H -3.207275 0.100467 1.781964 0
M  V30 62 H -0.972608 0.084567 0.950897 0
M  V30 63 H -0.611989 -2.741618 1.678060 0
M  V30 64 H 0.076585 -3.706787 -0.407274 0
M  V30 65 H 2.841606 -4.359904 -1.434116 0
M  V30 66 H 3.100272 -4.461066 -3.863075 0
M  V30 67 H 0.639427 -4.173946 -5.416151 0
M  V30 68 H 0.349167 -3.727951 -7.759444 0
M  V30 69 H 2.058906 -2.524241 -9.097404 0
M  V30 70 H 4.145263 -1.769866 -7.904935 0
M  V30 71 H 4.435270 -2.233706 -5.493125 0
M  V30 72 H 3.903632 -1.818329 0.000237 0
M  V30 73 H 3.156081 -0.816375 2.188155 0
M  V30 END ATOM
M  V30 BEGIN BOND
M  V30 1 1 1 2
M  V30 2 1 2 3
M  V30 3 1 3 4
M  V30 4 2 4 5
M  V30 5 1 5 6
M  V30 6 2 6 7
M  V30 7 1 7 8
M  V30 8 2 8 9
M  V30 9 1 9 10
M  V30 10 1 10 11
M  V30 11 1 11 12
M  V30 12 1 12 13
M  V30 13 1 13 14
M  V30 14 1 14 15
M  V30 15 1 15 16
M  V30 16 1 16 17
M  V30 17 1 17 18
M  V30 18 1 17 19
M  V30 19 2 12 20
M  V30 20 1 20 21
M  V30 21 1 5 22
M  V30 22 1 22 23
M  V30 23 2 23 24
M  V30 24 1 24 25
M  V30 25 2 25 26
M  V30 26 1 26 27
M  V30 27 1 27 28
M  V30 28 2 28 29
M  V30 29 1 28 30
M  V30 30 1 30 31
M  V30 31 2 31 32
M  V30 32 1 32 33
M  V30 33 2 33 34
M  V30 34 1 34 35
M  V30 35 2 35 36
M  V30 36 1 26 37
M  V30 37 2 37 38
M  V30 38 2 22 39
M  V30 39 1 39 3
M  V30 40 1 21 6
M  V30 41 1 38 23
M  V30 42 2 21 10
M  V30 43 1 36 31
M  V30 44 1 1 40
M  V30 45 1 1 41
M  V30 46 1 1 42
M  V30 47 1 2 43
M  V30 48 1 2 44
M  V30 49 1 4 45
M  V30 50 1 7 46
M  V30 51 1 8 47
M  V30 52 1 11 48
M  V30 53 1 13 49
M  V30 54 1 13 50
M  V30 55 1 14 51
M  V30 56 1 15 52
M  V30 57 1 15 53
M  V30 58 1 16 54
M  V30 59 1 16 55
M  V30 60 1 18 56
M  V30 61 1 18 57
M  V30 62 1 18 58
M  V30 63 1 19 59
M  V30 64 1 19 60
M  V30 65 1 19 61
M  V30 66 1 20 62
M  V30 67 1 24 63
M  V30 68 1 25 64
M  V30 69 1 27 65
M  V30 70 1 30 66
M  V30 71 1 32 67
M  V30 72 1 33 68
M  V30 73 1 34 69
M  V30 74 1 35 70
M  V30 75 1 36 71
M  V30 76 1 37 72
M  V30 77 1 38 73
M  V30 END BOND
M  V30 END CTAB
M  END
>  <Dataset>  (788) 
ChEMBL_Kinases

>  <Ligand_Instance>  (788) 
nan

>  <PDB_ID>  (788) 
nan

>  <Standardized_SMILES>  (788) 
CCn1cc(-c2ccnc3[nH]c(CNCCN(C)C)cc23)c(-c2ccc(NC(=O)Nc3ccccc3)cc2)n1

>  <Name>  (788) 
nan

>  <Pocket>  (788) 
nan

>  <ATP_Site>  (788) 
nan

>  <Peripheral>  (788) 
nan

>  <Num_H_Atoms_ProtBoundConf>  (788) 
nan

>  <Num_Resolved_Atoms>  (788) 
nan

>  <Num_Not_Resolved_Atoms>  (788) 
nan

$$$$
CHEMBL1258117
     RDKit          3D

  0  0  0  0  0  0  0  0  0  0999 V3000
M  V30 BEGIN CTAB
M  V30 COUNTS 72 75 0 0 0
M  V30 BEGIN ATOM
M  V30 1 C 2.911789 -1.668447 2.258357 0
M  V30 2 C 2.380189 -0.257694 2.494657 0
M  V30 3 C 1.893181 -0.300903 3.953992 0
M  V30 4 C 3.529872 0.664009 2.468337 0
M  V30 5 C 3.315713 1.931552 1.688326 0
M  V30 6 C 2.535848 1.458578 0.454712 0 CFG=2
M  V30 7 C 2.708599 2.447171 -0.641026 0
M  V30 8 C 1.783983 2.193210 -1.744800 0
M  V30 9 O 0.707408 2.833305 -1.652060 0
M  V30 10 O 2.177068 1.293628 -2.752371 0
M  V30 11 C 1.279961 1.012376 -3.837353 0 CFG=1
M  V30 12 C 1.916456 1.413336 -5.154675 0
M  V30 13 O 2.177244 2.762012 -5.088179 0
M  V30 14 C 1.021005 -0.471064 -3.925600 0
M  V30 15 C 0.482897 -0.975813 -2.639810 0
M  V30 16 O 0.168085 -2.173429 -2.625864 0
M  V30 17 O 0.319318 -0.218647 -1.498548 0
M  V30 18 C -0.202194 -0.749591 -0.268081 0 CFG=2
M  V30 19 C -1.119100 0.270698 0.296656 0
M  V30 20 C -1.012577 0.569865 1.740033 0 CFG=1
M  V30 21 C -2.257872 0.395225 2.538446 0
M  V30 22 C -2.891653 -0.913119 2.676707 0
M  V30 23 C -3.358017 -1.677944 1.499291 0
M  V30 24 C -4.028661 -2.952831 2.074459 0
M  V30 25 C -4.537686 -3.797378 0.992600 0
M  V30 26 C -3.691961 -4.764741 0.451360 0
M  V30 27 C -4.044513 -5.624189 -0.569696 0
M  V30 28 C -5.324232 -5.522926 -1.096085 0
M  V30 29 C -6.159146 -4.565030 -0.558995 0
M  V30 30 C -5.810400 -3.703190 0.462663 0
M  V30 31 O 0.058520 -0.072693 2.365113 0
M  V30 32 C 1.209631 0.043382 1.604377 0 CFG=2
M  V30 33 C 1.020647 -1.066850 0.557033 0
M  V30 34 O 1.267777 1.223963 0.909298 0
M  V30 35 H 3.788698 -1.768749 2.964527 0
M  V30 36 H 3.331360 -1.825924 1.266372 0
M  V30 37 H 2.197631 -2.442142 2.610515 0
M  V30 38 H 1.552282 0.707656 4.272172 0
M  V30 39 H 1.119974 -1.077959 4.107306 0
M  V30 40 H 2.757447 -0.583456 4.593063 0
M  V30 41 H 3.892700 0.969405 3.484663 0
M  V30 42 H 4.446131 0.198248 1.995666 0
M  V30 43 H 2.714536 2.675287 2.273755 0
M  V30 44 H 4.268707 2.385088 1.416720 0
M  V30 45 H 3.060256 0.522747 0.123675 0
M  V30 46 H 3.754231 2.320164 -1.033595 0
M  V30 47 H 2.673687 3.503465 -0.305836 0
M  V30 48 H 0.361445 1.588816 -3.645938 0
M  V30 49 H 2.848441 0.820012 -5.255769 0
M  V30 50 H 1.203737 1.139085 -5.953491 0
M  V30 51 H 2.561997 3.091835 -5.956564 0
M  V30 52 H 1.900216 -1.022410 -4.281555 0
M  V30 53 H 0.180257 -0.617989 -4.664918 0
M  V30 54 H -0.686778 -1.702245 -0.587420 0
M  V30 55 H -1.010383 1.255861 -0.301847 0
M  V30 56 H -2.162778 0.009726 0.028001 0
M  V30 57 H -0.743992 1.668264 1.858032 0
M  V30 58 H -2.983599 1.173290 2.110803 0
M  V30 59 H -2.117964 0.813896 3.594672 0
M  V30 60 H -2.253249 -1.543157 3.362317 0
M  V30 61 H -3.825612 -0.758615 3.322420 0
M  V30 62 H -2.544352 -2.040229 0.817698 0
M  V30 63 H -4.118634 -1.205592 0.865931 0
M  V30 64 H -3.278200 -3.503631 2.657597 0
M  V30 65 H -4.837778 -2.635295 2.749734 0
M  V30 66 H -2.682281 -4.865528 0.845856 0
M  V30 67 H -3.368589 -6.358858 -0.964589 0
M  V30 68 H -5.676600 -6.162999 -1.900387 0
M  V30 69 H -7.157067 -4.508116 -0.991548 0
M  V30 70 H -6.471825 -2.969407 0.863417 0
M  V30 71 H 1.910513 -1.216552 -0.054704 0
M  V30 72 H 0.850529 -1.987956 1.150608 0
M  V30 END ATOM
M  V30 BEGIN BOND
M  V30 1 1 1 2
M  V30 2 1 2 3
M  V30 3 1 2 4
M  V30 4 1 4 5
M  V30 5 1 5 6
M  V30 6 1 6 7
M  V30 7 1 7 8
M  V30 8 2 8 9
M  V30 9 1 8 10
M  V30 10 1 10 11
M  V30 11 1 11 12
M  V30 12 1 12 13
M  V30 13 1 11 14
M  V30 14 1 14 15
M  V30 15 2 15 16
M  V30 16 1 15 17
M  V30 17 1 17 18
M  V30 18 1 18 19
M  V30 19 1 19 20
M  V30 20 1 20 21
M  V30 21 1 21 22
M  V30 22 1 22 23
M  V30 23 1 23 24
M  V30 24 1 24 25
M  V30 25 2 25 26
M  V30 26 1 26 27
M  V30 27 2 27 28
M  V30 28 1 28 29
M  V30 29 2 29 30
M  V30 30 1 20 31
M  V30 31 1 32 31 CFG=1
M  V30 32 1 32 33
M  V30 33 1 32 34
M  V30 34 1 32 2
M  V30 35 1 34 6
M  V30 36 1 33 18
M  V30 37 1 30 25
M  V30 38 1 1 35
M  V30 39 1 1 36
M  V30 40 1 1 37
M  V30 41 1 3 38
M  V30 42 1 3 39
M  V30 43 1 3 40
M  V30 44 1 4 41
M  V30 45 1 4 42
M  V30 46 1 5 43
M  V30 47 1 5 44
M  V30 48 1 6 45 CFG=3
M  V30 49 1 7 46
M  V30 50 1 7 47
M  V30 51 1 11 48 CFG=1
M  V30 52 1 12 49
M  V30 53 1 12 50
M  V30 54 1 13 51
M  V30 55 1 14 52
M  V30 56 1 14 53
M  V30 57 1 18 54 CFG=3
M  V30 58 1 19 55
M  V30 59 1 19 56
M  V30 60 1 20 57 CFG=3
M  V30 61 1 21 58
M  V30 62 1 21 59
M  V30 63 1 22 60
M  V30 64 1 22 61
M  V30 65 1 23 62
M  V30 66 1 23 63
M  V30 67 1 24 64
M  V30 68 1 24 65
M  V30 69 1 26 66
M  V30 70 1 27 67
M  V30 71 1 28 68
M  V30 72 1 29 69
M  V30 73 1 30 70
M  V30 74 1 33 71
M  V30 75 1 33 72
M  V30 END BOND
M  V30 END CTAB
M  END
>  <Dataset>  (789) 
ChEMBL_Kinases

>  <Ligand_Instance>  (789) 
nan

>  <PDB_ID>  (789) 
nan

>  <Standardized_SMILES>  (789) 
CC1(C)CC[C@@H]2CC(=O)O[C@@H](CO)CC(=O)O[C@@H]3C[C@@H](CCCCc4ccccc4)O[C@@]1(C3)O2

>  <Name>  (789) 
nan

>  <Pocket>  (789) 
nan

>  <ATP_Site>  (789) 
nan

>  <Peripheral>  (789) 
nan

>  <Num_H_Atoms_ProtBoundConf>  (789) 
nan

>  <Num_Resolved_Atoms>  (789) 
nan

>  <Num_Not_Resolved_Atoms>  (789) 
nan

$$$$
CHEMBL209397
     RDKit          3D

  0  0  0  0  0  0  0  0  0  0999 V3000
M  V30 BEGIN CTAB
M  V30 COUNTS 37 38 0 0 0
M  V30 BEGIN ATOM
M  V30 1 C 0.937102 -5.768003 2.407769 0
M  V30 2 S 2.142286 -5.723194 1.101294 0
M  V30 3 O 3.530025 -5.912685 1.660516 0
M  V30 4 O 1.798501 -6.784678 0.094985 0
M  V30 5 C 1.985170 -4.167228 0.318544 0
M  V30 6 C 2.707456 -3.052376 0.688753 0
M  V30 7 C 2.544905 -1.848874 0.036740 0
M  V30 8 C 1.662952 -1.685345 -1.011214 0
M  V30 9 C 1.414671 -0.440161 -1.779489 0
M  V30 10 N 0.385025 0.391854 -1.248624 0
M  V30 11 C 0.465754 1.251284 -0.121506 0
M  V30 12 O 1.581188 1.284581 0.484048 0
M  V30 13 C -0.656228 2.068490 0.343973 0
M  V30 14 C -0.462559 2.875518 1.449842 0
M  V30 15 C -1.473446 3.690079 1.963653 0
M  V30 16 N -1.187927 4.488916 3.105033 0
M  V30 17 C -2.701415 3.680939 1.339534 0
M  V30 18 C -3.748083 4.513214 1.858615 0
M  V30 19 N -4.606533 5.206707 2.270731 0
M  V30 20 C -2.876235 2.865701 0.232959 0
M  V30 21 Cl -4.430569 2.838823 -0.574590 0
M  V30 22 N -1.884496 2.090431 -0.241669 0
M  V30 23 C 0.932499 -2.819944 -1.382861 0
M  V30 24 C 1.096246 -4.035683 -0.725034 0
M  V30 25 H 1.324349 -5.243209 3.294776 0
M  V30 26 H -0.009586 -5.260227 2.099735 0
M  V30 27 H 0.647713 -6.821643 2.592881 0
M  V30 28 H 3.411255 -3.131074 1.505127 0
M  V30 29 H 3.104618 -0.987310 0.322559 0
M  V30 30 H 2.393588 0.075697 -1.889694 0
M  V30 31 H 1.124726 -0.727763 -2.818681 0
M  V30 32 H -0.577814 0.419448 -1.700976 0
M  V30 33 H 0.502006 2.897493 1.959003 0
M  V30 34 H -1.750611 5.340510 3.231081 0
M  V30 35 H -0.445211 4.237509 3.791798 0
M  V30 36 H 0.198850 -2.845158 -2.191106 0
M  V30 37 H 0.517478 -4.919065 -1.025532 0
M  V30 END ATOM
M  V30 BEGIN BOND
M  V30 1 1 1 2
M  V30 2 2 2 3
M  V30 3 2 2 4
M  V30 4 1 2 5
M  V30 5 2 5 6
M  V30 6 1 6 7
M  V30 7 2 7 8
M  V30 8 1 8 9
M  V30 9 1 9 10
M  V30 10 1 10 11
M  V30 11 2 11 12
M  V30 12 1 11 13
M  V30 13 2 13 14
M  V30 14 1 14 15
M  V30 15 1 15 16
M  V30 16 2 15 17
M  V30 17 1 17 18
M  V30 18 3 18 19
M  V30 19 1 17 20
M  V30 20 1 20 21
M  V30 21 2 20 22
M  V30 22 1 8 23
M  V30 23 2 23 24
M  V30 24 1 24 5
M  V30 25 1 22 13
M  V30 26 1 1 25
M  V30 27 1 1 26
M  V30 28 1 1 27
M  V30 29 1 6 28
M  V30 30 1 7 29
M  V30 31 1 9 30
M  V30 32 1 9 31
M  V30 33 1 10 32
M  V30 34 1 14 33
M  V30 35 1 16 34
M  V30 36 1 16 35
M  V30 37 1 23 36
M  V30 38 1 24 37
M  V30 END BOND
M  V30 END CTAB
M  END
>  <Dataset>  (790) 
ChEMBL_Kinases

>  <Ligand_Instance>  (790) 
nan

>  <PDB_ID>  (790) 
nan

>  <Standardized_SMILES>  (790) 
CS(=O)(=O)c1ccc(CNC(=O)c2cc(N)c(C#N)c(Cl)n2)cc1

>  <Name>  (790) 
nan

>  <Pocket>  (790) 
nan

>  <ATP_Site>  (790) 
nan

>  <Peripheral>  (790) 
nan

>  <Num_H_Atoms_ProtBoundConf>  (790) 
nan

>  <Num_Resolved_Atoms>  (790) 
nan

>  <Num_Not_Resolved_Atoms>  (790) 
nan

$$$$
CHEMBL611386
     RDKit          3D

  0  0  0  0  0  0  0  0  0  0999 V3000
M  V30 BEGIN CTAB
M  V30 COUNTS 48 50 0 0 0
M  V30 BEGIN ATOM
M  V30 1 C 1.096904 -4.011337 1.885433 0
M  V30 2 N 1.517632 -2.769406 2.525693 0
M  V30 3 C 1.585341 -2.979199 3.952045 0
M  V30 4 C 1.763871 -1.669055 1.667696 0
M  V30 5 N 3.025215 -1.187805 1.681953 0
M  V30 6 C 3.358534 -0.146119 0.890966 0
M  V30 7 C 2.379256 0.393820 0.086248 0
M  V30 8 C 2.642680 1.522144 -0.801958 0
M  V30 9 C 1.627501 2.024998 -1.585806 0
M  V30 10 C 1.713366 3.079621 -2.467662 0
M  V30 11 N 2.933184 3.684418 -2.570913 0
M  V30 12 C 3.970141 3.238896 -1.829263 0
M  V30 13 C 3.855184 2.165115 -0.940683 0
M  V30 14 N 1.126362 -0.094210 0.081020 0
M  V30 15 C 0.769100 -1.145913 0.872599 0
M  V30 16 N -0.564637 -1.655496 0.874946 0
M  V30 17 C -1.298229 -1.520405 2.134038 0
M  V30 18 C -2.772044 -1.424941 1.954857 0
M  V30 19 N -3.135153 -0.989495 0.651675 0
M  V30 20 C -2.742382 0.329700 0.279977 0
M  V30 21 C -3.473181 1.410198 1.050582 0
M  V30 22 O -4.847945 1.326638 0.841379 0
M  V30 23 C -2.700717 -1.950413 -0.312720 0
M  V30 24 C -1.265066 -2.298507 -0.249028 0
M  V30 25 H 1.796581 -4.850009 2.171419 0
M  V30 26 H 1.010424 -3.928878 0.798690 0
M  V30 27 H 0.115264 -4.296575 2.278349 0
M  V30 28 H 2.262470 -3.850525 4.189976 0
M  V30 29 H 2.018136 -2.122645 4.508922 0
M  V30 30 H 0.576696 -3.278753 4.292423 0
M  V30 31 H 4.366817 0.242663 0.898252 0
M  V30 32 H 0.620281 1.581215 -1.547941 0
M  V30 33 H 0.873792 3.425655 -3.055189 0
M  V30 34 H 4.923593 3.740256 -1.934968 0
M  V30 35 H 4.686309 1.810176 -0.347984 0
M  V30 36 H -0.955426 -0.569007 2.640488 0
M  V30 37 H -1.084360 -2.313485 2.855162 0
M  V30 38 H -3.200202 -2.444908 2.088297 0
M  V30 39 H -3.190913 -0.818885 2.776884 0
M  V30 40 H -3.052108 0.461419 -0.791897 0
M  V30 41 H -1.651044 0.501546 0.304515 0
M  V30 42 H -3.149560 2.385599 0.593536 0
M  V30 43 H -3.255225 1.432998 2.119867 0
M  V30 44 H -5.281626 2.225043 0.837711 0
M  V30 45 H -3.377609 -2.852158 -0.235594 0
M  V30 46 H -2.941609 -1.520136 -1.315054 0
M  V30 47 H -0.777484 -2.063678 -1.215625 0
M  V30 48 H -1.154088 -3.397386 -0.088588 0
M  V30 END ATOM
M  V30 BEGIN BOND
M  V30 1 1 1 2
M  V30 2 1 2 3
M  V30 3 1 2 4
M  V30 4 2 4 5
M  V30 5 1 5 6
M  V30 6 2 6 7
M  V30 7 1 7 8
M  V30 8 2 8 9
M  V30 9 1 9 10
M  V30 10 2 10 11
M  V30 11 1 11 12
M  V30 12 2 12 13
M  V30 13 1 7 14
M  V30 14 2 14 15
M  V30 15 1 15 16
M  V30 16 1 16 17
M  V30 17 1 17 18
M  V30 18 1 18 19
M  V30 19 1 19 20
M  V30 20 1 20 21
M  V30 21 1 21 22
M  V30 22 1 19 23
M  V30 23 1 23 24
M  V30 24 1 15 4
M  V30 25 1 24 16
M  V30 26 1 13 8
M  V30 27 1 1 25
M  V30 28 1 1 26
M  V30 29 1 1 27
M  V30 30 1 3 28
M  V30 31 1 3 29
M  V30 32 1 3 30
M  V30 33 1 6 31
M  V30 34 1 9 32
M  V30 35 1 10 33
M  V30 36 1 12 34
M  V30 37 1 13 35
M  V30 38 1 17 36
M  V30 39 1 17 37
M  V30 40 1 18 38
M  V30 41 1 18 39
M  V30 42 1 20 40
M  V30 43 1 20 41
M  V30 44 1 21 42
M  V30 45 1 21 43
M  V30 46 1 22 44
M  V30 47 1 23 45
M  V30 48 1 23 46
M  V30 49 1 24 47
M  V30 50 1 24 48
M  V30 END BOND
M  V30 END CTAB
M  END
>  <Dataset>  (791) 
ChEMBL_Kinases

>  <Ligand_Instance>  (791) 
nan

>  <PDB_ID>  (791) 
nan

>  <Standardized_SMILES>  (791) 
CN(C)c1ncc(-c2ccncc2)nc1N1CCN(CCO)CC1

>  <Name>  (791) 
nan

>  <Pocket>  (791) 
nan

>  <ATP_Site>  (791) 
nan

>  <Peripheral>  (791) 
nan

>  <Num_H_Atoms_ProtBoundConf>  (791) 
nan

>  <Num_Resolved_Atoms>  (791) 
nan

>  <Num_Not_Resolved_Atoms>  (791) 
nan

$$$$
CHEMBL2063455
     RDKit          3D

  0  0  0  0  0  0  0  0  0  0999 V3000
M  V30 BEGIN CTAB
M  V30 COUNTS 50 53 0 0 0
M  V30 BEGIN ATOM
M  V30 1 N 3.598914 0.052270 4.865484 0
M  V30 2 C 4.295961 -0.932189 4.134713 0
M  V30 3 N 5.243977 -1.735928 4.628006 0
M  V30 4 N 5.729945 -2.561138 3.728509 0
M  V30 5 C 5.064328 -2.281556 2.588997 0
M  V30 6 C 5.211858 -2.877869 1.347710 0
M  V30 7 C 4.410413 -2.405359 0.348154 0
M  V30 8 C 3.496773 -1.393231 0.535437 0
M  V30 9 C 3.388504 -0.836098 1.781251 0
M  V30 10 C 2.440767 0.232539 2.023867 0
M  V30 11 O 2.090943 0.976376 2.966508 0
M  V30 12 N 1.606180 0.661625 0.989922 0
M  V30 13 C 0.582434 1.616891 0.768259 0
M  V30 14 C 0.864454 2.892281 0.327722 0
M  V30 15 C -0.163281 3.810607 0.106913 0
M  V30 16 C -1.478765 3.415321 0.339496 0
M  V30 17 C -1.780513 2.139216 0.782228 0
M  V30 18 C -3.224577 1.851394 0.979853 0
M  V30 19 N -3.835891 1.297181 -0.217628 0
M  V30 20 C -3.679408 -0.050342 -0.648338 0
M  V30 21 O -2.987214 -0.919119 -0.027139 0
M  V30 22 N -4.257117 -0.642749 -1.820922 0
M  V30 23 C -3.813740 -2.018625 -1.832059 0
M  V30 24 C -4.521794 -3.019659 -1.216283 0
M  V30 25 C -4.107155 -4.331736 -1.212617 0
M  V30 26 C -2.934385 -4.586213 -1.866177 0
M  V30 27 C -2.165168 -3.642064 -2.508111 0
M  V30 28 F -1.008806 -4.003621 -3.132301 0
M  V30 29 C -2.624576 -2.330699 -2.484666 0
M  V30 30 C -0.734170 1.275765 0.984092 0
M  V30 31 C 4.166855 -1.269081 2.822835 0
M  V30 32 H 2.737152 -0.421419 5.252043 0
M  V30 33 H 4.081048 0.991261 4.854818 0
M  V30 34 H 6.466321 -3.278062 3.850221 0
M  V30 35 H 5.908538 -3.669886 1.156679 0
M  V30 36 H 4.521345 -2.865221 -0.617738 0
M  V30 37 H 2.929293 -1.118778 -0.339047 0
M  V30 38 H 1.577701 0.284469 -0.008550 0
M  V30 39 H 1.901142 3.150576 0.162833 0
M  V30 40 H 0.172935 4.776968 -0.236047 0
M  V30 41 H -2.177627 4.211580 0.131294 0
M  V30 42 H -3.254566 1.005369 1.727790 0
M  V30 43 H -3.795639 2.677773 1.402005 0
M  V30 44 H -4.446226 1.848386 -0.864047 0
M  V30 45 H -4.856092 0.002589 -2.410594 0
M  V30 46 H -5.431213 -2.689655 -0.734867 0
M  V30 47 H -4.711883 -5.068592 -0.709823 0
M  V30 48 H -2.574236 -5.609688 -1.884339 0
M  V30 49 H -2.056561 -1.552069 -2.974371 0
M  V30 50 H -0.965653 0.298775 1.327289 0
M  V30 END ATOM
M  V30 BEGIN BOND
M  V30 1 1 1 2
M  V30 2 2 2 3
M  V30 3 1 3 4
M  V30 4 1 4 5
M  V30 5 2 5 6
M  V30 6 1 6 7
M  V30 7 2 7 8
M  V30 8 1 8 9
M  V30 9 1 9 10
M  V30 10 2 10 11
M  V30 11 1 10 12
M  V30 12 1 12 13
M  V30 13 2 13 14
M  V30 14 1 14 15
M  V30 15 2 15 16
M  V30 16 1 16 17
M  V30 17 1 17 18
M  V30 18 1 18 19
M  V30 19 1 19 20
M  V30 20 2 20 21
M  V30 21 1 20 22
M  V30 22 1 22 23
M  V30 23 2 23 24
M  V30 24 1 24 25
M  V30 25 2 25 26
M  V30 26 1 26 27
M  V30 27 1 27 28
M  V30 28 2 27 29
M  V30 29 2 17 30
M  V30 30 2 9 31
M  V30 31 1 31 2
M  V30 32 1 31 5
M  V30 33 1 30 13
M  V30 34 1 29 23
M  V30 35 1 1 32
M  V30 36 1 1 33
M  V30 37 1 4 34
M  V30 38 1 6 35
M  V30 39 1 7 36
M  V30 40 1 8 37
M  V30 41 1 12 38
M  V30 42 1 14 39
M  V30 43 1 15 40
M  V30 44 1 16 41
M  V30 45 1 18 42
M  V30 46 1 18 43
M  V30 47 1 19 44
M  V30 48 1 22 45
M  V30 49 1 24 46
M  V30 50 1 25 47
M  V30 51 1 26 48
M  V30 52 1 29 49
M  V30 53 1 30 50
M  V30 END BOND
M  V30 END CTAB
M  END
>  <Dataset>  (792) 
ChEMBL_Kinases

>  <Ligand_Instance>  (792) 
nan

>  <PDB_ID>  (792) 
nan

>  <Standardized_SMILES>  (792) 
Nc1n[nH]c2cccc(C(=O)Nc3cccc(CNC(=O)Nc4cccc(F)c4)c3)c12

>  <Name>  (792) 
nan

>  <Pocket>  (792) 
nan

>  <ATP_Site>  (792) 
nan

>  <Peripheral>  (792) 
nan

>  <Num_H_Atoms_ProtBoundConf>  (792) 
nan

>  <Num_Resolved_Atoms>  (792) 
nan

>  <Num_Not_Resolved_Atoms>  (792) 
nan

$$$$
CHEMBL209280
     RDKit          3D

  0  0  0  0  0  0  0  0  0  0999 V3000
M  V30 BEGIN CTAB
M  V30 COUNTS 50 52 0 0 0
M  V30 BEGIN ATOM
M  V30 1 N 2.282166 -4.389422 1.430444 0
M  V30 2 C 1.287712 -3.557751 1.981910 0
M  V30 3 N 1.477759 -2.577757 2.897211 0
M  V30 4 C 0.290625 -2.034245 3.218550 0
M  V30 5 N 0.506767 -1.003697 4.169581 0
M  V30 6 C 0.364536 0.349855 3.708878 0
M  V30 7 C 0.876888 1.429514 4.437934 0
M  V30 8 C 0.690878 2.734305 3.963588 0
M  V30 9 C 0.005277 2.988705 2.779493 0
M  V30 10 S -0.196997 4.625942 2.159654 0
M  V30 11 O 0.182002 5.632854 3.209658 0
M  V30 12 O -1.613139 4.844473 1.792492 0
M  V30 13 N 0.877229 4.715733 0.781924 0
M  V30 14 C 0.347428 4.437838 -0.513121 0
M  V30 15 O -0.888909 4.186802 -0.346893 0
M  V30 16 C 1.102236 4.443962 -1.763989 0
M  V30 17 C 0.246692 4.058942 -2.957666 0
M  V30 18 C -0.333048 2.674543 -2.784518 0
M  V30 19 O -1.478493 2.557475 -2.225999 0
M  V30 20 O -0.788342 1.387532 -2.665573 0
M  V30 21 C -0.483138 1.903576 2.092610 0
M  V30 22 C -0.311590 0.617247 2.538468 0
M  V30 23 N -0.611632 -2.701767 2.483171 0
M  V30 24 N -0.013368 -3.615403 1.739273 0
M  V30 25 C -0.877341 -4.394698 0.948742 0
M  V30 26 O -2.134048 -4.205572 1.133639 0
M  V30 27 C -0.748584 -5.402744 -0.063910 0
M  V30 28 C -1.733470 -6.398704 -0.078348 0
M  V30 29 F -2.780364 -6.488332 0.805128 0
M  V30 30 C -1.717694 -7.424794 -1.043563 0
M  V30 31 C -0.717911 -7.440440 -1.982949 0
M  V30 32 C 0.259124 -6.482217 -2.001107 0
M  V30 33 C 0.206374 -5.503096 -1.045240 0
M  V30 34 F 1.163238 -4.584216 -1.186752 0
M  V30 35 H 2.153018 -5.420727 1.600815 0
M  V30 36 H 3.158724 -4.343209 0.879349 0
M  V30 37 H 0.756954 -1.213339 5.161900 0
M  V30 38 H 1.393051 1.187634 5.336877 0
M  V30 39 H 1.102648 3.569253 4.551630 0
M  V30 40 H 1.905333 4.968657 0.862327 0
M  V30 41 H 1.911896 3.650644 -1.737480 0
M  V30 42 H 1.650726 5.385734 -1.949270 0
M  V30 43 H -0.564490 4.801557 -3.046792 0
M  V30 44 H 0.828382 4.099919 -3.909613 0
M  V30 45 H -0.180569 0.576559 -2.862052 0
M  V30 46 H -1.029794 1.967102 1.170743 0
M  V30 47 H -0.688801 -0.248230 2.005629 0
M  V30 48 H -2.488590 -8.205922 -1.050458 0
M  V30 49 H -0.743168 -8.239513 -2.695792 0
M  V30 50 H 0.997338 -6.562000 -2.761268 0
M  V30 END ATOM
M  V30 BEGIN BOND
M  V30 1 1 1 2
M  V30 2 2 2 3
M  V30 3 1 3 4
M  V30 4 1 4 5
M  V30 5 1 5 6
M  V30 6 2 6 7
M  V30 7 1 7 8
M  V30 8 2 8 9
M  V30 9 1 9 10
M  V30 10 2 10 11
M  V30 11 2 10 12
M  V30 12 1 10 13
M  V30 13 1 13 14
M  V30 14 2 14 15
M  V30 15 1 14 16
M  V30 16 1 16 17
M  V30 17 1 17 18
M  V30 18 2 18 19
M  V30 19 1 18 20
M  V30 20 1 9 21
M  V30 21 2 21 22
M  V30 22 2 4 23
M  V30 23 1 23 24
M  V30 24 1 24 25
M  V30 25 2 25 26
M  V30 26 1 25 27
M  V30 27 2 27 28
M  V30 28 1 28 29
M  V30 29 1 28 30
M  V30 30 2 30 31
M  V30 31 1 31 32
M  V30 32 2 32 33
M  V30 33 1 33 34
M  V30 34 1 24 2
M  V30 35 1 33 27
M  V30 36 1 22 6
M  V30 37 1 1 35
M  V30 38 1 1 36
M  V30 39 1 5 37
M  V30 40 1 7 38
M  V30 41 1 8 39
M  V30 42 1 13 40
M  V30 43 1 16 41
M  V30 44 1 16 42
M  V30 45 1 17 43
M  V30 46 1 17 44
M  V30 47 1 20 45
M  V30 48 1 21 46
M  V30 49 1 22 47
M  V30 50 1 30 48
M  V30 51 1 31 49
M  V30 52 1 32 50
M  V30 END BOND
M  V30 END CTAB
M  END
>  <Dataset>  (793) 
ChEMBL_Kinases

>  <Ligand_Instance>  (793) 
nan

>  <PDB_ID>  (793) 
nan

>  <Standardized_SMILES>  (793) 
Nc1nc(Nc2ccc(S(=O)(=O)NC(=O)CCC(=O)O)cc2)nn1C(=O)c1c(F)cccc1F

>  <Name>  (793) 
nan

>  <Pocket>  (793) 
nan

>  <ATP_Site>  (793) 
nan

>  <Peripheral>  (793) 
nan

>  <Num_H_Atoms_ProtBoundConf>  (793) 
nan

>  <Num_Resolved_Atoms>  (793) 
nan

>  <Num_Not_Resolved_Atoms>  (793) 
nan

$$$$
CHEMBL2064561
     RDKit          3D

  0  0  0  0  0  0  0  0  0  0999 V3000
M  V30 BEGIN CTAB
M  V30 COUNTS 62 65 0 0 0
M  V30 BEGIN ATOM
M  V30 1 C 4.372470 0.194743 4.303408 0
M  V30 2 N 4.181087 -1.201477 4.130787 0
M  V30 3 C 3.864422 -1.939548 5.305640 0
M  V30 4 C 3.587224 -1.632741 2.917391 0
M  V30 5 C 2.155797 -1.275086 2.706515 0 CFG=1
M  V30 6 O 1.743499 -1.794037 1.431337 0
M  V30 7 C 1.151059 -0.991735 0.481934 0
M  V30 8 O 0.882663 0.252963 0.552619 0
M  V30 9 N 0.683749 -1.331052 -0.818902 0
M  V30 10 C 0.067119 -0.307801 -1.692826 0
M  V30 11 C -1.150575 -1.013347 -2.137000 0
M  V30 12 C -2.458965 -0.920192 -2.549538 0
M  V30 13 N -3.330599 0.161090 -2.775191 0
M  V30 14 C -3.119354 1.554845 -2.720406 0
M  V30 15 O -1.963565 1.950242 -2.426799 0
M  V30 16 C -4.121463 2.580604 -2.973366 0
M  V30 17 C -5.448098 2.346790 -3.315984 0
M  V30 18 C -6.338726 3.368654 -3.538332 0
M  V30 19 C -5.962397 4.684297 -3.432947 0
M  V30 20 C -4.649955 4.952633 -3.093762 0
M  V30 21 C -3.798321 3.900801 -2.881776 0
M  V30 22 N -2.878521 -2.178362 -2.768974 0
M  V30 23 N -1.912697 -3.034967 -2.518325 0
M  V30 24 C -0.827959 -2.355434 -2.125448 0
M  V30 25 C 0.599877 -2.498312 -1.681752 0
M  V30 26 C 1.467103 -2.304057 -2.887174 0
M  V30 27 C 0.831342 -3.793947 -0.969760 0
M  V30 28 C 1.260225 -1.942871 3.708388 0
M  V30 29 C 0.970714 -3.311954 3.693060 0
M  V30 30 C 0.126898 -3.830735 4.667024 0
M  V30 31 C -0.438203 -3.064587 5.646617 0
M  V30 32 C -0.174996 -1.696648 5.697136 0
M  V30 33 C 0.659785 -1.207405 4.725956 0
M  V30 34 H 4.207402 0.423318 5.393885 0
M  V30 35 H 5.407515 0.556509 4.090220 0
M  V30 36 H 3.662604 0.845156 3.773259 0
M  V30 37 H 3.493907 -2.934906 5.068261 0
M  V30 38 H 3.244698 -1.361561 6.023631 0
M  V30 39 H 4.842565 -2.109827 5.846207 0
M  V30 40 H 4.156747 -1.350357 2.020678 0
M  V30 41 H 3.625631 -2.761559 2.929204 0
M  V30 42 H 1.920921 -0.202958 2.754531 0
M  V30 43 H 0.717282 -0.206251 -2.590990 0
M  V30 44 H -0.080443 0.622577 -1.152783 0
M  V30 45 H -4.329999 -0.011580 -3.031095 0
M  V30 46 H -5.784901 1.326918 -3.409333 0
M  V30 47 H -7.379076 3.138621 -3.807210 0
M  V30 48 H -6.675098 5.475707 -3.611238 0
M  V30 49 H -4.331187 5.979593 -3.005087 0
M  V30 50 H -2.787194 4.179219 -2.619851 0
M  V30 51 H -2.016123 -4.070421 -2.622911 0
M  V30 52 H 1.905386 -3.270919 -3.205343 0
M  V30 53 H 0.890716 -1.936773 -3.773536 0
M  V30 54 H 2.271855 -1.582723 -2.636570 0
M  V30 55 H 1.648715 -3.767884 -0.242379 0
M  V30 56 H 1.097274 -4.550782 -1.747083 0
M  V30 57 H -0.121575 -4.170132 -0.514136 0
M  V30 58 H 1.439325 -3.868956 2.904972 0
M  V30 59 H -0.066066 -4.902017 4.608911 0
M  V30 60 H -1.097868 -3.478621 6.404438 0
M  V30 61 H -0.584405 -1.011398 6.446512 0
M  V30 62 H 0.889567 -0.141598 4.728991 0
M  V30 END ATOM
M  V30 BEGIN BOND
M  V30 1 1 1 2
M  V30 2 1 2 3
M  V30 3 1 2 4
M  V30 4 1 4 5
M  V30 5 1 5 6
M  V30 6 1 6 7
M  V30 7 2 7 8
M  V30 8 1 7 9
M  V30 9 1 9 10
M  V30 10 1 10 11
M  V30 11 1 11 12
M  V30 12 1 12 13
M  V30 13 1 13 14
M  V30 14 2 14 15
M  V30 15 1 14 16
M  V30 16 2 16 17
M  V30 17 1 17 18
M  V30 18 2 18 19
M  V30 19 1 19 20
M  V30 20 2 20 21
M  V30 21 2 12 22
M  V30 22 1 22 23
M  V30 23 1 23 24
M  V30 24 1 24 25
M  V30 25 1 25 26
M  V30 26 1 25 27
M  V30 27 1 5 28
M  V30 28 2 28 29
M  V30 29 1 29 30
M  V30 30 2 30 31
M  V30 31 1 31 32
M  V30 32 2 32 33
M  V30 33 1 25 9
M  V30 34 1 33 28
M  V30 35 2 24 11
M  V30 36 1 21 16
M  V30 37 1 1 34
M  V30 38 1 1 35
M  V30 39 1 1 36
M  V30 40 1 3 37
M  V30 41 1 3 38
M  V30 42 1 3 39
M  V30 43 1 4 40
M  V30 44 1 4 41
M  V30 45 1 5 42 CFG=3
M  V30 46 1 10 43
M  V30 47 1 10 44
M  V30 48 1 13 45
M  V30 49 1 17 46
M  V30 50 1 18 47
M  V30 51 1 19 48
M  V30 52 1 20 49
M  V30 53 1 21 50
M  V30 54 1 23 51
M  V30 55 1 26 52
M  V30 56 1 26 53
M  V30 57 1 26 54
M  V30 58 1 27 55
M  V30 59 1 27 56
M  V30 60 1 27 57
M  V30 61 1 29 58
M  V30 62 1 30 59
M  V30 63 1 31 60
M  V30 64 1 32 61
M  V30 65 1 33 62
M  V30 END BOND
M  V30 END CTAB
M  END
>  <Dataset>  (794) 
ChEMBL_Kinases

>  <Ligand_Instance>  (794) 
nan

>  <PDB_ID>  (794) 
nan

>  <Standardized_SMILES>  (794) 
CN(C)C[C@@H](OC(=O)N1Cc2c(NC(=O)c3ccccc3)n[nH]c2C1(C)C)c1ccccc1

>  <Name>  (794) 
nan

>  <Pocket>  (794) 
nan

>  <ATP_Site>  (794) 
nan

>  <Peripheral>  (794) 
nan

>  <Num_H_Atoms_ProtBoundConf>  (794) 
nan

>  <Num_Resolved_Atoms>  (794) 
nan

>  <Num_Not_Resolved_Atoms>  (794) 
nan

$$$$
CHEMBL2063456
     RDKit          3D

  0  0  0  0  0  0  0  0  0  0999 V3000
M  V30 BEGIN CTAB
M  V30 COUNTS 50 53 0 0 0
M  V30 BEGIN ATOM
M  V30 1 N 0.410434 -1.055670 2.812030 0
M  V30 2 C 1.669466 -1.647834 2.809903 0
M  V30 3 N 1.893484 -2.787704 3.486514 0
M  V30 4 N 3.157147 -3.142998 3.320492 0
M  V30 5 C 3.721909 -2.217698 2.534279 0
M  V30 6 C 5.018348 -2.141631 2.072119 0
M  V30 7 C 5.408388 -1.100239 1.261447 0
M  V30 8 C 4.491303 -0.122705 0.910280 0
M  V30 9 C 3.195553 -0.230032 1.394064 0
M  V30 10 C 2.306684 0.824787 0.991943 0
M  V30 11 O 1.119635 1.010021 1.466876 0
M  V30 12 N 2.375342 1.897220 0.077155 0
M  V30 13 C 1.073960 2.517644 0.244707 0
M  V30 14 C 0.809281 3.476005 1.191835 0
M  V30 15 C -0.498783 3.969497 1.223471 0
M  V30 16 C -1.393458 3.454775 0.315012 0
M  V30 17 C -1.111373 2.477396 -0.647145 0
M  V30 18 C -2.326625 2.121032 -1.469068 0
M  V30 19 N -3.011333 0.995080 -0.801977 0
M  V30 20 C -2.488495 -0.323201 -1.004040 0
M  V30 21 O -1.527621 -0.670972 -1.726059 0
M  V30 22 N -3.191518 -1.339342 -0.254897 0
M  V30 23 C -2.888411 -2.724763 -0.295640 0
M  V30 24 C -3.677058 -3.480001 -1.126204 0
M  V30 25 C -3.401967 -4.833989 -1.213469 0
M  V30 26 C -2.359171 -5.386161 -0.476454 0
M  V30 27 F -2.123593 -6.715968 -0.578550 0
M  V30 28 C -1.555554 -4.644950 0.362380 0
M  V30 29 F -0.542819 -5.219006 1.064573 0
M  V30 30 C -1.845737 -3.299634 0.434274 0
M  V30 31 C 0.181604 2.010879 -0.655796 0
M  V30 32 C 2.811132 -1.254474 2.190753 0
M  V30 33 H -0.333169 -0.478090 3.261152 0
M  V30 34 H -0.507048 -0.640599 2.781905 0
M  V30 35 H 3.597843 -3.996563 3.739904 0
M  V30 36 H 5.730204 -2.898031 2.339565 0
M  V30 37 H 6.425152 -1.013872 0.874611 0
M  V30 38 H 4.812572 0.704018 0.264986 0
M  V30 39 H 3.313501 1.909545 -0.415911 0
M  V30 40 H 1.611180 3.781216 1.842116 0
M  V30 41 H -0.739401 4.716625 1.952396 0
M  V30 42 H -2.387300 3.907698 0.424633 0
M  V30 43 H -2.023494 1.780994 -2.476390 0
M  V30 44 H -3.010445 2.975768 -1.562402 0
M  V30 45 H -3.849585 1.180787 -0.205336 0
M  V30 46 H -3.972937 -1.136618 0.376203 0
M  V30 47 H -4.485240 -3.053760 -1.702062 0
M  V30 48 H -4.044767 -5.406843 -1.874925 0
M  V30 49 H -1.274710 -2.655200 1.055430 0
M  V30 50 H 0.339010 1.266123 -1.421419 0
M  V30 END ATOM
M  V30 BEGIN BOND
M  V30 1 1 1 2
M  V30 2 2 2 3
M  V30 3 1 3 4
M  V30 4 1 4 5
M  V30 5 2 5 6
M  V30 6 1 6 7
M  V30 7 2 7 8
M  V30 8 1 8 9
M  V30 9 1 9 10
M  V30 10 2 10 11
M  V30 11 1 10 12
M  V30 12 1 12 13
M  V30 13 2 13 14
M  V30 14 1 14 15
M  V30 15 2 15 16
M  V30 16 1 16 17
M  V30 17 1 17 18
M  V30 18 1 18 19
M  V30 19 1 19 20
M  V30 20 2 20 21
M  V30 21 1 20 22
M  V30 22 1 22 23
M  V30 23 2 23 24
M  V30 24 1 24 25
M  V30 25 2 25 26
M  V30 26 1 26 27
M  V30 27 1 26 28
M  V30 28 1 28 29
M  V30 29 2 28 30
M  V30 30 2 17 31
M  V30 31 2 9 32
M  V30 32 1 32 2
M  V30 33 1 32 5
M  V30 34 1 31 13
M  V30 35 1 30 23
M  V30 36 1 1 33
M  V30 37 1 1 34
M  V30 38 1 4 35
M  V30 39 1 6 36
M  V30 40 1 7 37
M  V30 41 1 8 38
M  V30 42 1 12 39
M  V30 43 1 14 40
M  V30 44 1 15 41
M  V30 45 1 16 42
M  V30 46 1 18 43
M  V30 47 1 18 44
M  V30 48 1 19 45
M  V30 49 1 22 46
M  V30 50 1 24 47
M  V30 51 1 25 48
M  V30 52 1 30 49
M  V30 53 1 31 50
M  V30 END BOND
M  V30 END CTAB
M  END
>  <Dataset>  (795) 
ChEMBL_Kinases

>  <Ligand_Instance>  (795) 
nan

>  <PDB_ID>  (795) 
nan

>  <Standardized_SMILES>  (795) 
Nc1n[nH]c2cccc(C(=O)Nc3cccc(CNC(=O)Nc4ccc(F)c(F)c4)c3)c12

>  <Name>  (795) 
nan

>  <Pocket>  (795) 
nan

>  <ATP_Site>  (795) 
nan

>  <Peripheral>  (795) 
nan

>  <Num_H_Atoms_ProtBoundConf>  (795) 
nan

>  <Num_Resolved_Atoms>  (795) 
nan

>  <Num_Not_Resolved_Atoms>  (795) 
nan

$$$$
CHEMBL4640016
     RDKit          3D

  0  0  0  0  0  0  0  0  0  0999 V3000
M  V30 BEGIN CTAB
M  V30 COUNTS 71 75 0 0 0
M  V30 BEGIN ATOM
M  V30 1 C 2.699087 -5.346318 3.743780 0
M  V30 2 O 1.576813 -4.504570 3.475624 0
M  V30 3 C 1.658903 -3.430966 2.606763 0
M  V30 4 C 2.834627 -3.091493 1.932857 0
M  V30 5 C 2.901593 -2.022058 1.072238 0
M  V30 6 C 4.152685 -1.712831 0.398814 0
M  V30 7 O 5.123464 -2.425710 0.715484 0
M  V30 8 N 4.290164 -0.677386 -0.558017 0
M  V30 9 C 5.466110 -0.272841 -1.290231 0
M  V30 10 C 5.299175 -0.534359 -2.775211 0
M  V30 11 C 5.227954 0.775354 -3.542729 0
M  V30 12 N 4.366543 1.725788 -2.926545 0
M  V30 13 C 2.960801 1.515304 -3.134867 0
M  V30 14 C 4.621588 2.024407 -1.563531 0
M  V30 15 C 5.731251 1.178351 -1.019868 0
M  V30 16 C 1.783416 -1.252209 0.857838 0
M  V30 17 C 0.646162 -1.621968 1.542251 0
M  V30 18 C 0.519083 -2.697695 2.428384 0
M  V30 19 N -0.756543 -2.942673 3.048275 0
M  V30 20 C -1.841814 -2.060611 2.765914 0
M  V30 21 N -2.143790 -1.015056 3.595225 0
M  V30 22 C -3.150685 -0.211290 3.291794 0
M  V30 23 C -3.904416 -0.400291 2.159578 0
M  V30 24 C -3.599527 -1.449311 1.329949 0
M  V30 25 N -2.576206 -2.257533 1.648931 0
M  V30 26 N -4.246175 -1.820064 0.116599 0
M  V30 27 C -3.972399 -3.163619 -0.353643 0
M  V30 28 C -5.121469 -1.006959 -0.667284 0
M  V30 29 C -5.177466 -1.486693 -1.964935 0
M  V30 30 C -5.974702 -0.836603 -2.891453 0
M  V30 31 C -6.689301 0.268451 -2.496268 0
M  V30 32 C -6.639166 0.754184 -1.202612 0
M  V30 33 C -5.844728 0.106751 -0.278853 0
M  V30 34 C -5.848492 0.693128 1.074891 0
M  V30 35 O -6.915789 1.367906 1.283308 0
M  V30 36 N -4.874739 0.622271 2.145944 0
M  V30 37 C -5.072023 1.670427 3.080711 0
M  V30 38 C -4.296583 2.922137 2.729548 0
M  V30 39 F -4.516323 3.926169 3.684635 0
M  V30 40 F -2.938288 2.753140 2.656786 0
M  V30 41 F -4.797808 3.493696 1.554335 0
M  V30 42 H 2.821626 -6.014090 2.842400 0
M  V30 43 H 2.446791 -5.971926 4.619855 0
M  V30 44 H 3.592164 -4.727345 3.921179 0
M  V30 45 H 3.705695 -3.726310 2.126876 0
M  V30 46 H 3.466400 -0.105256 -0.802870 0
M  V30 47 H 6.322898 -0.887504 -0.920910 0
M  V30 48 H 4.404014 -1.136096 -2.969471 0
M  V30 49 H 6.219352 -1.033122 -3.133997 0
M  V30 50 H 6.225540 1.209000 -3.679007 0
M  V30 51 H 4.779174 0.497097 -4.539520 0
M  V30 52 H 2.687141 0.435617 -3.005531 0
M  V30 53 H 2.415060 2.082746 -2.369543 0
M  V30 54 H 2.620248 1.800423 -4.157827 0
M  V30 55 H 3.686397 1.892832 -0.972190 0
M  V30 56 H 4.979163 3.083294 -1.493789 0
M  V30 57 H 5.815264 1.388320 0.073713 0
M  V30 58 H 6.701735 1.496355 -1.476099 0
M  V30 59 H 1.748448 -0.395978 0.199930 0
M  V30 60 H -0.242781 -1.009848 1.372169 0
M  V30 61 H -0.763805 -3.778415 3.672450 0
M  V30 62 H -3.282628 0.552955 4.010537 0
M  V30 63 H -4.865709 -3.692752 -0.714459 0
M  V30 64 H -3.599336 -3.745481 0.513959 0
M  V30 65 H -3.117479 -3.169041 -1.081092 0
M  V30 66 H -4.599394 -2.353713 -2.226121 0
M  V30 67 H -6.028287 -1.206917 -3.926475 0
M  V30 68 H -7.316120 0.781376 -3.219170 0
M  V30 69 H -7.183500 1.619949 -0.847155 0
M  V30 70 H -6.154608 2.024440 3.065756 0
M  V30 71 H -4.807172 1.403603 4.111592 0
M  V30 END ATOM
M  V30 BEGIN BOND
M  V30 1 1 1 2
M  V30 2 1 2 3
M  V30 3 2 3 4
M  V30 4 1 4 5
M  V30 5 1 5 6
M  V30 6 2 6 7
M  V30 7 1 6 8
M  V30 8 1 8 9
M  V30 9 1 9 10
M  V30 10 1 10 11
M  V30 11 1 11 12
M  V30 12 1 12 13
M  V30 13 1 12 14
M  V30 14 1 14 15
M  V30 15 2 5 16
M  V30 16 1 16 17
M  V30 17 2 17 18
M  V30 18 1 18 19
M  V30 19 1 19 20
M  V30 20 2 20 21
M  V30 21 1 21 22
M  V30 22 2 22 23
M  V30 23 1 23 24
M  V30 24 2 24 25
M  V30 25 1 24 26
M  V30 26 1 26 27
M  V30 27 1 26 28
M  V30 28 2 28 29
M  V30 29 1 29 30
M  V30 30 2 30 31
M  V30 31 1 31 32
M  V30 32 2 32 33
M  V30 33 1 33 34
M  V30 34 2 34 35
M  V30 35 1 34 36
M  V30 36 1 36 37
M  V30 37 1 37 38
M  V30 38 1 38 39
M  V30 39 1 38 40
M  V30 40 1 38 41
M  V30 41 1 18 3
M  V30 42 1 25 20
M  V30 43 1 33 28
M  V30 44 1 15 9
M  V30 45 1 36 23
M  V30 46 1 1 42
M  V30 47 1 1 43
M  V30 48 1 1 44
M  V30 49 1 4 45
M  V30 50 1 8 46
M  V30 51 1 9 47
M  V30 52 1 10 48
M  V30 53 1 10 49
M  V30 54 1 11 50
M  V30 55 1 11 51
M  V30 56 1 13 52
M  V30 57 1 13 53
M  V30 58 1 13 54
M  V30 59 1 14 55
M  V30 60 1 14 56
M  V30 61 1 15 57
M  V30 62 1 15 58
M  V30 63 1 16 59
M  V30 64 1 17 60
M  V30 65 1 19 61
M  V30 66 1 22 62
M  V30 67 1 27 63
M  V30 68 1 27 64
M  V30 69 1 27 65
M  V30 70 1 29 66
M  V30 71 1 30 67
M  V30 72 1 31 68
M  V30 73 1 32 69
M  V30 74 1 37 70
M  V30 75 1 37 71
M  V30 END BOND
M  V30 END CTAB
M  END
>  <Dataset>  (796) 
ChEMBL_Kinases

>  <Ligand_Instance>  (796) 
nan

>  <PDB_ID>  (796) 
nan

>  <Standardized_SMILES>  (796) 
COc1cc(C(=O)NC2CCN(C)CC2)ccc1Nc1ncc2c(n1)N(C)c1ccccc1C(=O)N2CC(F)(F)F

>  <Name>  (796) 
nan

>  <Pocket>  (796) 
nan

>  <ATP_Site>  (796) 
nan

>  <Peripheral>  (796) 
nan

>  <Num_H_Atoms_ProtBoundConf>  (796) 
nan

>  <Num_Resolved_Atoms>  (796) 
nan

>  <Num_Not_Resolved_Atoms>  (796) 
nan

$$$$
CHEMBL214212
     RDKit          3D

  0  0  0  0  0  0  0  0  0  0999 V3000
M  V30 BEGIN CTAB
M  V30 COUNTS 46 47 0 0 0
M  V30 BEGIN ATOM
M  V30 1 C 0.562528 -2.737670 2.808171 0
M  V30 2 C 0.106751 -3.887167 1.960056 0
M  V30 3 O -1.303695 -4.068535 1.975093 0
M  V30 4 C -2.175397 -3.075425 1.547387 0
M  V30 5 N -1.724117 -1.894856 1.099121 0
M  V30 6 C -2.502674 -0.886121 0.669305 0
M  V30 7 C -1.928419 0.363072 0.198699 0
M  V30 8 O -2.648885 1.325443 -0.204155 0
M  V30 9 N -0.522334 0.535803 0.179759 0
M  V30 10 C 0.199722 1.713104 -0.255534 0
M  V30 11 C 1.663006 1.546861 -0.149541 0
M  V30 12 C 2.323221 2.152090 0.893565 0
M  V30 13 C 3.685971 2.034798 1.053749 0
M  V30 14 O 4.527273 2.557723 2.021533 0
M  V30 15 C 4.075656 3.363610 3.089329 0
M  V30 16 C 4.404835 1.275889 0.121329 0
M  V30 17 C 3.733641 0.669249 -0.926655 0
M  V30 18 C 2.369895 0.785830 -1.087945 0
M  V30 19 O 1.616918 0.218410 -2.098544 0
M  V30 20 C 2.256370 -0.568917 -3.091716 0
M  V30 21 C -3.876503 -1.071018 0.687074 0
M  V30 22 C -4.319291 -2.291889 1.151672 0
M  V30 23 N -5.711544 -2.497407 1.175368 0
M  V30 24 C -3.532767 -3.334007 1.595047 0
M  V30 25 C -4.096422 -4.568830 2.059769 0
M  V30 26 N -4.539108 -5.573386 2.448543 0
M  V30 27 H 1.557374 -2.953816 3.288734 0
M  V30 28 H -0.183187 -2.563555 3.616368 0
M  V30 29 H 0.682331 -1.788282 2.258724 0
M  V30 30 H 0.573886 -4.849636 2.254127 0
M  V30 31 H 0.357936 -3.615938 0.906850 0
M  V30 32 H 0.051541 -0.265100 0.513055 0
M  V30 33 H -0.113832 2.639711 0.268559 0
M  V30 34 H -0.043913 1.871461 -1.332632 0
M  V30 35 H 1.864671 2.744340 1.645496 0
M  V30 36 H 4.253569 4.441839 2.814074 0
M  V30 37 H 4.652565 3.104894 4.000838 0
M  V30 38 H 3.003913 3.221942 3.258778 0
M  V30 39 H 5.480612 1.074408 0.088320 0
M  V30 40 H 4.217099 0.063161 -1.693697 0
M  V30 41 H 1.525257 -0.798581 -3.899024 0
M  V30 42 H 3.115027 0.036826 -3.456379 0
M  V30 43 H 2.680880 -1.482414 -2.640966 0
M  V30 44 H -4.520762 -0.291180 0.352894 0
M  V30 45 H -6.733727 -2.419580 1.037662 0
M  V30 46 H -6.177570 -3.303622 1.685640 0
M  V30 END ATOM
M  V30 BEGIN BOND
M  V30 1 1 1 2
M  V30 2 1 2 3
M  V30 3 1 3 4
M  V30 4 2 4 5
M  V30 5 1 5 6
M  V30 6 1 6 7
M  V30 7 2 7 8
M  V30 8 1 7 9
M  V30 9 1 9 10
M  V30 10 1 10 11
M  V30 11 2 11 12
M  V30 12 1 12 13
M  V30 13 1 13 14
M  V30 14 1 14 15
M  V30 15 2 13 16
M  V30 16 1 16 17
M  V30 17 2 17 18
M  V30 18 1 18 19
M  V30 19 1 19 20
M  V30 20 2 6 21
M  V30 21 1 21 22
M  V30 22 1 22 23
M  V30 23 2 22 24
M  V30 24 1 24 25
M  V30 25 3 25 26
M  V30 26 1 24 4
M  V30 27 1 18 11
M  V30 28 1 1 27
M  V30 29 1 1 28
M  V30 30 1 1 29
M  V30 31 1 2 30
M  V30 32 1 2 31
M  V30 33 1 9 32
M  V30 34 1 10 33
M  V30 35 1 10 34
M  V30 36 1 12 35
M  V30 37 1 15 36
M  V30 38 1 15 37
M  V30 39 1 15 38
M  V30 40 1 16 39
M  V30 41 1 17 40
M  V30 42 1 20 41
M  V30 43 1 20 42
M  V30 44 1 20 43
M  V30 45 1 21 44
M  V30 46 1 23 45
M  V30 47 1 23 46
M  V30 END BOND
M  V30 END CTAB
M  END
>  <Dataset>  (797) 
ChEMBL_Kinases

>  <Ligand_Instance>  (797) 
nan

>  <PDB_ID>  (797) 
nan

>  <Standardized_SMILES>  (797) 
CCOc1nc(C(=O)NCc2cc(OC)ccc2OC)cc(N)c1C#N

>  <Name>  (797) 
nan

>  <Pocket>  (797) 
nan

>  <ATP_Site>  (797) 
nan

>  <Peripheral>  (797) 
nan

>  <Num_H_Atoms_ProtBoundConf>  (797) 
nan

>  <Num_Resolved_Atoms>  (797) 
nan

>  <Num_Not_Resolved_Atoms>  (797) 
nan

$$$$
CHEMBL575255
     RDKit          3D

  0  0  0  0  0  0  0  0  0  0999 V3000
M  V30 BEGIN CTAB
M  V30 COUNTS 49 52 0 0 0
M  V30 BEGIN ATOM
M  V30 1 C 1.272430 -5.727758 4.011920 0
M  V30 2 N 1.609561 -5.155312 2.720616 0
M  V30 3 C 1.994419 -6.243110 1.865072 0
M  V30 4 C 2.649950 -4.158426 2.838383 0
M  V30 5 C 2.897856 -3.657170 1.434318 0
M  V30 6 N 2.177612 -2.615967 1.011340 0
M  V30 7 C 2.332626 -2.101820 -0.222484 0
M  V30 8 C 3.268822 -2.744697 -0.947712 0
M  V30 9 S 3.319345 -1.942643 -2.487731 0
M  V30 10 C 1.974852 -0.687223 -2.042023 0
M  V30 11 C 1.473913 0.326789 -2.856442 0
M  V30 12 C 0.494585 1.094249 -2.268732 0
M  V30 13 C 0.124572 0.788933 -0.978679 0
M  V30 14 C -0.933552 1.625107 -0.358059 0
M  V30 15 C -1.013398 1.906594 0.993781 0
M  V30 16 C -2.045920 2.697839 1.456437 0
M  V30 17 C -3.013780 3.228573 0.629946 0
M  V30 18 N -4.088748 4.045753 1.073534 0
M  V30 19 C -5.083911 4.576546 0.135685 0
M  V30 20 C -4.219112 4.373752 2.494852 0
M  V30 21 C -2.918194 2.937507 -0.714014 0
M  V30 22 C -1.911283 2.158872 -1.207204 0
M  V30 23 C 0.658754 -0.227959 -0.225766 0
M  V30 24 C 1.644418 -1.042048 -0.742582 0
M  V30 25 C 4.013588 -3.826528 -0.501089 0
M  V30 26 O 4.852716 -4.322943 -1.294304 0
M  V30 27 N 3.834657 -4.315529 0.735595 0
M  V30 28 H 1.263729 -4.986746 4.836313 0
M  V30 29 H 1.993839 -6.536942 4.232864 0
M  V30 30 H 0.220456 -6.092596 3.915400 0
M  V30 31 H 1.224780 -7.033571 1.984967 0
M  V30 32 H 2.120414 -5.961609 0.798271 0
M  V30 33 H 2.931004 -6.687581 2.300950 0
M  V30 34 H 2.274687 -3.316987 3.452650 0
M  V30 35 H 3.579223 -4.589281 3.255818 0
M  V30 36 H 1.857573 0.446681 -3.841510 0
M  V30 37 H 0.080711 1.885324 -2.857605 0
M  V30 38 H -0.255520 1.489710 1.631646 0
M  V30 39 H -2.092173 2.905116 2.503125 0
M  V30 40 H -5.439736 3.787614 -0.565953 0
M  V30 41 H -4.733023 5.487490 -0.379047 0
M  V30 42 H -5.989080 4.884339 0.726416 0
M  V30 43 H -5.313458 4.531523 2.696395 0
M  V30 44 H -3.735386 5.341529 2.669573 0
M  V30 45 H -3.912118 3.557027 3.158151 0
M  V30 46 H -3.643913 3.322309 -1.412482 0
M  V30 47 H -1.870294 1.952140 -2.269665 0
M  V30 48 H 0.282215 -0.366113 0.777780 0
M  V30 49 H 4.382194 -5.118210 1.076883 0
M  V30 END ATOM
M  V30 BEGIN BOND
M  V30 1 1 1 2
M  V30 2 1 2 3
M  V30 3 1 2 4
M  V30 4 1 4 5
M  V30 5 2 5 6
M  V30 6 1 6 7
M  V30 7 2 7 8
M  V30 8 1 8 9
M  V30 9 1 9 10
M  V30 10 2 10 11
M  V30 11 1 11 12
M  V30 12 2 12 13
M  V30 13 1 13 14
M  V30 14 2 14 15
M  V30 15 1 15 16
M  V30 16 2 16 17
M  V30 17 1 17 18
M  V30 18 1 18 19
M  V30 19 1 18 20
M  V30 20 1 17 21
M  V30 21 2 21 22
M  V30 22 1 13 23
M  V30 23 2 23 24
M  V30 24 1 8 25
M  V30 25 2 25 26
M  V30 26 1 25 27
M  V30 27 1 27 5
M  V30 28 1 24 7
M  V30 29 1 24 10
M  V30 30 1 22 14
M  V30 31 1 1 28
M  V30 32 1 1 29
M  V30 33 1 1 30
M  V30 34 1 3 31
M  V30 35 1 3 32
M  V30 36 1 3 33
M  V30 37 1 4 34
M  V30 38 1 4 35
M  V30 39 1 11 36
M  V30 40 1 12 37
M  V30 41 1 15 38
M  V30 42 1 16 39
M  V30 43 1 19 40
M  V30 44 1 19 41
M  V30 45 1 19 42
M  V30 46 1 20 43
M  V30 47 1 20 44
M  V30 48 1 20 45
M  V30 49 1 21 46
M  V30 50 1 22 47
M  V30 51 1 23 48
M  V30 52 1 27 49
M  V30 END BOND
M  V30 END CTAB
M  END
>  <Dataset>  (798) 
ChEMBL_Kinases

>  <Ligand_Instance>  (798) 
nan

>  <PDB_ID>  (798) 
nan

>  <Standardized_SMILES>  (798) 
CN(C)Cc1nc2c(sc3ccc(-c4ccc(N(C)C)cc4)cc32)c(=O)[nH]1

>  <Name>  (798) 
nan

>  <Pocket>  (798) 
nan

>  <ATP_Site>  (798) 
nan

>  <Peripheral>  (798) 
nan

>  <Num_H_Atoms_ProtBoundConf>  (798) 
nan

>  <Num_Resolved_Atoms>  (798) 
nan

>  <Num_Not_Resolved_Atoms>  (798) 
nan

$$$$
CHEMBL2088584
     RDKit          3D

  0  0  0  0  0  0  0  0  0  0999 V3000
M  V30 BEGIN CTAB
M  V30 COUNTS 51 54 0 0 0
M  V30 BEGIN ATOM
M  V30 1 C 3.115282 -0.927090 5.672204 0
M  V30 2 C 4.290483 -1.743271 5.229755 0
M  V30 3 C 5.090469 -1.087709 4.158107 0
M  V30 4 N 4.455811 -0.816802 2.919120 0
M  V30 5 C 3.418973 -0.086770 2.306304 0
M  V30 6 O 2.783377 0.616666 3.119224 0
M  V30 7 C 3.068954 -0.099721 0.895183 0
M  V30 8 C 3.683342 -0.825023 -0.103546 0
M  V30 9 C 3.306332 -0.796940 -1.429681 0
M  V30 10 C 2.246253 0.001932 -1.810907 0
M  V30 11 F 1.837890 0.064481 -3.098155 0
M  V30 12 C 1.628707 0.729476 -0.813619 0
M  V30 13 C 0.484988 1.609219 -1.142329 0
M  V30 14 C 0.595610 2.951136 -1.505445 0
M  V30 15 O 1.759031 3.429809 -1.551390 0
M  V30 16 C -0.581256 3.628102 -1.780321 0
M  V30 17 C -1.799284 3.006264 -1.698817 0
M  V30 18 N -1.905195 1.691133 -1.342751 0
M  V30 19 N -3.114594 1.158244 -1.285130 0
M  V30 20 C -3.294149 -0.140508 -0.938978 0
M  V30 21 O -4.602809 -0.551804 -0.922184 0
M  V30 22 C -5.045391 -1.826372 -0.610142 0
M  V30 23 C -5.898228 -2.141869 0.441138 0
M  V30 24 C -6.288180 -3.455238 0.675450 0
M  V30 25 C -5.825488 -4.477554 -0.146372 0
M  V30 26 F -6.250174 -5.744860 0.143409 0
M  V30 27 C -4.972257 -4.168781 -1.199637 0
M  V30 28 C -4.592561 -2.850750 -1.419669 0
M  V30 29 F -3.762717 -2.737176 -2.488405 0
M  V30 30 C -2.159044 -0.870886 -0.652336 0
M  V30 31 C -0.907348 -0.295922 -0.718478 0
M  V30 32 C -0.764313 1.026088 -1.073851 0
M  V30 33 C 2.011919 0.696279 0.512450 0
M  V30 34 H 2.856716 -1.262568 6.715819 0
M  V30 35 H 3.388258 0.135209 5.681274 0
M  V30 36 H 2.212690 -1.113332 5.066505 0
M  V30 37 H 3.964467 -2.748564 4.858538 0
M  V30 38 H 4.901519 -1.948813 6.147615 0
M  V30 39 H 5.427214 -0.068503 4.564165 0
M  V30 40 H 6.077008 -1.607259 4.020029 0
M  V30 41 H 4.936460 -1.378292 2.137817 0
M  V30 42 H 4.514769 -1.455791 0.175380 0
M  V30 43 H 3.844003 -1.399461 -2.153895 0
M  V30 44 H -0.459208 4.679547 -2.062283 0
M  V30 45 H -2.659249 3.609241 -1.929537 0
M  V30 46 H -6.232378 -1.314206 1.054007 0
M  V30 47 H -6.948150 -3.681143 1.492932 0
M  V30 48 H -4.671895 -5.026855 -1.774361 0
M  V30 49 H -2.323962 -1.887867 -0.381208 0
M  V30 50 H -0.064802 -0.927563 -0.480892 0
M  V30 51 H 1.469810 1.305730 1.252553 0
M  V30 END ATOM
M  V30 BEGIN BOND
M  V30 1 1 1 2
M  V30 2 1 2 3
M  V30 3 1 3 4
M  V30 4 1 4 5
M  V30 5 2 5 6
M  V30 6 1 5 7
M  V30 7 2 7 8
M  V30 8 1 8 9
M  V30 9 2 9 10
M  V30 10 1 10 11
M  V30 11 1 10 12
M  V30 12 1 12 13
M  V30 13 1 13 14
M  V30 14 2 14 15
M  V30 15 1 14 16
M  V30 16 2 16 17
M  V30 17 1 17 18
M  V30 18 1 18 19
M  V30 19 2 19 20
M  V30 20 1 20 21
M  V30 21 1 21 22
M  V30 22 2 22 23
M  V30 23 1 23 24
M  V30 24 2 24 25
M  V30 25 1 25 26
M  V30 26 1 25 27
M  V30 27 2 27 28
M  V30 28 1 28 29
M  V30 29 1 20 30
M  V30 30 2 30 31
M  V30 31 1 31 32
M  V30 32 2 12 33
M  V30 33 1 33 7
M  V30 34 2 32 13
M  V30 35 1 32 18
M  V30 36 1 28 22
M  V30 37 1 1 34
M  V30 38 1 1 35
M  V30 39 1 1 36
M  V30 40 1 2 37
M  V30 41 1 2 38
M  V30 42 1 3 39
M  V30 43 1 3 40
M  V30 44 1 4 41
M  V30 45 1 8 42
M  V30 46 1 9 43
M  V30 47 1 16 44
M  V30 48 1 17 45
M  V30 49 1 23 46
M  V30 50 1 24 47
M  V30 51 1 27 48
M  V30 52 1 30 49
M  V30 53 1 31 50
M  V30 54 1 33 51
M  V30 END BOND
M  V30 END CTAB
M  END
>  <Dataset>  (799) 
ChEMBL_Kinases

>  <Ligand_Instance>  (799) 
nan

>  <PDB_ID>  (799) 
nan

>  <Standardized_SMILES>  (799) 
CCCNC(=O)c1ccc(F)c(-c2c(=O)ccn3nc(Oc4ccc(F)cc4F)ccc23)c1

>  <Name>  (799) 
nan

>  <Pocket>  (799) 
nan

>  <ATP_Site>  (799) 
nan

>  <Peripheral>  (799) 
nan

>  <Num_H_Atoms_ProtBoundConf>  (799) 
nan

>  <Num_Resolved_Atoms>  (799) 
nan

>  <Num_Not_Resolved_Atoms>  (799) 
nan

$$$$
CHEMBL209388
     RDKit          3D

  0  0  0  0  0  0  0  0  0  0999 V3000
M  V30 BEGIN CTAB
M  V30 COUNTS 40 44 0 0 0
M  V30 BEGIN ATOM
M  V30 1 C 0.098226 -2.416321 3.586125 0
M  V30 2 N 0.282564 -2.350257 2.155957 0
M  V30 3 C 0.553684 -3.357097 1.274491 0
M  V30 4 C 0.714903 -4.700734 1.574828 0
M  V30 5 C 0.988939 -5.616637 0.571241 0
M  V30 6 C 1.095975 -5.142361 -0.741650 0
M  V30 7 O 1.369256 -6.055690 -1.742531 0
M  V30 8 C 0.922483 -3.795433 -0.955281 0
M  V30 9 C 0.652861 -2.860479 -0.005267 0
M  V30 10 C 0.434592 -1.522099 0.120180 0
M  V30 11 C 0.415489 -0.545857 -0.819664 0
M  V30 12 C 0.171419 0.754708 -0.462362 0
M  V30 13 C -0.058307 1.079888 0.868863 0
M  V30 14 C -0.322511 2.446967 1.300777 0
M  V30 15 C -1.598563 2.970448 1.365251 0
M  V30 16 C -1.737952 4.279109 1.788444 0
M  V30 17 C -0.674769 5.088549 2.148920 0
M  V30 18 C 0.577050 4.500110 2.060764 0
M  V30 19 C 0.777314 3.216692 1.651193 0
M  V30 20 Cl 2.431261 2.651756 1.605396 0
M  V30 21 C -0.038967 0.088807 1.823372 0
M  V30 22 C 0.208656 -1.213126 1.441435 0
M  V30 23 C 0.185545 1.679153 -1.589407 0
M  V30 24 O -0.003460 2.922148 -1.573713 0
M  V30 25 N 0.466776 0.822627 -2.711683 0
M  V30 26 C 0.602691 -0.506521 -2.241216 0
M  V30 27 O 0.847803 -1.352469 -3.109330 0
M  V30 28 H 0.990201 -2.092534 4.152552 0
M  V30 29 H -0.792336 -1.803461 3.864916 0
M  V30 30 H -0.140448 -3.451811 3.909953 0
M  V30 31 H 0.629572 -5.051329 2.591093 0
M  V30 32 H 1.104472 -6.650380 0.864929 0
M  V30 33 H 2.354151 -6.209733 -1.998600 0
M  V30 34 H 1.019212 -3.519051 -1.973296 0
M  V30 35 H -2.433210 2.354438 1.088726 0
M  V30 36 H -2.759811 4.663153 1.828381 0
M  V30 37 H -0.856942 6.097134 2.468659 0
M  V30 38 H 1.409825 5.150150 2.348447 0
M  V30 39 H -0.216487 0.339797 2.852356 0
M  V30 40 H 0.532321 1.259302 -3.677422 0
M  V30 END ATOM
M  V30 BEGIN BOND
M  V30 1 1 1 2
M  V30 2 1 2 3
M  V30 3 2 3 4
M  V30 4 1 4 5
M  V30 5 2 5 6
M  V30 6 1 6 7
M  V30 7 1 6 8
M  V30 8 2 8 9
M  V30 9 1 9 10
M  V30 10 2 10 11
M  V30 11 1 11 12
M  V30 12 2 12 13
M  V30 13 1 13 14
M  V30 14 2 14 15
M  V30 15 1 15 16
M  V30 16 2 16 17
M  V30 17 1 17 18
M  V30 18 2 18 19
M  V30 19 1 19 20
M  V30 20 1 13 21
M  V30 21 2 21 22
M  V30 22 1 12 23
M  V30 23 2 23 24
M  V30 24 1 23 25
M  V30 25 1 25 26
M  V30 26 2 26 27
M  V30 27 1 22 2
M  V30 28 1 9 3
M  V30 29 1 22 10
M  V30 30 1 26 11
M  V30 31 1 19 14
M  V30 32 1 1 28
M  V30 33 1 1 29
M  V30 34 1 1 30
M  V30 35 1 4 31
M  V30 36 1 5 32
M  V30 37 1 7 33
M  V30 38 1 8 34
M  V30 39 1 15 35
M  V30 40 1 16 36
M  V30 41 1 17 37
M  V30 42 1 18 38
M  V30 43 1 21 39
M  V30 44 1 25 40
M  V30 END BOND
M  V30 END CTAB
M  END
>  <Dataset>  (800) 
ChEMBL_Kinases

>  <Ligand_Instance>  (800) 
nan

>  <PDB_ID>  (800) 
nan

>  <Standardized_SMILES>  (800) 
Cn1c2ccc(O)cc2c2c3c(c(-c4ccccc4Cl)cc21)C(=O)NC3=O

>  <Name>  (800) 
nan

>  <Pocket>  (800) 
nan

>  <ATP_Site>  (800) 
nan

>  <Peripheral>  (800) 
nan

>  <Num_H_Atoms_ProtBoundConf>  (800) 
nan

>  <Num_Resolved_Atoms>  (800) 
nan

>  <Num_Not_Resolved_Atoms>  (800) 
nan

$$$$
CHEMBL2079205
     RDKit          3D

  0  0  0  0  0  0  0  0  0  0999 V3000
M  V30 BEGIN CTAB
M  V30 COUNTS 58 63 0 0 0
M  V30 BEGIN ATOM
M  V30 1 N 1.135943 -3.135747 -1.622853 0
M  V30 2 C 1.135040 -1.936296 -0.858565 0
M  V30 3 N 2.031105 -0.961943 -1.092905 0
M  V30 4 C 2.077262 0.192521 -0.402114 0
M  V30 5 C 1.155236 0.423729 0.624327 0
M  V30 6 C 1.196645 1.678315 1.383530 0
M  V30 7 C 0.887202 2.037056 2.679998 0
M  V30 8 N 1.120495 3.351800 2.840035 0
M  V30 9 N 1.571226 3.876816 1.703104 0
M  V30 10 C 1.953471 5.250905 1.405741 0
M  V30 11 C 2.528363 5.926648 2.611893 0
M  V30 12 C 2.436023 7.403944 2.648587 0
M  V30 13 N 1.606687 8.000979 1.624088 0
M  V30 14 C 0.403954 7.164247 1.558472 0
M  V30 15 C 0.826371 5.960575 0.744397 0
M  V30 16 C 1.626507 2.862629 0.789735 0
M  V30 17 C 0.234697 -0.574206 0.867040 0
M  V30 18 C 0.196147 -1.745641 0.158140 0
M  V30 19 C -0.796785 -2.777954 0.448425 0
M  V30 20 N -1.774822 -2.778692 1.380742 0
M  V30 21 C -2.482029 -3.933762 1.320386 0
M  V30 22 C -3.551388 -4.487350 1.988130 0
M  V30 23 C -4.020464 -5.749239 1.632649 0
M  V30 24 C -3.413980 -6.463387 0.599905 0
M  V30 25 O -3.925037 -7.715177 0.290947 0
M  V30 26 C -2.329758 -5.889439 -0.068962 0
M  V30 27 C -1.751757 -6.698512 -1.135072 0
M  V30 28 C -2.211253 -6.594580 -2.417009 0
M  V30 29 C -1.687446 -7.349355 -3.467239 0
M  V30 30 C -0.665008 -8.230170 -3.178675 0
M  V30 31 C -0.200188 -8.335159 -1.881434 0
M  V30 32 C -0.732342 -7.576612 -0.847102 0
M  V30 33 C -1.879186 -4.636609 0.298296 0
M  V30 34 O -0.898249 -3.923557 -0.183634 0
M  V30 35 H 1.610578 -3.826437 -0.995300 0
M  V30 36 H 0.669132 -2.938715 -2.548238 0
M  V30 37 H 2.782497 0.979143 -0.574034 0
M  V30 38 H 0.521965 1.290584 3.371560 0
M  V30 39 H 2.796982 5.192468 0.663369 0
M  V30 40 H 3.606020 5.623688 2.729555 0
M  V30 41 H 2.049821 5.521035 3.543022 0
M  V30 42 H 3.442449 7.858019 2.524837 0
M  V30 43 H 2.102510 7.769134 3.662157 0
M  V30 44 H 2.148937 7.904906 0.721938 0
M  V30 45 H 0.171736 6.850294 2.583464 0
M  V30 46 H -0.452934 7.679664 1.102263 0
M  V30 47 H 1.082321 6.301185 -0.279217 0
M  V30 48 H -0.077285 5.299583 0.681350 0
M  V30 49 H 1.959197 2.994837 -0.232375 0
M  V30 50 H -0.495650 -0.444554 1.646284 0
M  V30 51 H -3.997672 -3.893897 2.791299 0
M  V30 52 H -4.854994 -6.109887 2.199006 0
M  V30 53 H -4.058691 -8.060828 -0.660301 0
M  V30 54 H -3.012983 -5.905405 -2.649219 0
M  V30 55 H -2.024287 -7.293365 -4.486627 0
M  V30 56 H -0.216812 -8.841932 -3.940935 0
M  V30 57 H 0.586947 -8.996328 -1.592651 0
M  V30 58 H -0.397856 -7.627816 0.183053 0
M  V30 END ATOM
M  V30 BEGIN BOND
M  V30 1 1 1 2
M  V30 2 2 2 3
M  V30 3 1 3 4
M  V30 4 2 4 5
M  V30 5 1 5 6
M  V30 6 1 6 7
M  V30 7 2 7 8
M  V30 8 1 8 9
M  V30 9 1 9 10
M  V30 10 1 10 11
M  V30 11 1 11 12
M  V30 12 1 12 13
M  V30 13 1 13 14
M  V30 14 1 14 15
M  V30 15 1 9 16
M  V30 16 1 5 17
M  V30 17 2 17 18
M  V30 18 1 18 19
M  V30 19 2 19 20
M  V30 20 1 20 21
M  V30 21 2 21 22
M  V30 22 1 22 23
M  V30 23 2 23 24
M  V30 24 1 24 25
M  V30 25 1 24 26
M  V30 26 1 26 27
M  V30 27 2 27 28
M  V30 28 1 28 29
M  V30 29 2 29 30
M  V30 30 1 30 31
M  V30 31 2 31 32
M  V30 32 2 26 33
M  V30 33 1 33 34
M  V30 34 1 18 2
M  V30 35 1 34 19
M  V30 36 2 16 6
M  V30 37 1 33 21
M  V30 38 1 15 10
M  V30 39 1 32 27
M  V30 40 1 1 35
M  V30 41 1 1 36
M  V30 42 1 4 37
M  V30 43 1 7 38
M  V30 44 1 10 39
M  V30 45 1 11 40
M  V30 46 1 11 41
M  V30 47 1 12 42
M  V30 48 1 12 43
M  V30 49 1 13 44
M  V30 50 1 14 45
M  V30 51 1 14 46
M  V30 52 1 15 47
M  V30 53 1 15 48
M  V30 54 1 16 49
M  V30 55 1 17 50
M  V30 56 1 22 51
M  V30 57 1 23 52
M  V30 58 1 25 53
M  V30 59 1 28 54
M  V30 60 1 29 55
M  V30 61 1 30 56
M  V30 62 1 31 57
M  V30 63 1 32 58
M  V30 END BOND
M  V30 END CTAB
M  END
>  <Dataset>  (801) 
ChEMBL_Kinases

>  <Ligand_Instance>  (801) 
nan

>  <PDB_ID>  (801) 
nan

>  <Standardized_SMILES>  (801) 
Nc1ncc(-c2cnn(C3CCNCC3)c2)cc1-c1nc2ccc(O)c(-c3ccccc3)c2o1

>  <Name>  (801) 
nan

>  <Pocket>  (801) 
nan

>  <ATP_Site>  (801) 
nan

>  <Peripheral>  (801) 
nan

>  <Num_H_Atoms_ProtBoundConf>  (801) 
nan

>  <Num_Resolved_Atoms>  (801) 
nan

>  <Num_Not_Resolved_Atoms>  (801) 
nan

$$$$
CHEMBL1096380
     RDKit          3D

  0  0  0  0  0  0  0  0  0  0999 V3000
M  V30 BEGIN CTAB
M  V30 COUNTS 45 47 0 0 0
M  V30 BEGIN ATOM
M  V30 1 C 3.956935 -4.244746 -0.775075 0
M  V30 2 C 2.641391 -3.484573 -0.567803 0
M  V30 3 C 2.555700 -3.182276 0.894990 0
M  V30 4 C 1.559022 -4.409189 -1.068091 0
M  V30 5 C 2.739728 -2.250351 -1.398541 0
M  V30 6 N 3.764714 -1.832588 -2.197818 0
M  V30 7 C 3.412304 -0.659521 -2.754449 0
M  V30 8 N 2.185430 -0.339082 -2.315845 0
M  V30 9 C 1.740673 -1.293329 -1.480928 0
M  V30 10 C 0.432780 -1.238357 -0.832361 0
M  V30 11 C 0.030829 -0.262280 -0.033022 0
M  V30 12 N 0.894324 0.759263 0.200512 0
M  V30 13 C 0.472924 1.745329 1.015253 0
M  V30 14 O 1.264748 2.697848 1.239262 0
M  V30 15 C -0.755251 1.807625 1.630990 0
M  V30 16 C -1.104029 2.810183 2.421943 0
M  V30 17 C -2.425295 2.808933 3.041645 0
M  V30 18 C -2.569528 1.807680 4.007161 0
M  V30 19 C -3.748915 1.645590 4.704697 0
M  V30 20 C -4.824158 2.475130 4.464115 0
M  V30 21 C -4.670704 3.474334 3.496118 0
M  V30 22 C -3.488577 3.630860 2.802289 0
M  V30 23 N -1.580480 0.754435 1.359688 0
M  V30 24 C -1.218167 -0.262363 0.553469 0
M  V30 25 O -2.028255 -1.197445 0.348941 0
M  V30 26 H 3.968282 -5.203236 -0.221009 0
M  V30 27 H 3.979673 -4.422642 -1.888566 0
M  V30 28 H 4.815852 -3.608360 -0.465428 0
M  V30 29 H 3.562355 -2.777932 1.189257 0
M  V30 30 H 1.778230 -2.477930 1.194730 0
M  V30 31 H 2.446525 -4.137997 1.426976 0
M  V30 32 H 0.722157 -4.371186 -0.367807 0
M  V30 33 H 1.886763 -5.480726 -1.122592 0
M  V30 34 H 1.293788 -4.161216 -2.124902 0
M  V30 35 H 4.629614 -2.409825 -2.285161 0
M  V30 36 H 4.111821 -0.185302 -3.419341 0
M  V30 37 H -0.293799 -2.040284 -0.992812 0
M  V30 38 H 1.840049 0.772928 -0.235064 0
M  V30 39 H -0.356201 3.596302 2.562517 0
M  V30 40 H -1.809876 1.072185 4.311149 0
M  V30 41 H -3.923304 0.897225 5.457526 0
M  V30 42 H -5.806148 2.483038 4.916760 0
M  V30 43 H -5.424468 4.211705 3.187694 0
M  V30 44 H -3.308342 4.375468 2.050099 0
M  V30 45 H -2.522283 0.733669 1.788978 0
M  V30 END ATOM
M  V30 BEGIN BOND
M  V30 1 1 1 2
M  V30 2 1 2 3
M  V30 3 1 2 4
M  V30 4 1 2 5
M  V30 5 1 5 6
M  V30 6 1 6 7
M  V30 7 2 7 8
M  V30 8 1 8 9
M  V30 9 1 9 10
M  V30 10 2 10 11
M  V30 11 1 11 12
M  V30 12 1 12 13
M  V30 13 2 13 14
M  V30 14 1 13 15
M  V30 15 2 15 16
M  V30 16 1 16 17
M  V30 17 2 17 18
M  V30 18 1 18 19
M  V30 19 2 19 20
M  V30 20 1 20 21
M  V30 21 2 21 22
M  V30 22 1 15 23
M  V30 23 1 23 24
M  V30 24 2 24 25
M  V30 25 2 9 5
M  V30 26 1 24 11
M  V30 27 1 22 17
M  V30 28 1 1 26
M  V30 29 1 1 27
M  V30 30 1 1 28
M  V30 31 1 3 29
M  V30 32 1 3 30
M  V30 33 1 3 31
M  V30 34 1 4 32
M  V30 35 1 4 33
M  V30 36 1 4 34
M  V30 37 1 6 35
M  V30 38 1 7 36
M  V30 39 1 10 37
M  V30 40 1 12 38
M  V30 41 1 16 39
M  V30 42 1 18 40
M  V30 43 1 19 41
M  V30 44 1 20 42
M  V30 45 1 21 43
M  V30 46 1 22 44
M  V30 47 1 23 45
M  V30 END BOND
M  V30 END CTAB
M  END
>  <Dataset>  (802) 
ChEMBL_Kinases

>  <Ligand_Instance>  (802) 
nan

>  <PDB_ID>  (802) 
nan

>  <Standardized_SMILES>  (802) 
CC(C)(C)c1[nH]cnc1/C=c1\[nH]c(=O)/c(=C/c2ccccc2)[nH]c1=O

>  <Name>  (802) 
PLINABULIN

>  <Pocket>  (802) 
nan

>  <ATP_Site>  (802) 
nan

>  <Peripheral>  (802) 
nan

>  <Num_H_Atoms_ProtBoundConf>  (802) 
nan

>  <Num_Resolved_Atoms>  (802) 
nan

>  <Num_Not_Resolved_Atoms>  (802) 
nan

$$$$
CHEMBL214208
     RDKit          3D

  0  0  0  0  0  0  0  0  0  0999 V3000
M  V30 BEGIN CTAB
M  V30 COUNTS 38 42 0 0 0
M  V30 BEGIN ATOM
M  V30 1 O 3.225929 1.402599 1.728771 0
M  V30 2 C 2.535491 0.370648 1.899123 0
M  V30 3 N 2.719014 -0.687307 2.860062 0
M  V30 4 C 1.693252 -1.643745 2.677580 0
M  V30 5 O 1.734267 -2.612607 3.445521 0
M  V30 6 C 0.830671 -1.244083 1.614811 0
M  V30 7 C 1.345515 -0.052221 1.168788 0
M  V30 8 C 0.735649 0.625618 0.118847 0
M  V30 9 C 1.253518 1.894725 -0.382836 0
M  V30 10 C 0.732425 3.012692 0.241377 0
M  V30 11 C 1.148081 4.275981 -0.149082 0
M  V30 12 O 0.680044 5.452713 0.420180 0
M  V30 13 C 2.088995 4.375441 -1.170582 0
M  V30 14 C 2.609951 3.257663 -1.794636 0
M  V30 15 C 2.196058 1.996850 -1.405978 0
M  V30 16 Cl 2.775986 0.507356 -2.112900 0
M  V30 17 C -0.391186 0.093726 -0.473448 0
M  V30 18 C -0.889124 -1.099691 -0.011338 0
M  V30 19 N -1.952137 -1.823598 -0.402303 0
M  V30 20 C -1.995974 -2.931791 0.396023 0
M  V30 21 C -2.927731 -3.950033 0.343148 0
M  V30 22 C -2.849980 -5.021741 1.221177 0
M  V30 23 C -1.804955 -5.032613 2.151238 0
M  V30 24 O -1.716703 -6.099511 3.034898 0
M  V30 25 C -0.919480 -3.980344 2.137583 0
M  V30 26 C -0.955562 -2.910348 1.297607 0
M  V30 27 C -0.279587 -1.762326 1.026829 0
M  V30 28 H 3.538012 -0.618498 3.530554 0
M  V30 29 H 0.009873 2.992546 1.028616 0
M  V30 30 H -0.313850 5.454899 0.647138 0
M  V30 31 H 2.443507 5.341056 -1.509187 0
M  V30 32 H 3.344589 3.315287 -2.593192 0
M  V30 33 H -0.862173 0.617604 -1.284596 0
M  V30 34 H -2.588913 -1.539870 -1.178315 0
M  V30 35 H -3.730364 -3.931701 -0.378728 0
M  V30 36 H -3.599581 -5.792159 1.141815 0
M  V30 37 H -2.229617 -6.009139 3.925270 0
M  V30 38 H -0.159195 -4.065207 2.872345 0
M  V30 END ATOM
M  V30 BEGIN BOND
M  V30 1 2 1 2
M  V30 2 1 2 3
M  V30 3 1 3 4
M  V30 4 2 4 5
M  V30 5 1 4 6
M  V30 6 2 6 7
M  V30 7 1 7 8
M  V30 8 1 8 9
M  V30 9 2 9 10
M  V30 10 1 10 11
M  V30 11 1 11 12
M  V30 12 2 11 13
M  V30 13 1 13 14
M  V30 14 2 14 15
M  V30 15 1 15 16
M  V30 16 2 8 17
M  V30 17 1 17 18
M  V30 18 1 18 19
M  V30 19 1 19 20
M  V30 20 2 20 21
M  V30 21 1 21 22
M  V30 22 2 22 23
M  V30 23 1 23 24
M  V30 24 1 23 25
M  V30 25 2 25 26
M  V30 26 1 26 27
M  V30 27 1 7 2
M  V30 28 1 15 9
M  V30 29 2 27 18
M  V30 30 1 27 6
M  V30 31 1 26 20
M  V30 32 1 3 28
M  V30 33 1 10 29
M  V30 34 1 12 30
M  V30 35 1 13 31
M  V30 36 1 14 32
M  V30 37 1 17 33
M  V30 38 1 19 34
M  V30 39 1 21 35
M  V30 40 1 22 36
M  V30 41 1 24 37
M  V30 42 1 25 38
M  V30 END BOND
M  V30 END CTAB
M  END
>  <Dataset>  (803) 
ChEMBL_Kinases

>  <Ligand_Instance>  (803) 
nan

>  <PDB_ID>  (803) 
nan

>  <Standardized_SMILES>  (803) 
O=C1NC(=O)c2c1c(-c1cc(O)ccc1Cl)cc1[nH]c3ccc(O)cc3c21

>  <Name>  (803) 
nan

>  <Pocket>  (803) 
nan

>  <ATP_Site>  (803) 
nan

>  <Peripheral>  (803) 
nan

>  <Num_H_Atoms_ProtBoundConf>  (803) 
nan

>  <Num_Resolved_Atoms>  (803) 
nan

>  <Num_Not_Resolved_Atoms>  (803) 
nan

$$$$
CHEMBL214341
     RDKit          3D

  0  0  0  0  0  0  0  0  0  0999 V3000
M  V30 BEGIN CTAB
M  V30 COUNTS 40 44 0 0 0
M  V30 BEGIN ATOM
M  V30 1 C 2.161031 1.437918 0.681684 0
M  V30 2 C 1.133487 0.380870 0.683424 0
M  V30 3 C 1.003903 -0.437087 -0.420862 0
M  V30 4 C 1.879644 -0.229682 -1.541053 0
M  V30 5 C 1.546214 0.626817 -2.571352 0
M  V30 6 C 2.264082 0.937345 -3.708387 0
M  V30 7 C 3.490143 0.269073 -3.783749 0
M  V30 8 C 3.915956 -0.609402 -2.803326 0
M  V30 9 C 3.109410 -0.848077 -1.697463 0
M  V30 10 C 0.022600 -1.432878 -0.397132 0
M  V30 11 C -0.794335 -1.599957 0.690450 0
M  V30 12 C -0.652615 -0.783733 1.771780 0
M  V30 13 C 0.306657 0.204384 1.772268 0
M  V30 14 N 0.234490 0.853469 2.939292 0
M  V30 15 C -0.766371 0.271216 3.662661 0
M  V30 16 C -1.180088 0.630650 4.929823 0
M  V30 17 C -2.214685 -0.050895 5.549058 0
M  V30 18 C -2.788346 -1.090549 4.824829 0
M  V30 19 O -3.821100 -1.756502 5.466164 0
M  V30 20 C -2.322689 -1.391297 3.566056 0
M  V30 21 C -1.321633 -0.750248 2.937212 0
M  V30 22 C -1.642883 -2.689486 0.342416 0
M  V30 23 O -2.564060 -3.275284 0.927677 0
M  V30 24 N -1.329499 -3.170061 -0.953466 0
M  V30 25 C -0.250319 -2.381824 -1.474620 0
M  V30 26 O 0.324350 -2.482009 -2.590897 0
M  V30 27 H 3.129066 1.121331 0.266002 0
M  V30 28 H 1.779095 2.395340 0.232875 0
M  V30 29 H 2.377665 1.693589 1.742316 0
M  V30 30 H 0.572036 1.134237 -2.474779 0
M  V30 31 H 1.881385 1.622415 -4.426872 0
M  V30 32 H 4.110283 0.468867 -4.659387 0
M  V30 33 H 4.870010 -1.112493 -2.888320 0
M  V30 34 H 3.423714 -1.536085 -0.912157 0
M  V30 35 H 0.867995 1.663222 3.193212 0
M  V30 36 H -0.710120 1.444061 5.461323 0
M  V30 37 H -2.503885 0.258656 6.528883 0
M  V30 38 H -4.758941 -1.481980 5.256071 0
M  V30 39 H -2.849829 -2.203849 3.130923 0
M  V30 40 H -1.728339 -3.948525 -1.546749 0
M  V30 END ATOM
M  V30 BEGIN BOND
M  V30 1 1 1 2
M  V30 2 2 2 3
M  V30 3 1 3 4
M  V30 4 2 4 5
M  V30 5 1 5 6
M  V30 6 2 6 7
M  V30 7 1 7 8
M  V30 8 2 8 9
M  V30 9 1 3 10
M  V30 10 2 10 11
M  V30 11 1 11 12
M  V30 12 2 12 13
M  V30 13 1 13 14
M  V30 14 1 14 15
M  V30 15 2 15 16
M  V30 16 1 16 17
M  V30 17 2 17 18
M  V30 18 1 18 19
M  V30 19 1 18 20
M  V30 20 2 20 21
M  V30 21 1 11 22
M  V30 22 2 22 23
M  V30 23 1 22 24
M  V30 24 1 24 25
M  V30 25 2 25 26
M  V30 26 1 13 2
M  V30 27 1 21 15
M  V30 28 1 9 4
M  V30 29 1 25 10
M  V30 30 1 21 12
M  V30 31 1 1 27
M  V30 32 1 1 28
M  V30 33 1 1 29
M  V30 34 1 5 30
M  V30 35 1 6 31
M  V30 36 1 7 32
M  V30 37 1 8 33
M  V30 38 1 9 34
M  V30 39 1 14 35
M  V30 40 1 16 36
M  V30 41 1 17 37
M  V30 42 1 19 38
M  V30 43 1 20 39
M  V30 44 1 24 40
M  V30 END BOND
M  V30 END CTAB
M  END
>  <Dataset>  (804) 
ChEMBL_Kinases

>  <Ligand_Instance>  (804) 
nan

>  <PDB_ID>  (804) 
nan

>  <Standardized_SMILES>  (804) 
Cc1c(-c2ccccc2)c2c(c3c1[nH]c1ccc(O)cc13)C(=O)NC2=O

>  <Name>  (804) 
nan

>  <Pocket>  (804) 
nan

>  <ATP_Site>  (804) 
nan

>  <Peripheral>  (804) 
nan

>  <Num_H_Atoms_ProtBoundConf>  (804) 
nan

>  <Num_Resolved_Atoms>  (804) 
nan

>  <Num_Not_Resolved_Atoms>  (804) 
nan

$$$$
CHEMBL2078645
     RDKit          3D

  0  0  0  0  0  0  0  0  0  0999 V3000
M  V30 BEGIN CTAB
M  V30 COUNTS 52 56 0 0 0
M  V30 BEGIN ATOM
M  V30 1 C 4.313142 -8.133189 3.695294 0
M  V30 2 N 4.303325 -6.760935 4.122425 0
M  V30 3 C 3.716404 -5.588992 3.570227 0
M  V30 4 C 3.886499 -4.390583 4.227873 0
M  V30 5 C 3.301091 -3.278746 3.658652 0
M  V30 6 C 2.584160 -3.392438 2.484099 0
M  V30 7 O 1.957251 -2.465740 1.789182 0
M  V30 8 C 1.394408 -2.960034 0.736099 0
M  V30 9 C 0.615103 -2.236401 -0.266107 0
M  V30 10 C 0.423240 -0.876941 -0.132398 0
M  V30 11 C -0.315129 -0.216000 -1.090876 0
M  V30 12 C -0.488906 1.224952 -0.904254 0
M  V30 13 C 0.374165 2.115775 -0.328958 0
M  V30 14 N -0.193596 3.343981 -0.367422 0
M  V30 15 N -1.381736 3.267668 -0.943829 0
M  V30 16 C -2.192260 4.461279 -1.103266 0
M  V30 17 C -2.393370 5.157271 0.215389 0
M  V30 18 C -3.601068 4.668554 0.966873 0
M  V30 19 N -4.757860 4.845883 0.107926 0
M  V30 20 C -4.618838 3.827216 -0.940289 0
M  V30 21 C -3.468481 4.181516 -1.836427 0
M  V30 22 C -1.584329 1.982654 -1.280483 0
M  V30 23 C -0.837753 -0.926330 -2.149209 0
M  V30 24 N -0.663752 -2.252685 -2.300679 0
M  V30 25 C 0.069069 -2.899663 -1.346299 0
M  V30 26 N 0.294461 -4.319772 -1.446474 0
M  V30 27 N 1.661460 -4.279892 0.732721 0
M  V30 28 C 2.411257 -4.591119 1.821788 0
M  V30 29 C 3.002536 -5.714063 2.396827 0
M  V30 30 H 3.666781 -8.800677 4.329450 0
M  V30 31 H 3.850336 -8.186472 2.688033 0
M  V30 32 H 5.343585 -8.579249 3.675272 0
M  V30 33 H 4.860794 -6.720372 5.019026 0
M  V30 34 H 4.457930 -4.356456 5.145754 0
M  V30 35 H 3.425070 -2.327220 4.164100 0
M  V30 36 H 0.859555 -0.367157 0.723979 0
M  V30 37 H 1.330000 1.779774 0.060281 0
M  V30 38 H -1.604486 5.158058 -1.738788 0
M  V30 39 H -2.514200 6.252531 0.084767 0
M  V30 40 H -1.479753 5.005409 0.824505 0
M  V30 41 H -3.675532 5.305396 1.872389 0
M  V30 42 H -3.551503 3.596183 1.231654 0
M  V30 43 H -5.666133 4.726937 0.594942 0
M  V30 44 H -5.549009 3.866132 -1.544060 0
M  V30 45 H -4.511548 2.817978 -0.513869 0
M  V30 46 H -3.808421 5.039597 -2.464155 0
M  V30 47 H -3.295014 3.331053 -2.525221 0
M  V30 48 H -2.478284 1.632429 -1.768264 0
M  V30 49 H -1.421165 -0.367952 -2.895049 0
M  V30 50 H 1.066755 -4.994182 -1.629967 0
M  V30 51 H -0.594051 -4.873737 -1.285996 0
M  V30 52 H 2.842142 -6.627769 1.846499 0
M  V30 END ATOM
M  V30 BEGIN BOND
M  V30 1 1 1 2
M  V30 2 1 2 3
M  V30 3 2 3 4
M  V30 4 1 4 5
M  V30 5 2 5 6
M  V30 6 1 6 7
M  V30 7 1 7 8
M  V30 8 1 8 9
M  V30 9 2 9 10
M  V30 10 1 10 11
M  V30 11 1 11 12
M  V30 12 1 12 13
M  V30 13 2 13 14
M  V30 14 1 14 15
M  V30 15 1 15 16
M  V30 16 1 16 17
M  V30 17 1 17 18
M  V30 18 1 18 19
M  V30 19 1 19 20
M  V30 20 1 20 21
M  V30 21 1 15 22
M  V30 22 2 11 23
M  V30 23 1 23 24
M  V30 24 2 24 25
M  V30 25 1 25 26
M  V30 26 2 8 27
M  V30 27 1 27 28
M  V30 28 2 28 29
M  V30 29 1 29 3
M  V30 30 1 28 6
M  V30 31 1 25 9
M  V30 32 2 22 12
M  V30 33 1 21 16
M  V30 34 1 1 30
M  V30 35 1 1 31
M  V30 36 1 1 32
M  V30 37 1 2 33
M  V30 38 1 4 34
M  V30 39 1 5 35
M  V30 40 1 10 36
M  V30 41 1 13 37
M  V30 42 1 16 38
M  V30 43 1 17 39
M  V30 44 1 17 40
M  V30 45 1 18 41
M  V30 46 1 18 42
M  V30 47 1 19 43
M  V30 48 1 20 44
M  V30 49 1 20 45
M  V30 50 1 21 46
M  V30 51 1 21 47
M  V30 52 1 22 48
M  V30 53 1 23 49
M  V30 54 1 26 50
M  V30 55 1 26 51
M  V30 56 1 29 52
M  V30 END BOND
M  V30 END CTAB
M  END
>  <Dataset>  (805) 
ChEMBL_Kinases

>  <Ligand_Instance>  (805) 
nan

>  <PDB_ID>  (805) 
nan

>  <Standardized_SMILES>  (805) 
CNc1ccc2oc(-c3cc(-c4cnn(C5CCNCC5)c4)cnc3N)nc2c1

>  <Name>  (805) 
nan

>  <Pocket>  (805) 
nan

>  <ATP_Site>  (805) 
nan

>  <Peripheral>  (805) 
nan

>  <Num_H_Atoms_ProtBoundConf>  (805) 
nan

>  <Num_Resolved_Atoms>  (805) 
nan

>  <Num_Not_Resolved_Atoms>  (805) 
nan

$$$$
CHEMBL575263
     RDKit          3D

  0  0  0  0  0  0  0  0  0  0999 V3000
M  V30 BEGIN CTAB
M  V30 COUNTS 38 41 0 0 0
M  V30 BEGIN ATOM
M  V30 1 C -0.814870 -3.727939 1.936781 0
M  V30 2 N 0.126714 -3.872524 2.995711 0
M  V30 3 C 0.979190 -5.020130 2.919357 0
M  V30 4 C 0.772695 -2.681486 3.433061 0
M  V30 5 C 1.559211 -1.982442 2.371625 0
M  V30 6 N 0.914209 -1.071951 1.665549 0
M  V30 7 C 1.459665 -0.351549 0.683151 0
M  V30 8 C 2.843565 -0.726834 0.525060 0
M  V30 9 S 3.439154 0.372127 -0.875109 0
M  V30 10 C 1.760199 1.221639 -1.099045 0
M  V30 11 C 1.448858 2.203725 -2.005224 0
M  V30 12 C 0.149557 2.646173 -1.943603 0
M  V30 13 C -0.669805 2.072529 -1.008838 0
M  V30 14 C -2.064193 2.567348 -0.929385 0
M  V30 15 C -2.308222 3.872979 -1.205801 0
M  V30 16 C -3.675317 4.301771 -1.115522 0
M  V30 17 S -4.643670 2.756235 -0.612063 0
M  V30 18 C -3.134693 1.656511 -0.562466 0
M  V30 19 C -0.309548 1.101827 -0.135068 0
M  V30 20 C 0.965885 0.605133 -0.129379 0
M  V30 21 C 3.561599 -1.713905 1.282738 0
M  V30 22 O 4.738204 -1.819349 0.921717 0
M  V30 23 N 2.840519 -2.320396 2.215144 0
M  V30 24 H -0.460796 -4.198395 0.978623 0
M  V30 25 H -1.718350 -4.349860 2.206809 0
M  V30 26 H -1.071001 -2.681791 1.738978 0
M  V30 27 H 0.352580 -5.924228 3.130411 0
M  V30 28 H 1.457974 -5.173231 1.938158 0
M  V30 29 H 1.690960 -4.949780 3.771125 0
M  V30 30 H -0.002651 -2.015766 3.864395 0
M  V30 31 H 1.442913 -2.930508 4.279920 0
M  V30 32 H 2.248782 2.511689 -2.653664 0
M  V30 33 H -0.118614 3.420908 -2.648636 0
M  V30 34 H -1.609259 4.631485 -1.483823 0
M  V30 35 H -4.019051 5.409664 -1.329553 0
M  V30 36 H -2.968943 0.627206 -0.341184 0
M  V30 37 H -1.069042 0.740115 0.553882 0
M  V30 38 H 3.380311 -3.028133 2.748350 0
M  V30 END ATOM
M  V30 BEGIN BOND
M  V30 1 1 1 2
M  V30 2 1 2 3
M  V30 3 1 2 4
M  V30 4 1 4 5
M  V30 5 2 5 6
M  V30 6 1 6 7
M  V30 7 2 7 8
M  V30 8 1 8 9
M  V30 9 1 9 10
M  V30 10 2 10 11
M  V30 11 1 11 12
M  V30 12 2 12 13
M  V30 13 1 13 14
M  V30 14 1 14 15
M  V30 15 2 15 16
M  V30 16 1 16 17
M  V30 17 1 17 18
M  V30 18 1 13 19
M  V30 19 2 19 20
M  V30 20 1 8 21
M  V30 21 2 21 22
M  V30 22 1 21 23
M  V30 23 1 23 5
M  V30 24 1 20 7
M  V30 25 1 20 10
M  V30 26 2 18 14
M  V30 27 1 1 24
M  V30 28 1 1 25
M  V30 29 1 1 26
M  V30 30 1 3 27
M  V30 31 1 3 28
M  V30 32 1 3 29
M  V30 33 1 4 30
M  V30 34 1 4 31
M  V30 35 1 11 32
M  V30 36 1 12 33
M  V30 37 1 15 34
M  V30 38 1 16 35
M  V30 39 1 18 36
M  V30 40 1 19 37
M  V30 41 1 23 38
M  V30 END BOND
M  V30 END CTAB
M  END
>  <Dataset>  (806) 
ChEMBL_Kinases

>  <Ligand_Instance>  (806) 
nan

>  <PDB_ID>  (806) 
nan

>  <Standardized_SMILES>  (806) 
CN(C)Cc1nc2c(sc3ccc(-c4ccsc4)cc32)c(=O)[nH]1

>  <Name>  (806) 
nan

>  <Pocket>  (806) 
nan

>  <ATP_Site>  (806) 
nan

>  <Peripheral>  (806) 
nan

>  <Num_H_Atoms_ProtBoundConf>  (806) 
nan

>  <Num_Resolved_Atoms>  (806) 
nan

>  <Num_Not_Resolved_Atoms>  (806) 
nan

$$$$
CHEMBL575264
     RDKit          3D

  0  0  0  0  0  0  0  0  0  0999 V3000
M  V30 BEGIN CTAB
M  V30 COUNTS 43 47 0 0 0
M  V30 BEGIN ATOM
M  V30 1 O 0.256720 1.940635 5.288266 0
M  V30 2 C 0.419525 1.293776 4.221968 0
M  V30 3 N 1.415797 1.472324 3.341861 0
M  V30 4 C 1.409340 0.675175 2.261550 0
M  V30 5 C 2.495333 0.831205 1.247158 0
M  V30 6 N 2.097602 1.795288 0.238300 0
M  V30 7 C 2.975110 2.110375 -0.835208 0
M  V30 8 C 2.581372 3.036631 -1.795996 0
M  V30 9 C 3.495256 3.277223 -2.795534 0
M  V30 10 C 4.732023 2.680038 -2.901577 0
M  V30 11 C 5.094923 1.766272 -1.934957 0
M  V30 12 O 6.309375 1.110987 -1.946173 0
M  V30 13 C 4.208372 1.495328 -0.914532 0
M  V30 14 N 0.501367 -0.263534 2.004989 0
M  V30 15 C -0.537323 -0.528239 2.815459 0
M  V30 16 C -0.523773 0.301902 3.932785 0
M  V30 17 S -1.990868 -0.205744 4.894034 0
M  V30 18 C -2.496137 -1.467085 3.742623 0
M  V30 19 C -3.554442 -2.307290 3.789018 0
M  V30 20 C -3.778158 -3.223765 2.790611 0
M  V30 21 C -2.845340 -3.197083 1.775430 0
M  V30 22 C -3.053003 -4.166084 0.680848 0
M  V30 23 C -1.991972 -4.697596 -0.000012 0
M  V30 24 C -2.319036 -5.633993 -1.055130 0
M  V30 25 S -4.188907 -5.733832 -1.046991 0
M  V30 26 C -4.364807 -4.587056 0.283091 0
M  V30 27 C -1.777894 -2.347804 1.731102 0
M  V30 28 C -1.561233 -1.430487 2.738666 0
M  V30 29 H 2.117820 2.200210 3.543079 0
M  V30 30 H 2.746661 -0.157593 0.847847 0
M  V30 31 H 3.403580 1.187842 1.805371 0
M  V30 32 H 1.164217 2.257218 0.303384 0
M  V30 33 H 1.621293 3.535044 -1.760518 0
M  V30 34 H 3.243694 3.984161 -3.564933 0
M  V30 35 H 5.418444 2.900712 -3.706405 0
M  V30 36 H 6.460606 0.348301 -2.567018 0
M  V30 37 H 4.491209 0.781646 -0.158907 0
M  V30 38 H -4.220693 -2.235701 4.637637 0
M  V30 39 H -4.633907 -3.877319 2.863004 0
M  V30 40 H -0.957108 -4.480651 0.181464 0
M  V30 41 H -1.521028 -6.133706 -1.681994 0
M  V30 42 H -5.247498 -4.237099 0.743392 0
M  V30 43 H -1.121543 -2.450014 0.851737 0
M  V30 END ATOM
M  V30 BEGIN BOND
M  V30 1 2 1 2
M  V30 2 1 2 3
M  V30 3 1 3 4
M  V30 4 1 4 5
M  V30 5 1 5 6
M  V30 6 1 6 7
M  V30 7 2 7 8
M  V30 8 1 8 9
M  V30 9 2 9 10
M  V30 10 1 10 11
M  V30 11 1 11 12
M  V30 12 2 11 13
M  V30 13 2 4 14
M  V30 14 1 14 15
M  V30 15 2 15 16
M  V30 16 1 16 17
M  V30 17 1 17 18
M  V30 18 2 18 19
M  V30 19 1 19 20
M  V30 20 2 20 21
M  V30 21 1 21 22
M  V30 22 1 22 23
M  V30 23 2 23 24
M  V30 24 1 24 25
M  V30 25 1 25 26
M  V30 26 1 21 27
M  V30 27 2 27 28
M  V30 28 1 16 2
M  V30 29 1 28 18
M  V30 30 1 13 7
M  V30 31 1 28 15
M  V30 32 2 26 22
M  V30 33 1 3 29
M  V30 34 1 5 30
M  V30 35 1 5 31
M  V30 36 1 6 32
M  V30 37 1 8 33
M  V30 38 1 9 34
M  V30 39 1 10 35
M  V30 40 1 12 36
M  V30 41 1 13 37
M  V30 42 1 19 38
M  V30 43 1 20 39
M  V30 44 1 23 40
M  V30 45 1 24 41
M  V30 46 1 26 42
M  V30 47 1 27 43
M  V30 END BOND
M  V30 END CTAB
M  END
>  <Dataset>  (807) 
ChEMBL_Kinases

>  <Ligand_Instance>  (807) 
nan

>  <PDB_ID>  (807) 
nan

>  <Standardized_SMILES>  (807) 
O=c1[nH]c(CNc2cccc(O)c2)nc2c1sc1ccc(-c3ccsc3)cc12

>  <Name>  (807) 
nan

>  <Pocket>  (807) 
nan

>  <ATP_Site>  (807) 
nan

>  <Peripheral>  (807) 
nan

>  <Num_H_Atoms_ProtBoundConf>  (807) 
nan

>  <Num_Resolved_Atoms>  (807) 
nan

>  <Num_Not_Resolved_Atoms>  (807) 
nan

$$$$
CHEMBL1096492
     RDKit          3D

  0  0  0  0  0  0  0  0  0  0999 V3000
M  V30 BEGIN CTAB
M  V30 COUNTS 71 75 0 0 0
M  V30 BEGIN ATOM
M  V30 1 C -0.251322 -4.634748 6.867887 0
M  V30 2 C -1.449956 -4.919425 5.995912 0
M  V30 3 N -1.361041 -4.390385 4.672501 0
M  V30 4 C -0.879737 -4.909826 3.540570 0
M  V30 5 C -0.984820 -4.044617 2.445592 0
M  V30 6 C -0.525668 -4.490765 1.164806 0
M  V30 7 C -1.045275 -5.726561 0.737763 0
M  V30 8 C -0.710480 -6.340274 -0.462727 0
M  V30 9 N 0.160870 -5.705155 -1.251343 0
M  V30 10 C 0.691389 -4.521370 -0.899107 0
M  V30 11 N 1.565001 -3.720852 -1.533574 0
M  V30 12 C 1.770203 -2.625640 -0.744563 0
M  V30 13 C 2.692599 -1.565137 -1.165926 0
M  V30 14 N 2.096023 -0.640056 -2.082526 0
M  V30 15 C 0.907498 0.006946 -1.622705 0
M  V30 16 C 0.410401 0.910484 -2.740632 0
M  V30 17 S 0.060138 -0.031386 -4.209356 0
M  V30 18 C 1.478108 -0.871670 -4.809568 0
M  V30 19 O -1.058660 -0.995530 -3.934720 0
M  V30 20 O -0.421139 0.938559 -5.252307 0
M  V30 21 C 1.013602 -2.725262 0.421984 0
M  V30 22 C 0.362024 -3.910936 0.287908 0
M  V30 23 C -1.574502 -2.956139 3.031173 0
M  V30 24 C -1.906645 -1.715855 2.355137 0
M  V30 25 C -1.391094 -0.603293 3.044421 0
M  V30 26 C -1.562333 0.706514 2.635594 0
M  V30 27 C -2.283049 0.936611 1.479869 0
M  V30 28 N -2.455170 2.294519 1.100234 0
M  V30 29 C -1.613852 3.145084 0.330251 0
M  V30 30 O -0.505516 2.822492 -0.169313 0
M  V30 31 N -1.945017 4.494510 0.032637 0
M  V30 32 C -0.881437 5.045430 -0.753528 0
M  V30 33 C 0.197742 5.672070 -0.170104 0
M  V30 34 C 1.234377 6.205762 -0.922778 0
M  V30 35 C 1.183156 6.105920 -2.300271 0
M  V30 36 C 0.099646 5.477838 -2.866765 0
M  V30 37 C -0.943648 4.938986 -2.142464 0
M  V30 38 C -2.792538 -0.147024 0.794911 0
M  V30 39 C -2.618114 -1.450512 1.208773 0
M  V30 40 N -1.791466 -3.181264 4.358081 0
M  V30 41 H 0.559104 -5.389887 6.684535 0
M  V30 42 H 0.209104 -3.658603 6.702710 0
M  V30 43 H -0.559480 -4.783673 7.922648 0
M  V30 44 H -2.397001 -4.570099 6.459768 0
M  V30 45 H -1.555533 -6.041614 5.976787 0
M  V30 46 H -0.470407 -5.920502 3.593420 0
M  V30 47 H -1.755439 -6.276168 1.346414 0
M  V30 48 H -1.142399 -7.289923 -0.736211 0
M  V30 49 H 1.986342 -3.936959 -2.462589 0
M  V30 50 H 3.110717 -0.997677 -0.283401 0
M  V30 51 H 3.567751 -2.011941 -1.651836 0
M  V30 52 H 2.797481 0.105752 -2.292806 0
M  V30 53 H 1.148869 0.680652 -0.767443 0
M  V30 54 H 0.140187 -0.685660 -1.259792 0
M  V30 55 H 1.188342 1.647473 -2.945103 0
M  V30 56 H -0.549793 1.393411 -2.471180 0
M  V30 57 H 1.326035 -1.156004 -5.873739 0
M  V30 58 H 2.385851 -0.259834 -4.740999 0
M  V30 59 H 1.634765 -1.821020 -4.248570 0
M  V30 60 H 0.953787 -2.028466 1.243525 0
M  V30 61 H -0.803187 -0.685566 3.975049 0
M  V30 62 H -1.151931 1.538439 3.191194 0
M  V30 63 H -3.338855 2.743514 1.438524 0
M  V30 64 H -2.842649 4.909116 0.382475 0
M  V30 65 H 0.274539 5.770633 0.913519 0
M  V30 66 H 2.070876 6.691836 -0.460199 0
M  V30 67 H 1.958264 6.499555 -2.958578 0
M  V30 68 H 0.058986 5.398664 -3.954972 0
M  V30 69 H -1.805889 4.440905 -2.558870 0
M  V30 70 H -3.351132 0.024063 -0.101288 0
M  V30 71 H -2.980330 -2.337887 0.734885 0
M  V30 END ATOM
M  V30 BEGIN BOND
M  V30 1 1 1 2
M  V30 2 1 2 3
M  V30 3 1 3 4
M  V30 4 2 4 5
M  V30 5 1 5 6
M  V30 6 2 6 7
M  V30 7 1 7 8
M  V30 8 2 8 9
M  V30 9 1 9 10
M  V30 10 1 10 11
M  V30 11 1 11 12
M  V30 12 1 12 13
M  V30 13 1 13 14
M  V30 14 1 14 15
M  V30 15 1 15 16
M  V30 16 1 16 17
M  V30 17 1 17 18
M  V30 18 2 17 19
M  V30 19 2 17 20
M  V30 20 2 12 21
M  V30 21 1 21 22
M  V30 22 1 5 23
M  V30 23 1 23 24
M  V30 24 2 24 25
M  V30 25 1 25 26
M  V30 26 2 26 27
M  V30 27 1 27 28
M  V30 28 1 28 29
M  V30 29 2 29 30
M  V30 30 1 29 31
M  V30 31 1 31 32
M  V30 32 2 32 33
M  V30 33 1 33 34
M  V30 34 2 34 35
M  V30 35 1 35 36
M  V30 36 2 36 37
M  V30 37 1 27 38
M  V30 38 2 38 39
M  V30 39 2 23 40
M  V30 40 1 40 3
M  V30 41 1 22 6
M  V30 42 1 39 24
M  V30 43 2 22 10
M  V30 44 1 37 32
M  V30 45 1 1 41
M  V30 46 1 1 42
M  V30 47 1 1 43
M  V30 48 1 2 44
M  V30 49 1 2 45
M  V30 50 1 4 46
M  V30 51 1 7 47
M  V30 52 1 8 48
M  V30 53 1 11 49
M  V30 54 1 13 50
M  V30 55 1 13 51
M  V30 56 1 14 52
M  V30 57 1 15 53
M  V30 58 1 15 54
M  V30 59 1 16 55
M  V30 60 1 16 56
M  V30 61 1 18 57
M  V30 62 1 18 58
M  V30 63 1 18 59
M  V30 64 1 21 60
M  V30 65 1 25 61
M  V30 66 1 26 62
M  V30 67 1 28 63
M  V30 68 1 31 64
M  V30 69 1 33 65
M  V30 70 1 34 66
M  V30 71 1 35 67
M  V30 72 1 36 68
M  V30 73 1 37 69
M  V30 74 1 38 70
M  V30 75 1 39 71
M  V30 END BOND
M  V30 END CTAB
M  END
>  <Dataset>  (808) 
ChEMBL_Kinases

>  <Ligand_Instance>  (808) 
nan

>  <PDB_ID>  (808) 
nan

>  <Standardized_SMILES>  (808) 
CCn1cc(-c2ccnc3[nH]c(CNCCS(C)(=O)=O)cc23)c(-c2ccc(NC(=O)Nc3ccccc3)cc2)n1

>  <Name>  (808) 
nan

>  <Pocket>  (808) 
nan

>  <ATP_Site>  (808) 
nan

>  <Peripheral>  (808) 
nan

>  <Num_H_Atoms_ProtBoundConf>  (808) 
nan

>  <Num_Resolved_Atoms>  (808) 
nan

>  <Num_Not_Resolved_Atoms>  (808) 
nan

$$$$
CHEMBL2064539
     RDKit          3D

  0  0  0  0  0  0  0  0  0  0999 V3000
M  V30 BEGIN CTAB
M  V30 COUNTS 55 59 0 0 0
M  V30 BEGIN ATOM
M  V30 1 C 4.961372 -2.841783 2.539519 0
M  V30 2 O 4.764748 -1.765147 1.710210 0
M  V30 3 C 3.558286 -1.130636 1.830932 0
M  V30 4 C 3.396549 -0.605783 3.230115 0 CFG=1
M  V30 5 C 4.494025 0.340607 3.589023 0
M  V30 6 O 4.284988 1.606586 3.030256 0
M  V30 7 C 3.121598 2.050655 2.432434 0
M  V30 8 C 3.034151 3.238160 1.730755 0
M  V30 9 C 1.863489 3.666355 1.139883 0
M  V30 10 C 0.755552 2.851778 1.274756 0
M  V30 11 C -0.522295 3.237726 0.674347 0
M  V30 12 N -0.782872 4.348905 -0.037099 0
M  V30 13 N -2.064297 4.323314 -0.403959 0
M  V30 14 C -2.602349 3.178177 0.089103 0
M  V30 15 S -4.326132 2.818154 -0.218885 0
M  V30 16 C -4.814097 1.241998 0.536167 0
M  V30 17 C -4.155325 0.073903 -0.072227 0
M  V30 18 C -2.961782 -0.465734 0.349989 0
M  V30 19 C -2.324362 -1.556608 -0.202677 0
M  V30 20 C -2.948717 -2.167083 -1.288935 0
M  V30 21 C -2.379120 -3.329682 -1.963514 0
M  V30 22 C -2.298728 -3.467270 -3.332163 0
M  V30 23 C -1.774715 -4.533693 -3.999403 0
M  V30 24 C -1.276661 -5.575812 -3.238682 0
M  V30 25 C -1.326547 -5.501367 -1.855146 0
M  V30 26 C -1.877841 -4.377995 -1.226999 0
M  V30 27 C -1.885617 -4.393155 0.204191 0
M  V30 28 N -1.909241 -4.410809 1.362293 0
M  V30 29 C -4.165038 -1.654057 -1.754900 0
M  V30 30 C -4.768048 -0.542536 -1.154998 0
M  V30 31 O -1.650881 2.568121 0.720372 0
M  V30 32 C 0.825524 1.661343 1.972929 0
M  V30 33 C 2.016744 1.236783 2.567758 0
M  V30 34 O 2.129514 0.049576 3.276796 0
M  V30 35 H 5.989683 -3.264833 2.318361 0
M  V30 36 H 4.196275 -3.630934 2.421592 0
M  V30 37 H 4.966993 -2.518472 3.602849 0
M  V30 38 H 2.745674 -1.881041 1.665038 0
M  V30 39 H 3.422969 -0.310939 1.110690 0
M  V30 40 H 3.302661 -1.445970 3.955793 0
M  V30 41 H 4.653279 0.363255 4.701655 0
M  V30 42 H 5.440355 -0.111525 3.168225 0
M  V30 43 H 3.936105 3.853769 1.647990 0
M  V30 44 H 1.785764 4.601174 0.584967 0
M  V30 45 H -5.893455 1.113295 0.586767 0
M  V30 46 H -4.455095 1.265689 1.607741 0
M  V30 47 H -2.457312 -0.012003 1.190885 0
M  V30 48 H -1.395607 -1.933267 0.167399 0
M  V30 49 H -2.685010 -2.658664 -3.951933 0
M  V30 50 H -1.751397 -4.559348 -5.091393 0
M  V30 51 H -0.855042 -6.434358 -3.752143 0
M  V30 52 H -0.927593 -6.335712 -1.295301 0
M  V30 53 H -4.701434 -2.086992 -2.599215 0
M  V30 54 H -5.712882 -0.148798 -1.521612 0
M  V30 55 H -0.051723 1.021748 2.076649 0
M  V30 END ATOM
M  V30 BEGIN BOND
M  V30 1 1 1 2
M  V30 2 1 2 3
M  V30 3 1 3 4
M  V30 4 1 4 5
M  V30 5 1 5 6
M  V30 6 1 6 7
M  V30 7 2 7 8
M  V30 8 1 8 9
M  V30 9 2 9 10
M  V30 10 1 10 11
M  V30 11 2 11 12
M  V30 12 1 12 13
M  V30 13 2 13 14
M  V30 14 1 14 15
M  V30 15 1 15 16
M  V30 16 1 16 17
M  V30 17 2 17 18
M  V30 18 1 18 19
M  V30 19 2 19 20
M  V30 20 1 20 21
M  V30 21 2 21 22
M  V30 22 1 22 23
M  V30 23 2 23 24
M  V30 24 1 24 25
M  V30 25 2 25 26
M  V30 26 1 26 27
M  V30 27 3 27 28
M  V30 28 1 20 29
M  V30 29 2 29 30
M  V30 30 1 14 31
M  V30 31 1 10 32
M  V30 32 2 32 33
M  V30 33 1 33 34
M  V30 34 1 34 4
M  V30 35 1 33 7
M  V30 36 1 31 11
M  V30 37 1 30 17
M  V30 38 1 26 21
M  V30 39 1 1 35
M  V30 40 1 1 36
M  V30 41 1 1 37
M  V30 42 1 3 38
M  V30 43 1 3 39
M  V30 44 1 4 40 CFG=1
M  V30 45 1 5 41
M  V30 46 1 5 42
M  V30 47 1 8 43
M  V30 48 1 9 44
M  V30 49 1 16 45
M  V30 50 1 16 46
M  V30 51 1 18 47
M  V30 52 1 19 48
M  V30 53 1 22 49
M  V30 54 1 23 50
M  V30 55 1 24 51
M  V30 56 1 25 52
M  V30 57 1 29 53
M  V30 58 1 30 54
M  V30 59 1 32 55
M  V30 END BOND
M  V30 END CTAB
M  END
>  <Dataset>  (809) 
ChEMBL_Kinases

>  <Ligand_Instance>  (809) 
nan

>  <PDB_ID>  (809) 
nan

>  <Standardized_SMILES>  (809) 
COC[C@H]1COc2ccc(-c3nnc(SCc4ccc(-c5ccccc5C#N)cc4)o3)cc2O1

>  <Name>  (809) 
nan

>  <Pocket>  (809) 
nan

>  <ATP_Site>  (809) 
nan

>  <Peripheral>  (809) 
nan

>  <Num_H_Atoms_ProtBoundConf>  (809) 
nan

>  <Num_Resolved_Atoms>  (809) 
nan

>  <Num_Not_Resolved_Atoms>  (809) 
nan

$$$$
CHEMBL2064538
     RDKit          3D

  0  0  0  0  0  0  0  0  0  0999 V3000
M  V30 BEGIN CTAB
M  V30 COUNTS 55 59 0 0 0
M  V30 BEGIN ATOM
M  V30 1 C 4.527489 -3.055775 3.418963 0
M  V30 2 O 4.361766 -2.078803 4.368928 0
M  V30 3 C 3.275837 -1.267913 4.118007 0
M  V30 4 C 3.438268 -0.547615 2.806135 0 CFG=2
M  V30 5 C 4.704822 0.279219 2.879422 0
M  V30 6 O 4.805617 1.229352 1.843059 0
M  V30 7 C 3.658721 1.715512 1.239806 0
M  V30 8 C 3.685326 2.697530 0.251317 0
M  V30 9 C 2.512282 3.173913 -0.344773 0
M  V30 10 C 1.284419 2.675874 0.037126 0
M  V30 11 C 0.040286 3.146493 -0.561055 0
M  V30 12 N -0.125414 4.078533 -1.515826 0
M  V30 13 N -1.435103 4.208827 -1.778363 0
M  V30 14 C -2.089785 3.332661 -0.962160 0
M  V30 15 S -3.864834 3.159034 -0.965516 0
M  V30 16 C -4.422750 1.927853 0.218034 0
M  V30 17 C -3.981694 0.572667 -0.157352 0
M  V30 18 C -2.815161 -0.026595 0.259001 0
M  V30 19 C -2.364851 -1.286152 -0.070748 0
M  V30 20 C -3.185528 -2.037083 -0.922589 0
M  V30 21 C -2.827296 -3.366242 -1.339287 0
M  V30 22 C -2.928513 -3.795586 -2.648507 0
M  V30 23 C -2.594399 -5.062605 -3.092721 0
M  V30 24 C -2.122480 -5.969773 -2.153148 0
M  V30 25 C -2.008492 -5.565118 -0.818583 0
M  V30 26 C -2.352936 -4.281899 -0.401416 0
M  V30 27 C -2.201705 -3.964363 0.989953 0
M  V30 28 N -2.090665 -3.717823 2.100497 0
M  V30 29 C -4.389804 -1.492373 -1.387463 0
M  V30 30 C -4.764112 -0.203132 -0.998066 0
M  V30 31 O -1.156660 2.753663 -0.285642 0
M  V30 32 C 1.224549 1.701220 1.014990 0
M  V30 33 C 2.408169 1.280784 1.555697 0
M  V30 34 O 2.315612 0.292744 2.543746 0
M  V30 35 H 3.611576 -3.689016 3.379953 0
M  V30 36 H 4.832968 -2.646038 2.457419 0
M  V30 37 H 5.387698 -3.698321 3.787333 0
M  V30 38 H 2.323659 -1.853321 4.145041 0
M  V30 39 H 3.264469 -0.494855 4.941007 0
M  V30 40 H 3.481998 -1.269788 1.976830 0
M  V30 41 H 5.560870 -0.406982 2.813378 0
M  V30 42 H 4.692579 0.795794 3.884214 0
M  V30 43 H 4.661377 3.095559 -0.054664 0
M  V30 44 H 2.556323 3.931540 -1.105446 0
M  V30 45 H -3.876547 2.158881 1.180820 0
M  V30 46 H -5.517664 1.996409 0.375289 0
M  V30 47 H -2.160098 0.520934 0.919568 0
M  V30 48 H -1.430869 -1.683507 0.300518 0
M  V30 49 H -3.292507 -3.121155 -3.418005 0
M  V30 50 H -2.689054 -5.358341 -4.128900 0
M  V30 51 H -1.834809 -6.986326 -2.403792 0
M  V30 52 H -1.637173 -6.287972 -0.095793 0
M  V30 53 H -5.071976 -2.010931 -2.045201 0
M  V30 54 H -5.692200 0.237726 -1.346394 0
M  V30 55 H 0.253480 1.321743 1.302608 0
M  V30 END ATOM
M  V30 BEGIN BOND
M  V30 1 1 1 2
M  V30 2 1 2 3
M  V30 3 1 3 4
M  V30 4 1 4 5
M  V30 5 1 5 6
M  V30 6 1 6 7
M  V30 7 2 7 8
M  V30 8 1 8 9
M  V30 9 2 9 10
M  V30 10 1 10 11
M  V30 11 2 11 12
M  V30 12 1 12 13
M  V30 13 2 13 14
M  V30 14 1 14 15
M  V30 15 1 15 16
M  V30 16 1 16 17
M  V30 17 2 17 18
M  V30 18 1 18 19
M  V30 19 2 19 20
M  V30 20 1 20 21
M  V30 21 2 21 22
M  V30 22 1 22 23
M  V30 23 2 23 24
M  V30 24 1 24 25
M  V30 25 2 25 26
M  V30 26 1 26 27
M  V30 27 3 27 28
M  V30 28 1 20 29
M  V30 29 2 29 30
M  V30 30 1 14 31
M  V30 31 1 10 32
M  V30 32 2 32 33
M  V30 33 1 33 34
M  V30 34 1 34 4
M  V30 35 1 33 7
M  V30 36 1 31 11
M  V30 37 1 30 17
M  V30 38 1 26 21
M  V30 39 1 1 35
M  V30 40 1 1 36
M  V30 41 1 1 37
M  V30 42 1 3 38
M  V30 43 1 3 39
M  V30 44 1 4 40 CFG=3
M  V30 45 1 5 41
M  V30 46 1 5 42
M  V30 47 1 8 43
M  V30 48 1 9 44
M  V30 49 1 16 45
M  V30 50 1 16 46
M  V30 51 1 18 47
M  V30 52 1 19 48
M  V30 53 1 22 49
M  V30 54 1 23 50
M  V30 55 1 24 51
M  V30 56 1 25 52
M  V30 57 1 29 53
M  V30 58 1 30 54
M  V30 59 1 32 55
M  V30 END BOND
M  V30 END CTAB
M  END
>  <Dataset>  (810) 
ChEMBL_Kinases

>  <Ligand_Instance>  (810) 
nan

>  <PDB_ID>  (810) 
nan

>  <Standardized_SMILES>  (810) 
COC[C@@H]1COc2ccc(-c3nnc(SCc4ccc(-c5ccccc5C#N)cc4)o3)cc2O1

>  <Name>  (810) 
nan

>  <Pocket>  (810) 
nan

>  <ATP_Site>  (810) 
nan

>  <Peripheral>  (810) 
nan

>  <Num_H_Atoms_ProtBoundConf>  (810) 
nan

>  <Num_Resolved_Atoms>  (810) 
nan

>  <Num_Not_Resolved_Atoms>  (810) 
nan

$$$$
CHEMBL2063462
     RDKit          3D

  0  0  0  0  0  0  0  0  0  0999 V3000
M  V30 BEGIN CTAB
M  V30 COUNTS 49 52 0 0 0
M  V30 BEGIN ATOM
M  V30 1 N 1.034188 -1.459177 2.793127 0
M  V30 2 C 2.278135 -1.994720 3.164661 0
M  V30 3 N 2.304726 -3.011474 4.047118 0
M  V30 4 C 3.500527 -3.522983 4.422993 0
M  V30 5 N 4.615887 -2.977115 3.884683 0
M  V30 6 N 4.578046 -1.980430 3.020461 0
M  V30 7 C 5.651077 -1.396822 2.446357 0
M  V30 8 C 5.103429 -0.409520 1.613850 0
M  V30 9 C 3.706544 -0.435911 1.719151 0
M  V30 10 C 2.688674 0.372699 1.057409 0
M  V30 11 O 2.844115 0.024278 -0.157735 0
M  V30 12 N 1.825352 1.279939 1.739523 0
M  V30 13 C 0.904305 1.967156 0.906969 0
M  V30 14 C 0.474616 3.233360 1.309136 0
M  V30 15 C -0.440694 3.938760 0.517625 0
M  V30 16 C -0.931737 3.412145 -0.654607 0
M  V30 17 C -0.530694 2.164160 -1.082756 0
M  V30 18 C -0.976206 1.505809 -2.324223 0
M  V30 19 N -2.204536 0.776959 -2.209684 0
M  V30 20 C -2.500337 -0.457592 -1.583713 0
M  V30 21 O -1.547653 -1.046520 -0.982534 0
M  V30 22 N -3.771741 -1.083356 -1.578429 0
M  V30 23 C -3.699204 -2.304980 -0.830894 0
M  V30 24 C -4.180018 -2.137211 0.446567 0
M  V30 25 C -4.194305 -3.176321 1.340510 0
M  V30 26 C -3.719666 -4.420618 0.970055 0
M  V30 27 C -3.230843 -4.587346 -0.330760 0
M  V30 28 F -2.733481 -5.738585 -0.811835 0
M  V30 29 C -3.218742 -3.530332 -1.236218 0
M  V30 30 C 0.384567 1.486480 -0.268672 0
M  V30 31 C 3.413340 -1.450660 2.626125 0
M  V30 32 H 0.621463 -1.532747 1.844038 0
M  V30 33 H 0.155733 -0.927978 2.987413 0
M  V30 34 H 3.685069 -4.332382 5.112902 0
M  V30 35 H 6.715298 -1.478044 2.455631 0
M  V30 36 H 5.511311 0.345360 0.926913 0
M  V30 37 H 1.960984 1.322705 2.757632 0
M  V30 38 H 0.872321 3.632455 2.234926 0
M  V30 39 H -0.769026 4.936975 0.853699 0
M  V30 40 H -1.640343 3.949857 -1.270649 0
M  V30 41 H -0.178989 0.790579 -2.696797 0
M  V30 42 H -1.088191 2.206359 -3.191060 0
M  V30 43 H -3.079476 1.188865 -2.654144 0
M  V30 44 H -4.559207 -0.614840 -2.088693 0
M  V30 45 H -4.584080 -1.221830 0.878754 0
M  V30 46 H -4.556720 -3.112565 2.352859 0
M  V30 47 H -3.706847 -5.261350 1.633341 0
M  V30 48 H -2.871990 -3.544159 -2.252433 0
M  V30 49 H 0.677922 0.505216 -0.612994 0
M  V30 END ATOM
M  V30 BEGIN BOND
M  V30 1 1 1 2
M  V30 2 2 2 3
M  V30 3 1 3 4
M  V30 4 2 4 5
M  V30 5 1 5 6
M  V30 6 1 6 7
M  V30 7 2 7 8
M  V30 8 1 8 9
M  V30 9 1 9 10
M  V30 10 2 10 11
M  V30 11 1 10 12
M  V30 12 1 12 13
M  V30 13 2 13 14
M  V30 14 1 14 15
M  V30 15 2 15 16
M  V30 16 1 16 17
M  V30 17 1 17 18
M  V30 18 1 18 19
M  V30 19 1 19 20
M  V30 20 2 20 21
M  V30 21 1 20 22
M  V30 22 1 22 23
M  V30 23 2 23 24
M  V30 24 1 24 25
M  V30 25 2 25 26
M  V30 26 1 26 27
M  V30 27 1 27 28
M  V30 28 2 27 29
M  V30 29 2 17 30
M  V30 30 2 9 31
M  V30 31 1 31 2
M  V30 32 1 31 6
M  V30 33 1 30 13
M  V30 34 1 29 23
M  V30 35 1 1 32
M  V30 36 1 1 33
M  V30 37 1 4 34
M  V30 38 1 7 35
M  V30 39 1 8 36
M  V30 40 1 12 37
M  V30 41 1 14 38
M  V30 42 1 15 39
M  V30 43 1 16 40
M  V30 44 1 18 41
M  V30 45 1 18 42
M  V30 46 1 19 43
M  V30 47 1 22 44
M  V30 48 1 24 45
M  V30 49 1 25 46
M  V30 50 1 26 47
M  V30 51 1 29 48
M  V30 52 1 30 49
M  V30 END BOND
M  V30 END CTAB
M  END
>  <Dataset>  (811) 
ChEMBL_Kinases

>  <Ligand_Instance>  (811) 
nan

>  <PDB_ID>  (811) 
nan

>  <Standardized_SMILES>  (811) 
Nc1ncnn2ccc(C(=O)Nc3cccc(CNC(=O)Nc4cccc(F)c4)c3)c12

>  <Name>  (811) 
nan

>  <Pocket>  (811) 
nan

>  <ATP_Site>  (811) 
nan

>  <Peripheral>  (811) 
nan

>  <Num_H_Atoms_ProtBoundConf>  (811) 
nan

>  <Num_Resolved_Atoms>  (811) 
nan

>  <Num_Not_Resolved_Atoms>  (811) 
nan

$$$$
CHEMBL1096
     RDKit          3D

  0  0  0  0  0  0  0  0  0  0999 V3000
M  V30 BEGIN CTAB
M  V30 COUNTS 36 38 0 0 0
M  V30 BEGIN ATOM
M  V30 1 C 0.288214 -4.649835 2.908487 0
M  V30 2 C 1.591945 -4.238034 2.246396 0
M  V30 3 C 2.487833 -3.674835 3.328949 0
M  V30 4 C 1.303388 -3.203331 1.192205 0
M  V30 5 C 1.641222 -3.496801 -0.132954 0
M  V30 6 C 1.352899 -2.510438 -1.053770 0
M  V30 7 C 0.771105 -1.302071 -0.731635 0
M  V30 8 O 0.508759 -0.382713 -1.630426 0
M  V30 9 C -0.044443 0.769104 -1.332020 0
M  V30 10 N -0.292416 1.678976 -2.295584 0
M  V30 11 C -0.858310 2.864323 -2.010129 0
M  V30 12 N -1.049131 3.704486 -3.142116 0
M  V30 13 C -1.207627 3.195738 -0.717856 0
M  V30 14 C -1.817890 4.501125 -0.485397 0
M  V30 15 O -2.004651 5.270795 -1.446202 0
M  V30 16 O -2.200603 4.917029 0.783110 0
M  V30 17 C -0.982467 2.312003 0.317550 0
M  V30 18 C -0.399231 1.114311 -0.043533 0
M  V30 19 C -0.134172 0.164721 0.922343 0
M  V30 20 O -0.416213 0.368149 2.144568 0
M  V30 21 C 0.447876 -1.046148 0.605539 0
M  V30 22 C 0.720088 -2.006159 1.555101 0
M  V30 23 H 0.094581 -3.934966 3.739293 0
M  V30 24 H 0.424640 -5.658908 3.357255 0
M  V30 25 H -0.561143 -4.703326 2.187055 0
M  V30 26 H 2.056039 -5.109427 1.731610 0
M  V30 27 H 2.221819 -4.170685 4.287293 0
M  V30 28 H 3.568500 -3.781416 3.090269 0
M  V30 29 H 2.211951 -2.602672 3.449875 0
M  V30 30 H 2.097420 -4.443032 -0.389110 0
M  V30 31 H 1.588343 -2.669276 -2.104651 0
M  V30 32 H -0.890343 4.651872 -3.545950 0
M  V30 33 H -1.541197 3.336159 -3.989253 0
M  V30 34 H -1.994182 5.888341 1.067089 0
M  V30 35 H -1.248790 2.552035 1.338029 0
M  V30 36 H 0.479853 -1.831965 2.593552 0
M  V30 END ATOM
M  V30 BEGIN BOND
M  V30 1 1 1 2
M  V30 2 1 2 3
M  V30 3 1 2 4
M  V30 4 2 4 5
M  V30 5 1 5 6
M  V30 6 2 6 7
M  V30 7 1 7 8
M  V30 8 1 8 9
M  V30 9 2 9 10
M  V30 10 1 10 11
M  V30 11 1 11 12
M  V30 12 2 11 13
M  V30 13 1 13 14
M  V30 14 2 14 15
M  V30 15 1 14 16
M  V30 16 1 13 17
M  V30 17 2 17 18
M  V30 18 1 18 19
M  V30 19 2 19 20
M  V30 20 1 19 21
M  V30 21 2 21 22
M  V30 22 1 22 4
M  V30 23 1 21 7
M  V30 24 1 18 9
M  V30 25 1 1 23
M  V30 26 1 1 24
M  V30 27 1 1 25
M  V30 28 1 2 26
M  V30 29 1 3 27
M  V30 30 1 3 28
M  V30 31 1 3 29
M  V30 32 1 5 30
M  V30 33 1 6 31
M  V30 34 1 12 32
M  V30 35 1 12 33
M  V30 36 1 16 34
M  V30 37 1 17 35
M  V30 38 1 22 36
M  V30 END BOND
M  V30 END CTAB
M  END
>  <Dataset>  (812) 
ChEMBL_Kinases

>  <Ligand_Instance>  (812) 
nan

>  <PDB_ID>  (812) 
nan

>  <Standardized_SMILES>  (812) 
CC(C)c1ccc2oc3nc(N)c(C(=O)O)cc3c(=O)c2c1

>  <Name>  (812) 
AMLEXANOX

>  <Pocket>  (812) 
nan

>  <ATP_Site>  (812) 
nan

>  <Peripheral>  (812) 
nan

>  <Num_H_Atoms_ProtBoundConf>  (812) 
nan

>  <Num_Resolved_Atoms>  (812) 
nan

>  <Num_Not_Resolved_Atoms>  (812) 
nan

$$$$
CHEMBL4594432
     RDKit          3D

  0  0  0  0  0  0  0  0  0  0999 V3000
M  V30 BEGIN CTAB
M  V30 COUNTS 61 65 0 0 0
M  V30 BEGIN ATOM
M  V30 1 C 0.318884 0.649425 5.072633 0
M  V30 2 C 0.914496 -0.671947 5.560637 0
M  V30 3 C -0.141074 -1.261032 6.481678 0
M  V30 4 O 2.117198 -0.454787 6.185358 0
M  V30 5 C 1.049491 -1.609156 4.393940 0
M  V30 6 C 2.232463 -1.400440 3.690446 0
M  V30 7 C 2.464495 -2.219796 2.609240 0
M  V30 8 N 3.497600 -2.321098 1.632473 0
M  V30 9 C 3.428398 -1.203191 0.728373 0
M  V30 10 C 2.336338 -1.252322 -0.156432 0
M  V30 11 C 2.075373 -0.293313 -1.147073 0
M  V30 12 O 0.948761 -0.507735 -1.929471 0
M  V30 13 C -0.262646 0.113549 -1.665212 0
M  V30 14 C -0.677521 1.046336 -0.719229 0
M  V30 15 N -1.963980 1.298992 -0.920920 0
M  V30 16 C -2.663708 2.245116 -0.080968 0
M  V30 17 C -3.096167 1.836136 1.290126 0
M  V30 18 C -4.123864 1.959071 0.183733 0
M  V30 19 N -2.373708 0.575616 -1.939434 0
M  V30 20 C -1.387583 -0.171963 -2.443251 0
M  V30 21 C -1.675228 -1.060492 -3.570622 0
M  V30 22 C -2.250667 -2.381106 -3.022714 0
M  V30 23 C -2.831605 -3.197808 -4.145469 0
M  V30 24 O -2.242834 -2.850915 -5.340074 0
M  V30 25 C -0.879067 -2.674627 -5.234341 0
M  V30 26 C -0.501365 -1.433531 -4.414573 0
M  V30 27 C 2.980423 0.759712 -1.225846 0
M  V30 28 C 4.036344 0.777303 -0.345637 0
M  V30 29 N 4.283346 -0.141555 0.601639 0
M  V30 30 C 1.523461 -3.210563 2.263412 0
M  V30 31 C 0.356158 -3.355440 3.022083 0
M  V30 32 N 0.144691 -2.546588 4.076968 0
M  V30 33 H 0.739248 1.449762 5.738869 0
M  V30 34 H 0.661354 0.866740 4.039320 0
M  V30 35 H -0.784748 0.667737 5.177511 0
M  V30 36 H -0.990980 -1.620970 5.864456 0
M  V30 37 H 0.235197 -2.127587 7.060189 0
M  V30 38 H -0.560924 -0.461101 7.149479 0
M  V30 39 H 2.688012 -1.267212 6.201939 0
M  V30 40 H 3.037550 -0.718228 3.805034 0
M  V30 41 H 4.220100 -3.060100 1.534008 0
M  V30 42 H 1.640602 -2.086593 -0.075822 0
M  V30 43 H 0.024116 1.451022 0.029524 0
M  V30 44 H -2.448845 3.322476 -0.306129 0
M  V30 45 H -3.207343 2.620597 2.078652 0
M  V30 46 H -2.842000 0.852799 1.690543 0
M  V30 47 H -4.544823 0.999326 -0.150951 0
M  V30 48 H -4.831818 2.813195 0.183531 0
M  V30 49 H -2.471329 -0.642514 -4.216508 0
M  V30 50 H -3.031301 -2.157171 -2.273148 0
M  V30 51 H -1.409306 -2.884244 -2.512188 0
M  V30 52 H -3.924763 -2.949895 -4.226293 0
M  V30 53 H -2.697452 -4.275753 -3.869516 0
M  V30 54 H -0.480277 -3.601666 -4.735466 0
M  V30 55 H -0.421254 -2.601526 -6.223613 0
M  V30 56 H -0.227900 -0.630424 -5.126741 0
M  V30 57 H 0.355444 -1.715494 -3.798301 0
M  V30 58 H 2.764479 1.474044 -1.985145 0
M  V30 59 H 4.736445 1.597765 -0.411595 0
M  V30 60 H 1.530850 -3.934566 1.461575 0
M  V30 61 H -0.423051 -4.082888 2.840744 0
M  V30 END ATOM
M  V30 BEGIN BOND
M  V30 1 1 1 2
M  V30 2 1 2 3
M  V30 3 1 2 4
M  V30 4 1 2 5
M  V30 5 2 5 6
M  V30 6 1 6 7
M  V30 7 1 7 8
M  V30 8 1 8 9
M  V30 9 2 9 10
M  V30 10 1 10 11
M  V30 11 1 11 12
M  V30 12 1 12 13
M  V30 13 2 13 14
M  V30 14 1 14 15
M  V30 15 1 15 16
M  V30 16 1 16 17
M  V30 17 1 17 18
M  V30 18 1 15 19
M  V30 19 2 19 20
M  V30 20 1 20 21
M  V30 21 1 21 22
M  V30 22 1 22 23
M  V30 23 1 23 24
M  V30 24 1 24 25
M  V30 25 1 25 26
M  V30 26 2 11 27
M  V30 27 1 27 28
M  V30 28 2 28 29
M  V30 29 2 7 30
M  V30 30 1 30 31
M  V30 31 2 31 32
M  V30 32 1 32 5
M  V30 33 1 29 9
M  V30 34 1 20 13
M  V30 35 1 26 21
M  V30 36 1 18 16
M  V30 37 1 1 33
M  V30 38 1 1 34
M  V30 39 1 1 35
M  V30 40 1 3 36
M  V30 41 1 3 37
M  V30 42 1 3 38
M  V30 43 1 4 39
M  V30 44 1 6 40
M  V30 45 1 8 41
M  V30 46 1 10 42
M  V30 47 1 14 43
M  V30 48 1 16 44
M  V30 49 1 17 45
M  V30 50 1 17 46
M  V30 51 1 18 47
M  V30 52 1 18 48
M  V30 53 1 21 49
M  V30 54 1 22 50
M  V30 55 1 22 51
M  V30 56 1 23 52
M  V30 57 1 23 53
M  V30 58 1 25 54
M  V30 59 1 25 55
M  V30 60 1 26 56
M  V30 61 1 26 57
M  V30 62 1 27 58
M  V30 63 1 28 59
M  V30 64 1 30 60
M  V30 65 1 31 61
M  V30 END BOND
M  V30 END CTAB
M  END
>  <Dataset>  (813) 
ChEMBL_Kinases

>  <Ligand_Instance>  (813) 
nan

>  <PDB_ID>  (813) 
nan

>  <Standardized_SMILES>  (813) 
CC(C)(O)c1cc(Nc2cc(Oc3cn(C4CC4)nc3C3CCOCC3)ccn2)ccn1

>  <Name>  (813) 
LY-3200882

>  <Pocket>  (813) 
nan

>  <ATP_Site>  (813) 
nan

>  <Peripheral>  (813) 
nan

>  <Num_H_Atoms_ProtBoundConf>  (813) 
nan

>  <Num_Resolved_Atoms>  (813) 
nan

>  <Num_Not_Resolved_Atoms>  (813) 
nan

$$$$
CHEMBL211195
     RDKit          3D

  0  0  0  0  0  0  0  0  0  0999 V3000
M  V30 BEGIN CTAB
M  V30 COUNTS 38 39 0 0 0
M  V30 BEGIN ATOM
M  V30 1 C -3.055084 -4.296431 0.114784 0
M  V30 2 C -1.938205 -3.354927 0.431566 0
M  V30 3 O -1.762653 -3.241012 1.825462 0
M  V30 4 C -0.793088 -2.429066 2.413607 0
M  V30 5 N 0.000028 -1.730215 1.561693 0
M  V30 6 C 0.982444 -0.902401 1.992046 0
M  V30 7 C 1.783183 -0.196732 0.988126 0
M  V30 8 O 2.693883 0.589757 1.373744 0
M  V30 9 N 1.565144 -0.371918 -0.380636 0
M  V30 10 C 2.231500 0.220902 -1.497296 0
M  V30 11 C 1.728011 1.618424 -1.649997 0
M  V30 12 C 0.607967 1.754713 -2.477529 0
M  V30 13 C -0.009967 2.952154 -2.749976 0
M  V30 14 C 0.525846 4.075368 -2.159110 0
M  V30 15 C 1.625359 3.967820 -1.342416 0
M  V30 16 C 2.252662 2.770799 -1.062794 0
M  V30 17 C 1.234130 -0.722088 3.339578 0
M  V30 18 C 0.424826 -1.435086 4.197784 0
M  V30 19 N 0.604098 -1.319132 5.602693 0
M  V30 20 C -0.576173 -2.278678 3.767610 0
M  V30 21 C -1.422962 -3.023793 4.652825 0
M  V30 22 N -2.113157 -3.621646 5.393764 0
M  V30 23 H -3.801076 -3.820064 -0.521027 0
M  V30 24 H -3.586560 -4.559672 1.070081 0
M  V30 25 H -2.674617 -5.228150 -0.371498 0
M  V30 26 H -2.229476 -2.336949 0.082749 0
M  V30 27 H -1.026120 -3.612146 -0.129609 0
M  V30 28 H 0.786690 -1.047453 -0.646568 0
M  V30 29 H 3.336328 0.326674 -1.296727 0
M  V30 30 H 2.099502 -0.300563 -2.439599 0
M  V30 31 H 0.156685 0.883403 -2.962791 0
M  V30 32 H -0.872565 3.008056 -3.395619 0
M  V30 33 H 0.075505 5.056943 -2.339346 0
M  V30 34 H 2.085982 4.835797 -0.850714 0
M  V30 35 H 3.115289 2.605438 -0.436843 0
M  V30 36 H 2.025625 -0.054556 3.679375 0
M  V30 37 H 1.249856 -1.988026 6.072649 0
M  V30 38 H 0.145878 -0.616678 6.232138 0
M  V30 END ATOM
M  V30 BEGIN BOND
M  V30 1 1 1 2
M  V30 2 1 2 3
M  V30 3 1 3 4
M  V30 4 2 4 5
M  V30 5 1 5 6
M  V30 6 1 6 7
M  V30 7 2 7 8
M  V30 8 1 7 9
M  V30 9 1 9 10
M  V30 10 1 10 11
M  V30 11 2 11 12
M  V30 12 1 12 13
M  V30 13 2 13 14
M  V30 14 1 14 15
M  V30 15 2 15 16
M  V30 16 2 6 17
M  V30 17 1 17 18
M  V30 18 1 18 19
M  V30 19 2 18 20
M  V30 20 1 20 21
M  V30 21 3 21 22
M  V30 22 1 20 4
M  V30 23 1 16 11
M  V30 24 1 1 23
M  V30 25 1 1 24
M  V30 26 1 1 25
M  V30 27 1 2 26
M  V30 28 1 2 27
M  V30 29 1 9 28
M  V30 30 1 10 29
M  V30 31 1 10 30
M  V30 32 1 12 31
M  V30 33 1 13 32
M  V30 34 1 14 33
M  V30 35 1 15 34
M  V30 36 1 16 35
M  V30 37 1 17 36
M  V30 38 1 19 37
M  V30 39 1 19 38
M  V30 END BOND
M  V30 END CTAB
M  END
>  <Dataset>  (814) 
ChEMBL_Kinases

>  <Ligand_Instance>  (814) 
nan

>  <PDB_ID>  (814) 
nan

>  <Standardized_SMILES>  (814) 
CCOc1nc(C(=O)NCc2ccccc2)cc(N)c1C#N

>  <Name>  (814) 
nan

>  <Pocket>  (814) 
nan

>  <ATP_Site>  (814) 
nan

>  <Peripheral>  (814) 
nan

>  <Num_H_Atoms_ProtBoundConf>  (814) 
nan

>  <Num_Resolved_Atoms>  (814) 
nan

>  <Num_Not_Resolved_Atoms>  (814) 
nan

$$$$
CHEMBL2063463
     RDKit          3D

  0  0  0  0  0  0  0  0  0  0999 V3000
M  V30 BEGIN CTAB
M  V30 COUNTS 49 52 0 0 0
M  V30 BEGIN ATOM
M  V30 1 N 1.664363 -2.028331 1.902087 0
M  V30 2 C 2.723493 -2.183829 2.816574 0
M  V30 3 N 2.719196 -3.404158 3.401067 0
M  V30 4 C 3.680256 -3.721020 4.315572 0
M  V30 5 N 4.605941 -2.785808 4.598842 0
M  V30 6 N 4.631763 -1.585297 4.040969 0
M  V30 7 C 5.431193 -0.511053 4.157138 0
M  V30 8 C 4.975317 0.491229 3.312960 0
M  V30 9 C 3.844522 0.018663 2.644227 0
M  V30 10 C 3.019135 0.704517 1.659727 0
M  V30 11 O 3.673470 1.050541 0.621644 0
M  V30 12 N 1.634627 1.013720 1.728072 0
M  V30 13 C 0.988587 1.696765 0.660201 0
M  V30 14 C 0.951663 3.088853 0.694287 0
M  V30 15 C 0.317819 3.747213 -0.351042 0
M  V30 16 C -0.263611 3.034273 -1.402123 0
M  V30 17 C -0.212452 1.634969 -1.412156 0
M  V30 18 C -0.871854 1.032017 -2.586514 0
M  V30 19 N -2.272121 0.740813 -2.389249 0
M  V30 20 C -2.719252 -0.388259 -1.623686 0
M  V30 21 O -1.950022 -1.230524 -1.054151 0
M  V30 22 N -4.097101 -0.723918 -1.394650 0
M  V30 23 C -4.190453 -1.906352 -0.596536 0
M  V30 24 C -4.250928 -2.047083 0.789068 0
M  V30 25 C -4.335470 -3.316069 1.293621 0
M  V30 26 C -4.364181 -4.448966 0.526598 0
M  V30 27 C -4.303546 -4.302592 -0.851006 0
M  V30 28 Cl -4.341973 -5.780072 -1.813523 0
M  V30 29 C -4.217335 -3.029436 -1.393920 0
M  V30 30 C 0.417512 1.020529 -0.370649 0
M  V30 31 C 3.689637 -1.260198 3.137506 0
M  V30 32 H 1.366876 -2.228668 0.913749 0
M  V30 33 H 0.710530 -1.620525 1.882924 0
M  V30 34 H 3.749317 -4.678535 4.831689 0
M  V30 35 H 6.304942 -0.408860 4.800436 0
M  V30 36 H 5.362736 1.504739 3.131865 0
M  V30 37 H 1.220083 0.669661 2.640093 0
M  V30 38 H 1.416126 3.591336 1.529171 0
M  V30 39 H 0.320074 4.825330 -0.272706 0
M  V30 40 H -0.730116 3.677202 -2.160575 0
M  V30 41 H -0.351083 0.048382 -2.757495 0
M  V30 42 H -0.711254 1.632894 -3.479405 0
M  V30 43 H -3.048630 1.334570 -2.791909 0
M  V30 44 H -4.821351 -0.077901 -1.829382 0
M  V30 45 H -4.221735 -1.099401 1.289423 0
M  V30 46 H -4.379708 -3.376892 2.361407 0
M  V30 47 H -4.430831 -5.411643 0.985188 0
M  V30 48 H -4.177909 -3.071085 -2.475416 0
M  V30 49 H 0.436637 -0.039192 -0.414412 0
M  V30 END ATOM
M  V30 BEGIN BOND
M  V30 1 1 1 2
M  V30 2 2 2 3
M  V30 3 1 3 4
M  V30 4 2 4 5
M  V30 5 1 5 6
M  V30 6 1 6 7
M  V30 7 2 7 8
M  V30 8 1 8 9
M  V30 9 1 9 10
M  V30 10 2 10 11
M  V30 11 1 10 12
M  V30 12 1 12 13
M  V30 13 2 13 14
M  V30 14 1 14 15
M  V30 15 2 15 16
M  V30 16 1 16 17
M  V30 17 1 17 18
M  V30 18 1 18 19
M  V30 19 1 19 20
M  V30 20 2 20 21
M  V30 21 1 20 22
M  V30 22 1 22 23
M  V30 23 2 23 24
M  V30 24 1 24 25
M  V30 25 2 25 26
M  V30 26 1 26 27
M  V30 27 1 27 28
M  V30 28 2 27 29
M  V30 29 2 17 30
M  V30 30 2 9 31
M  V30 31 1 31 2
M  V30 32 1 31 6
M  V30 33 1 30 13
M  V30 34 1 29 23
M  V30 35 1 1 32
M  V30 36 1 1 33
M  V30 37 1 4 34
M  V30 38 1 7 35
M  V30 39 1 8 36
M  V30 40 1 12 37
M  V30 41 1 14 38
M  V30 42 1 15 39
M  V30 43 1 16 40
M  V30 44 1 18 41
M  V30 45 1 18 42
M  V30 46 1 19 43
M  V30 47 1 22 44
M  V30 48 1 24 45
M  V30 49 1 25 46
M  V30 50 1 26 47
M  V30 51 1 29 48
M  V30 52 1 30 49
M  V30 END BOND
M  V30 END CTAB
M  END
>  <Dataset>  (815) 
ChEMBL_Kinases

>  <Ligand_Instance>  (815) 
nan

>  <PDB_ID>  (815) 
nan

>  <Standardized_SMILES>  (815) 
Nc1ncnn2ccc(C(=O)Nc3cccc(CNC(=O)Nc4cccc(Cl)c4)c3)c12

>  <Name>  (815) 
nan

>  <Pocket>  (815) 
nan

>  <ATP_Site>  (815) 
nan

>  <Peripheral>  (815) 
nan

>  <Num_H_Atoms_ProtBoundConf>  (815) 
nan

>  <Num_Resolved_Atoms>  (815) 
nan

>  <Num_Not_Resolved_Atoms>  (815) 
nan

$$$$
CHEMBL214140
     RDKit          3D

  0  0  0  0  0  0  0  0  0  0999 V3000
M  V30 BEGIN CTAB
M  V30 COUNTS 38 42 0 0 0
M  V30 BEGIN ATOM
M  V30 1 O 3.951958 -0.027435 0.891574 0
M  V30 2 C 2.972443 -0.670275 1.315534 0
M  V30 3 N 2.980775 -1.719544 2.307057 0
M  V30 4 C 1.651258 -2.169797 2.482233 0
M  V30 5 O 1.488395 -3.076659 3.307192 0
M  V30 6 C 0.757072 -1.440143 1.625973 0
M  V30 7 C 1.566353 -0.561037 0.949068 0
M  V30 8 C 1.029087 0.308319 0.021425 0
M  V30 9 C 1.692144 1.327735 -0.784082 0
M  V30 10 C 1.436165 1.306143 -2.161973 0
M  V30 11 C 1.959043 2.191051 -3.082174 0
M  V30 12 C 2.797902 3.166619 -2.585798 0
M  V30 13 C 3.081474 3.231156 -1.238227 0
M  V30 14 O 3.929013 4.222345 -0.761217 0
M  V30 15 C 2.540312 2.335900 -0.375855 0
M  V30 16 C -0.351448 0.284389 -0.223847 0
M  V30 17 C -1.155135 -0.604306 0.462857 0
M  V30 18 N -2.500542 -0.832949 0.418835 0
M  V30 19 C -2.721251 -1.817693 1.309950 0
M  V30 20 C -3.958543 -2.377321 1.600926 0
M  V30 21 C -4.073840 -3.385921 2.535260 0
M  V30 22 C -2.910589 -3.826368 3.178542 0
M  V30 23 O -3.031028 -4.831642 4.108740 0
M  V30 24 C -1.722670 -3.223439 2.836919 0
M  V30 25 C -1.559580 -2.227681 1.924000 0
M  V30 26 C -0.580027 -1.454208 1.380336 0
M  V30 27 H 3.890577 -2.006010 2.748152 0
M  V30 28 H 0.768645 0.531454 -2.564149 0
M  V30 29 H 1.702422 2.093919 -4.128228 0
M  V30 30 H 3.230910 3.882163 -3.272349 0
M  V30 31 H 3.534217 4.829480 -0.030970 0
M  V30 32 H 2.740082 2.375250 0.666705 0
M  V30 33 H -0.876625 0.931949 -0.939846 0
M  V30 34 H -3.188436 -0.331313 -0.190279 0
M  V30 35 H -4.870576 -2.056328 1.119652 0
M  V30 36 H -5.027498 -3.833915 2.775326 0
M  V30 37 H -2.803918 -4.749517 5.085027 0
M  V30 38 H -0.893824 -3.615504 3.369890 0
M  V30 END ATOM
M  V30 BEGIN BOND
M  V30 1 2 1 2
M  V30 2 1 2 3
M  V30 3 1 3 4
M  V30 4 2 4 5
M  V30 5 1 4 6
M  V30 6 2 6 7
M  V30 7 1 7 8
M  V30 8 1 8 9
M  V30 9 2 9 10
M  V30 10 1 10 11
M  V30 11 2 11 12
M  V30 12 1 12 13
M  V30 13 1 13 14
M  V30 14 2 13 15
M  V30 15 2 8 16
M  V30 16 1 16 17
M  V30 17 1 17 18
M  V30 18 1 18 19
M  V30 19 2 19 20
M  V30 20 1 20 21
M  V30 21 2 21 22
M  V30 22 1 22 23
M  V30 23 1 22 24
M  V30 24 2 24 25
M  V30 25 1 25 26
M  V30 26 1 7 2
M  V30 27 1 15 9
M  V30 28 2 26 17
M  V30 29 1 26 6
M  V30 30 1 25 19
M  V30 31 1 3 27
M  V30 32 1 10 28
M  V30 33 1 11 29
M  V30 34 1 12 30
M  V30 35 1 14 31
M  V30 36 1 15 32
M  V30 37 1 16 33
M  V30 38 1 18 34
M  V30 39 1 20 35
M  V30 40 1 21 36
M  V30 41 1 23 37
M  V30 42 1 24 38
M  V30 END BOND
M  V30 END CTAB
M  END
>  <Dataset>  (816) 
ChEMBL_Kinases

>  <Ligand_Instance>  (816) 
nan

>  <PDB_ID>  (816) 
nan

>  <Standardized_SMILES>  (816) 
O=C1NC(=O)c2c1c(-c1cccc(O)c1)cc1[nH]c3ccc(O)cc3c21

>  <Name>  (816) 
nan

>  <Pocket>  (816) 
nan

>  <ATP_Site>  (816) 
nan

>  <Peripheral>  (816) 
nan

>  <Num_H_Atoms_ProtBoundConf>  (816) 
nan

>  <Num_Resolved_Atoms>  (816) 
nan

>  <Num_Not_Resolved_Atoms>  (816) 
nan

$$$$
CHEMBL2064555
     RDKit          3D

  0  0  0  0  0  0  0  0  0  0999 V3000
M  V30 BEGIN CTAB
M  V30 COUNTS 56 60 0 0 0
M  V30 BEGIN ATOM
M  V30 1 C 4.323052 0.783611 0.646375 0
M  V30 2 N 4.678668 -0.602764 0.580242 0
M  V30 3 C 5.331193 -0.921247 1.834020 0
M  V30 4 C 3.587411 -1.500895 0.290736 0
M  V30 5 C 2.606696 -1.630171 1.428160 0 CFG=1
M  V30 6 N 1.978481 -0.424725 1.852008 0
M  V30 7 C 1.384532 0.765450 2.307610 0
M  V30 8 O 2.048215 0.883394 3.358580 0
M  V30 9 C 0.340483 1.597424 1.739651 0
M  V30 10 C 0.485633 2.918403 2.045560 0
M  V30 11 C -0.453300 3.832390 1.595267 0
M  V30 12 C -1.490593 3.331024 0.852896 0
M  V30 13 N -2.553041 3.928237 0.276096 0
M  V30 14 N -3.306370 3.046940 -0.336118 0
M  V30 15 C -2.818508 1.794021 -0.229481 0
M  V30 16 C -3.411083 0.593158 -0.772142 0
M  V30 17 N -4.573972 0.625701 -1.450207 0
M  V30 18 C -4.957561 -0.592998 -1.846744 0
M  V30 19 C -6.071821 -0.984899 -2.547581 0
M  V30 20 C -6.184260 -2.359287 -2.798999 0
M  V30 21 C -5.222246 -3.241612 -2.359161 0
M  V30 22 C -4.110585 -2.824096 -1.657172 0
M  V30 23 C -3.996861 -1.474772 -1.408585 0
M  V30 24 N -3.101569 -0.702660 -0.774974 0
M  V30 25 C -1.683977 2.005115 0.516947 0
M  V30 26 C -0.716088 1.146764 0.993306 0
M  V30 27 C 1.711557 -2.802056 1.315813 0
M  V30 28 C 0.886204 -3.164661 2.360080 0
M  V30 29 C 0.094453 -4.252568 2.124199 0
M  V30 30 C 0.106355 -4.959699 0.916337 0
M  V30 31 C 0.947728 -4.568672 -0.112895 0
M  V30 32 C 1.760802 -3.462554 0.109925 0
M  V30 33 H 4.166385 1.163523 1.673006 0
M  V30 34 H 5.088659 1.419286 0.150071 0
M  V30 35 H 3.374053 0.924041 0.060177 0
M  V30 36 H 4.737064 -0.570429 2.730402 0
M  V30 37 H 6.250570 -0.273257 1.877931 0
M  V30 38 H 5.669906 -1.945434 1.898905 0
M  V30 39 H 4.072074 -2.520888 0.206355 0
M  V30 40 H 3.174870 -1.267240 -0.685194 0
M  V30 41 H 3.295341 -1.919050 2.307346 0
M  V30 42 H 1.455641 -0.525365 0.897877 0
M  V30 43 H 1.313268 3.328871 2.642467 0
M  V30 44 H -0.422050 4.902429 1.783400 0
M  V30 45 H -2.753776 4.953544 0.309113 0
M  V30 46 H -6.825119 -0.307398 -2.894589 0
M  V30 47 H -7.035750 -2.774463 -3.349249 0
M  V30 48 H -5.327400 -4.315405 -2.567950 0
M  V30 49 H -3.334399 -3.478363 -1.291228 0
M  V30 50 H -2.271651 -1.125236 -0.350307 0
M  V30 51 H -0.775766 0.098549 0.790045 0
M  V30 52 H 0.835616 -2.654589 3.313086 0
M  V30 53 H -0.605296 -4.673182 2.834314 0
M  V30 54 H -0.496121 -5.826791 0.670342 0
M  V30 55 H 1.009777 -5.063923 -1.062871 0
M  V30 56 H 2.407980 -3.136389 -0.670353 0
M  V30 END ATOM
M  V30 BEGIN BOND
M  V30 1 1 1 2
M  V30 2 1 2 3
M  V30 3 1 2 4
M  V30 4 1 4 5
M  V30 5 1 5 6
M  V30 6 1 6 7
M  V30 7 2 7 8
M  V30 8 1 7 9
M  V30 9 2 9 10
M  V30 10 1 10 11
M  V30 11 2 11 12
M  V30 12 1 12 13
M  V30 13 1 13 14
M  V30 14 2 14 15
M  V30 15 1 15 16
M  V30 16 2 16 17
M  V30 17 1 17 18
M  V30 18 2 18 19
M  V30 19 1 19 20
M  V30 20 2 20 21
M  V30 21 1 21 22
M  V30 22 2 22 23
M  V30 23 1 23 24
M  V30 24 1 15 25
M  V30 25 2 25 26
M  V30 26 1 5 27
M  V30 27 2 27 28
M  V30 28 1 28 29
M  V30 29 2 29 30
M  V30 30 1 30 31
M  V30 31 2 31 32
M  V30 32 1 26 9
M  V30 33 1 32 27
M  V30 34 1 25 12
M  V30 35 1 24 16
M  V30 36 1 23 18
M  V30 37 1 1 33
M  V30 38 1 1 34
M  V30 39 1 1 35
M  V30 40 1 3 36
M  V30 41 1 3 37
M  V30 42 1 3 38
M  V30 43 1 4 39
M  V30 44 1 4 40
M  V30 45 1 5 41 CFG=1
M  V30 46 1 6 42
M  V30 47 1 10 43
M  V30 48 1 11 44
M  V30 49 1 13 45
M  V30 50 1 19 46
M  V30 51 1 20 47
M  V30 52 1 21 48
M  V30 53 1 22 49
M  V30 54 1 24 50
M  V30 55 1 26 51
M  V30 56 1 28 52
M  V30 57 1 29 53
M  V30 58 1 30 54
M  V30 59 1 31 55
M  V30 60 1 32 56
M  V30 END BOND
M  V30 END CTAB
M  END
>  <Dataset>  (817) 
ChEMBL_Kinases

>  <Ligand_Instance>  (817) 
nan

>  <PDB_ID>  (817) 
nan

>  <Standardized_SMILES>  (817) 
CN(C)C[C@@H](NC(=O)c1ccc2[nH]nc(-c3nc4ccccc4[nH]3)c2c1)c1ccccc1

>  <Name>  (817) 
nan

>  <Pocket>  (817) 
nan

>  <ATP_Site>  (817) 
nan

>  <Peripheral>  (817) 
nan

>  <Num_H_Atoms_ProtBoundConf>  (817) 
nan

>  <Num_Resolved_Atoms>  (817) 
nan

>  <Num_Not_Resolved_Atoms>  (817) 
nan

$$$$
CHEMBL214172
     RDKit          3D

  0  0  0  0  0  0  0  0  0  0999 V3000
M  V30 BEGIN CTAB
M  V30 COUNTS 36 40 0 0 0
M  V30 BEGIN ATOM
M  V30 1 O 3.248086 -1.022625 2.995071 0
M  V30 2 C 2.598103 -1.412801 1.991868 0
M  V30 3 N 2.876523 -2.562670 1.187160 0
M  V30 4 C 1.901980 -2.639295 0.161820 0
M  V30 5 O 1.994907 -3.578344 -0.626839 0
M  V30 6 C 0.981030 -1.545603 0.285162 0
M  V30 7 C 1.415616 -0.833263 1.376977 0
M  V30 8 C 0.744617 0.300164 1.790127 0
M  V30 9 C 1.054920 1.197552 2.894926 0
M  V30 10 C 2.243867 1.823933 3.209798 0
M  V30 11 C 2.330358 2.632990 4.324237 0
M  V30 12 C 1.260745 2.857710 5.167095 0
M  V30 13 N 0.087262 2.254955 4.877639 0
M  V30 14 C 0.000151 1.457862 3.780989 0
M  V30 15 C -0.390359 0.720368 1.083766 0
M  V30 16 C -0.825188 0.003300 -0.012273 0
M  V30 17 N -1.882708 0.198797 -0.855033 0
M  V30 18 C -1.804775 -0.816581 -1.734079 0
M  V30 19 C -2.692382 -1.025591 -2.792336 0
M  V30 20 C -2.527635 -2.096477 -3.639425 0
M  V30 21 C -1.449416 -2.953813 -3.398887 0
M  V30 22 O -1.299436 -4.024216 -4.259874 0
M  V30 23 C -0.613039 -2.690677 -2.339464 0
M  V30 24 C -0.736692 -1.645715 -1.476828 0
M  V30 25 C -0.120557 -1.119040 -0.383479 0
M  V30 26 H 3.702656 -3.181272 1.416039 0
M  V30 27 H 3.045874 1.628195 2.522933 0
M  V30 28 H 3.281005 3.096763 4.523659 0
M  V30 29 H 1.330857 3.493227 6.041451 0
M  V30 30 H -0.976585 1.011354 3.618933 0
M  V30 31 H -0.988321 1.607474 1.337455 0
M  V30 32 H -2.578392 0.975170 -0.800385 0
M  V30 33 H -3.523123 -0.382518 -2.994117 0
M  V30 34 H -3.205571 -2.262276 -4.453485 0
M  V30 35 H -0.434027 -4.201437 -4.779545 0
M  V30 36 H 0.163318 -3.392472 -2.246073 0
M  V30 END ATOM
M  V30 BEGIN BOND
M  V30 1 2 1 2
M  V30 2 1 2 3
M  V30 3 1 3 4
M  V30 4 2 4 5
M  V30 5 1 4 6
M  V30 6 2 6 7
M  V30 7 1 7 8
M  V30 8 1 8 9
M  V30 9 2 9 10
M  V30 10 1 10 11
M  V30 11 2 11 12
M  V30 12 1 12 13
M  V30 13 2 13 14
M  V30 14 2 8 15
M  V30 15 1 15 16
M  V30 16 1 16 17
M  V30 17 1 17 18
M  V30 18 2 18 19
M  V30 19 1 19 20
M  V30 20 2 20 21
M  V30 21 1 21 22
M  V30 22 1 21 23
M  V30 23 2 23 24
M  V30 24 1 24 25
M  V30 25 1 7 2
M  V30 26 1 14 9
M  V30 27 2 25 16
M  V30 28 1 25 6
M  V30 29 1 24 18
M  V30 30 1 3 26
M  V30 31 1 10 27
M  V30 32 1 11 28
M  V30 33 1 12 29
M  V30 34 1 14 30
M  V30 35 1 15 31
M  V30 36 1 17 32
M  V30 37 1 19 33
M  V30 38 1 20 34
M  V30 39 1 22 35
M  V30 40 1 23 36
M  V30 END BOND
M  V30 END CTAB
M  END
>  <Dataset>  (818) 
ChEMBL_Kinases

>  <Ligand_Instance>  (818) 
nan

>  <PDB_ID>  (818) 
nan

>  <Standardized_SMILES>  (818) 
O=C1NC(=O)c2c1c(-c1cccnc1)cc1[nH]c3ccc(O)cc3c21

>  <Name>  (818) 
nan

>  <Pocket>  (818) 
nan

>  <ATP_Site>  (818) 
nan

>  <Peripheral>  (818) 
nan

>  <Num_H_Atoms_ProtBoundConf>  (818) 
nan

>  <Num_Resolved_Atoms>  (818) 
nan

>  <Num_Not_Resolved_Atoms>  (818) 
nan

$$$$
CHEMBL2063448
     RDKit          3D

  0  0  0  0  0  0  0  0  0  0999 V3000
M  V30 BEGIN CTAB
M  V30 COUNTS 49 52 0 0 0
M  V30 BEGIN ATOM
M  V30 1 N 1.132156 -1.043203 2.991895 0
M  V30 2 C 2.333387 -1.710953 2.701073 0
M  V30 3 N 2.769310 -2.770704 3.414514 0
M  V30 4 O 3.889321 -3.169861 2.902291 0
M  V30 5 C 4.215270 -2.423089 1.881246 0
M  V30 6 C 5.264082 -2.372420 0.971581 0
M  V30 7 C 5.361753 -1.456468 -0.037577 0
M  V30 8 C 4.374097 -0.498550 -0.196297 0
M  V30 9 C 3.282722 -0.457046 0.658400 0
M  V30 10 C 2.143201 0.443541 0.705238 0
M  V30 11 O 1.239978 -0.313571 0.254198 0
M  V30 12 N 1.994830 1.809774 1.134926 0
M  V30 13 C 0.645823 2.228500 0.994342 0
M  V30 14 C 0.270253 2.973113 2.087909 0
M  V30 15 C -1.022406 3.479535 2.202410 0
M  V30 16 C -1.899723 3.203349 1.180526 0
M  V30 17 C -1.502299 2.463552 0.109564 0
M  V30 18 C -2.401307 2.121087 -1.044597 0
M  V30 19 N -3.216410 0.970855 -0.746218 0
M  V30 20 C -2.829537 -0.374469 -0.601454 0
M  V30 21 O -1.625791 -0.668245 -0.715272 0
M  V30 22 N -3.742859 -1.428473 -0.324124 0
M  V30 23 C -3.130999 -2.707081 -0.157603 0
M  V30 24 C -3.022521 -3.137824 1.180108 0
M  V30 25 C -2.410628 -4.376739 1.439246 0
M  V30 26 C -1.948528 -5.094438 0.344038 0
M  V30 27 F -1.360280 -6.299468 0.627414 0
M  V30 28 C -2.065089 -4.652873 -0.956309 0
M  V30 29 F -1.585082 -5.400805 -2.000848 0
M  V30 30 C -2.667429 -3.434734 -1.222163 0
M  V30 31 C -0.204236 1.941453 -0.035406 0
M  V30 32 C 3.249508 -1.433126 1.671501 0
M  V30 33 H 1.132869 -0.172900 3.595338 0
M  V30 34 H 0.102388 -1.042723 2.856303 0
M  V30 35 H 6.055361 -3.104264 1.074786 0
M  V30 36 H 6.175549 -1.427162 -0.724944 0
M  V30 37 H 4.321453 0.286088 -0.947518 0
M  V30 38 H 2.937053 2.043292 1.464637 0
M  V30 39 H 0.899283 3.238629 2.940426 0
M  V30 40 H -1.342843 4.073051 3.050283 0
M  V30 41 H -2.943852 3.555866 1.170572 0
M  V30 42 H -1.818331 2.016442 -1.968612 0
M  V30 43 H -3.064047 3.004370 -1.200055 0
M  V30 44 H -4.260101 1.106823 -0.604254 0
M  V30 45 H -4.780280 -1.182857 -0.268464 0
M  V30 46 H -3.401309 -2.535782 1.999610 0
M  V30 47 H -2.341379 -4.687360 2.467230 0
M  V30 48 H -2.781529 -3.057244 -2.204884 0
M  V30 49 H 0.172051 1.367664 -0.869406 0
M  V30 END ATOM
M  V30 BEGIN BOND
M  V30 1 1 1 2
M  V30 2 2 2 3
M  V30 3 1 3 4
M  V30 4 1 4 5
M  V30 5 2 5 6
M  V30 6 1 6 7
M  V30 7 2 7 8
M  V30 8 1 8 9
M  V30 9 1 9 10
M  V30 10 2 10 11
M  V30 11 1 10 12
M  V30 12 1 12 13
M  V30 13 2 13 14
M  V30 14 1 14 15
M  V30 15 2 15 16
M  V30 16 1 16 17
M  V30 17 1 17 18
M  V30 18 1 18 19
M  V30 19 1 19 20
M  V30 20 2 20 21
M  V30 21 1 20 22
M  V30 22 1 22 23
M  V30 23 2 23 24
M  V30 24 1 24 25
M  V30 25 2 25 26
M  V30 26 1 26 27
M  V30 27 1 26 28
M  V30 28 1 28 29
M  V30 29 2 28 30
M  V30 30 2 17 31
M  V30 31 2 9 32
M  V30 32 1 32 2
M  V30 33 1 32 5
M  V30 34 1 31 13
M  V30 35 1 30 23
M  V30 36 1 1 33
M  V30 37 1 1 34
M  V30 38 1 6 35
M  V30 39 1 7 36
M  V30 40 1 8 37
M  V30 41 1 12 38
M  V30 42 1 14 39
M  V30 43 1 15 40
M  V30 44 1 16 41
M  V30 45 1 18 42
M  V30 46 1 18 43
M  V30 47 1 19 44
M  V30 48 1 22 45
M  V30 49 1 24 46
M  V30 50 1 25 47
M  V30 51 1 30 48
M  V30 52 1 31 49
M  V30 END BOND
M  V30 END CTAB
M  END
>  <Dataset>  (819) 
ChEMBL_Kinases

>  <Ligand_Instance>  (819) 
nan

>  <PDB_ID>  (819) 
nan

>  <Standardized_SMILES>  (819) 
Nc1noc2cccc(C(=O)Nc3cccc(CNC(=O)Nc4ccc(F)c(F)c4)c3)c12

>  <Name>  (819) 
nan

>  <Pocket>  (819) 
nan

>  <ATP_Site>  (819) 
nan

>  <Peripheral>  (819) 
nan

>  <Num_H_Atoms_ProtBoundConf>  (819) 
nan

>  <Num_Resolved_Atoms>  (819) 
nan

>  <Num_Not_Resolved_Atoms>  (819) 
nan

$$$$
CHEMBL209291
     RDKit          3D

  0  0  0  0  0  0  0  0  0  0999 V3000
M  V30 BEGIN CTAB
M  V30 COUNTS 42 43 0 0 0
M  V30 BEGIN ATOM
M  V30 1 C -1.372934 -4.685455 1.619944 0
M  V30 2 C -0.352715 -4.243881 2.647319 0
M  V30 3 O 0.975567 -4.341894 2.180831 0
M  V30 4 C 1.441956 -3.653520 1.068515 0
M  V30 5 N 0.584629 -2.847679 0.395109 0
M  V30 6 C 0.965889 -2.148827 -0.692816 0
M  V30 7 N 0.009296 -1.305781 -1.370566 0
M  V30 8 C 0.077026 -0.032443 -0.789553 0
M  V30 9 O 0.531181 0.814069 0.030751 0
M  V30 10 C -0.713795 1.188715 -1.140252 0
M  V30 11 C -0.265678 2.273506 -0.231071 0
M  V30 12 C 0.770360 3.129581 -0.530763 0
M  V30 13 C 1.125939 4.109053 0.363263 0
M  V30 14 C 0.416736 4.205088 1.560041 0
M  V30 15 C -0.630401 3.355951 1.886363 0
M  V30 16 O -1.224047 3.589101 3.110244 0
M  V30 17 C -2.299653 2.827435 3.606179 0
M  V30 18 C -0.966488 2.381626 0.970766 0
M  V30 19 C 2.241604 -2.205228 -1.190356 0
M  V30 20 C 3.120695 -3.011576 -0.526037 0
M  V30 21 N 4.478783 -3.119006 -0.993527 0
M  V30 22 C 2.734265 -3.728561 0.588002 0
M  V30 23 C 3.638631 -4.577125 1.296405 0
M  V30 24 N 4.387650 -5.280930 1.867648 0
M  V30 25 H -2.274789 -5.049988 2.115778 0
M  V30 26 H -1.678812 -3.860865 0.939081 0
M  V30 27 H -0.898177 -5.496889 1.027182 0
M  V30 28 H -0.438346 -4.800673 3.588547 0
M  V30 29 H -0.519124 -3.165819 2.873290 0
M  V30 30 H -0.700470 -1.361216 -2.145726 0
M  V30 31 H -1.800704 1.010077 -1.070567 0
M  V30 32 H -0.437930 1.465318 -2.165066 0
M  V30 33 H 1.225681 2.940917 -1.483779 0
M  V30 34 H 1.938699 4.764113 0.104138 0
M  V30 35 H 0.783141 5.016457 2.193524 0
M  V30 36 H -3.239714 3.318947 3.276064 0
M  V30 37 H -2.310247 2.910021 4.716657 0
M  V30 38 H -2.241074 1.771340 3.294943 0
M  V30 39 H -1.786777 1.742540 1.264335 0
M  V30 40 H 2.536919 -1.636033 -2.069627 0
M  V30 41 H 4.997113 -2.329164 -0.545916 0
M  V30 42 H 5.035002 -3.723846 -1.607587 0
M  V30 END ATOM
M  V30 BEGIN BOND
M  V30 1 1 1 2
M  V30 2 1 2 3
M  V30 3 1 3 4
M  V30 4 2 4 5
M  V30 5 1 5 6
M  V30 6 1 6 7
M  V30 7 1 7 8
M  V30 8 2 8 9
M  V30 9 1 8 10
M  V30 10 1 10 11
M  V30 11 2 11 12
M  V30 12 1 12 13
M  V30 13 2 13 14
M  V30 14 1 14 15
M  V30 15 1 15 16
M  V30 16 1 16 17
M  V30 17 2 15 18
M  V30 18 2 6 19
M  V30 19 1 19 20
M  V30 20 1 20 21
M  V30 21 2 20 22
M  V30 22 1 22 23
M  V30 23 3 23 24
M  V30 24 1 22 4
M  V30 25 1 18 11
M  V30 26 1 1 25
M  V30 27 1 1 26
M  V30 28 1 1 27
M  V30 29 1 2 28
M  V30 30 1 2 29
M  V30 31 1 7 30
M  V30 32 1 10 31
M  V30 33 1 10 32
M  V30 34 1 12 33
M  V30 35 1 13 34
M  V30 36 1 14 35
M  V30 37 1 17 36
M  V30 38 1 17 37
M  V30 39 1 17 38
M  V30 40 1 18 39
M  V30 41 1 19 40
M  V30 42 1 21 41
M  V30 43 1 21 42
M  V30 END BOND
M  V30 END CTAB
M  END
>  <Dataset>  (820) 
ChEMBL_Kinases

>  <Ligand_Instance>  (820) 
nan

>  <PDB_ID>  (820) 
nan

>  <Standardized_SMILES>  (820) 
CCOc1nc(NC(=O)Cc2cccc(OC)c2)cc(N)c1C#N

>  <Name>  (820) 
nan

>  <Pocket>  (820) 
nan

>  <ATP_Site>  (820) 
nan

>  <Peripheral>  (820) 
nan

>  <Num_H_Atoms_ProtBoundConf>  (820) 
nan

>  <Num_Resolved_Atoms>  (820) 
nan

>  <Num_Not_Resolved_Atoms>  (820) 
nan

$$$$
CHEMBL1201292
     RDKit          3D

  0  0  0  0  0  0  0  0  0  0999 V3000
M  V30 BEGIN CTAB
M  V30 COUNTS 23 24 0 0 0
M  V30 BEGIN ATOM
M  V30 1 N 1.834854 1.983723 3.644829 0
M  V30 2 C 0.871662 1.570100 2.700943 0
M  V30 3 C 1.110810 0.611494 1.736825 0
M  V30 4 C 0.121744 0.244224 0.831864 0
M  V30 5 C 0.437332 -0.776670 -0.162931 0
M  V30 6 C -0.524503 -1.638149 -0.647508 0
M  V30 7 C -0.217937 -2.598418 -1.587030 0
M  V30 8 C 1.099615 -2.690577 -2.050456 0
M  V30 9 N 2.052538 -1.843970 -1.576507 0
M  V30 10 C 1.743632 -0.903180 -0.653422 0
M  V30 11 C -1.123704 0.844817 0.892709 0
M  V30 12 N -1.408159 1.795960 1.825923 0
M  V30 13 C -0.401738 2.098239 2.666230 0
M  V30 14 O -0.662689 2.990414 3.544630 0
M  V30 15 H 1.512318 2.588721 4.433236 0
M  V30 16 H 2.808049 1.675104 3.519484 0
M  V30 17 H 2.081751 0.135952 1.680224 0
M  V30 18 H -1.524411 -1.523169 -0.256225 0
M  V30 19 H -0.962310 -3.278531 -1.973851 0
M  V30 20 H 1.376393 -3.434997 -2.790538 0
M  V30 21 H 2.525256 -0.225826 -0.280596 0
M  V30 22 H -1.905272 0.575828 0.201025 0
M  V30 23 H -2.330582 2.275751 1.910253 0
M  V30 END ATOM
M  V30 BEGIN BOND
M  V30 1 1 1 2
M  V30 2 2 2 3
M  V30 3 1 3 4
M  V30 4 1 4 5
M  V30 5 2 5 6
M  V30 6 1 6 7
M  V30 7 2 7 8
M  V30 8 1 8 9
M  V30 9 2 9 10
M  V30 10 2 4 11
M  V30 11 1 11 12
M  V30 12 1 12 13
M  V30 13 2 13 14
M  V30 14 1 13 2
M  V30 15 1 10 5
M  V30 16 1 1 15
M  V30 17 1 1 16
M  V30 18 1 3 17
M  V30 19 1 6 18
M  V30 20 1 7 19
M  V30 21 1 8 20
M  V30 22 1 10 21
M  V30 23 1 11 22
M  V30 24 1 12 23
M  V30 END BOND
M  V30 END CTAB
M  END
>  <Dataset>  (821) 
ChEMBL_Kinases

>  <Ligand_Instance>  (821) 
nan

>  <PDB_ID>  (821) 
nan

>  <Standardized_SMILES>  (821) 
Nc1cc(-c2cccnc2)c[nH]c1=O

>  <Name>  (821) 
nan

>  <Pocket>  (821) 
nan

>  <ATP_Site>  (821) 
nan

>  <Peripheral>  (821) 
nan

>  <Num_H_Atoms_ProtBoundConf>  (821) 
nan

>  <Num_Resolved_Atoms>  (821) 
nan

>  <Num_Not_Resolved_Atoms>  (821) 
nan

$$$$
CHEMBL120185
     RDKit          3D

  0  0  0  0  0  0  0  0  0  0999 V3000
M  V30 BEGIN CTAB
M  V30 COUNTS 64 69 0 0 0
M  V30 BEGIN ATOM
M  V30 1 C 4.576630 0.994144 6.179560 0
M  V30 2 N 5.180933 1.752930 5.100901 0
M  V30 3 C 5.465703 0.969131 3.951080 0
M  V30 4 C 5.060754 1.735430 2.709631 0
M  V30 5 N 3.649399 2.030749 2.865411 0
M  V30 6 C 2.588072 1.503066 2.082951 0
M  V30 7 C 2.807669 0.611919 1.056667 0
M  V30 8 C 1.733629 0.123238 0.317974 0
M  V30 9 C 0.458275 0.519658 0.601106 0
M  V30 10 C 0.293082 1.413717 1.638919 0
M  V30 11 N 1.331132 1.888740 2.356086 0
M  V30 12 N -1.048141 1.640371 1.710601 0
M  V30 13 C -1.661619 0.901250 0.742173 0
M  V30 14 C -3.105968 0.888200 0.513940 0
M  V30 15 C -4.049742 0.598757 1.488314 0
M  V30 16 C -5.388258 0.596519 1.236825 0
M  V30 17 C -5.841772 0.894755 -0.044693 0
M  V30 18 F -7.184242 0.895419 -0.308930 0
M  V30 19 C -4.960782 1.191665 -1.061206 0
M  V30 20 C -3.610711 1.176530 -0.737847 0
M  V30 21 N -0.721763 0.198439 0.045649 0
M  V30 22 C -1.003194 -0.685782 -1.046004 0
M  V30 23 C -0.832613 -0.413890 -2.396444 0
M  V30 24 C -1.174548 -1.430161 -3.279944 0
M  V30 25 N -1.645159 -2.609532 -2.824798 0
M  V30 26 C -1.805406 -2.858844 -1.509160 0
M  V30 27 N -2.303360 -4.110818 -1.062696 0
M  V30 28 C -2.633346 -5.108022 -2.061142 0
M  V30 29 C -3.703933 -4.606317 -3.001660 0
M  V30 30 C -3.321922 -5.045728 -4.382305 0
M  V30 31 C -1.878325 -5.476434 -4.343004 0
M  V30 32 C -1.466974 -5.518612 -2.905526 0
M  V30 33 N -1.481178 -1.886811 -0.607527 0
M  V30 34 C 3.378956 2.963320 3.947141 0
M  V30 35 C 4.559983 3.019363 4.888858 0
M  V30 36 H 4.224865 1.644712 6.979186 0
M  V30 37 H 3.772086 0.360010 5.736983 0
M  V30 38 H 5.348093 0.303609 6.565510 0
M  V30 39 H 6.506423 0.583411 3.907255 0
M  V30 40 H 4.779914 0.074972 3.974374 0
M  V30 41 H 5.304935 1.183107 1.782232 0
M  V30 42 H 5.614599 2.704963 2.764174 0
M  V30 43 H 3.780271 0.272797 0.797398 0
M  V30 44 H 1.923404 -0.579581 -0.489266 0
M  V30 45 H -3.682888 0.369455 2.477624 0
M  V30 46 H -6.121033 0.370267 1.999154 0
M  V30 47 H -5.325673 1.417866 -2.038210 0
M  V30 48 H -2.923411 1.408695 -1.532535 0
M  V30 49 H -0.452292 0.557701 -2.622694 0
M  V30 50 H -1.038411 -1.207801 -4.319439 0
M  V30 51 H -2.420406 -4.288016 -0.050462 0
M  V30 52 H -3.010910 -6.001889 -1.541491 0
M  V30 53 H -4.707129 -5.042045 -2.726044 0
M  V30 54 H -3.849733 -3.504100 -2.911436 0
M  V30 55 H -3.421816 -4.243389 -5.128720 0
M  V30 56 H -3.944480 -5.914760 -4.705659 0
M  V30 57 H -1.763329 -6.466544 -4.858947 0
M  V30 58 H -1.193395 -4.779316 -4.879097 0
M  V30 59 H -0.563433 -4.877040 -2.690367 0
M  V30 60 H -1.152006 -6.569391 -2.685363 0
M  V30 61 H 3.309099 3.984246 3.496958 0
M  V30 62 H 2.484983 2.705581 4.541996 0
M  V30 63 H 5.289485 3.810206 4.561520 0
M  V30 64 H 4.181396 3.380530 5.868176 0
M  V30 END ATOM
M  V30 BEGIN BOND
M  V30 1 1 1 2
M  V30 2 1 2 3
M  V30 3 1 3 4
M  V30 4 1 4 5
M  V30 5 1 5 6
M  V30 6 2 6 7
M  V30 7 1 7 8
M  V30 8 2 8 9
M  V30 9 1 9 10
M  V30 10 2 10 11
M  V30 11 1 10 12
M  V30 12 2 12 13
M  V30 13 1 13 14
M  V30 14 2 14 15
M  V30 15 1 15 16
M  V30 16 2 16 17
M  V30 17 1 17 18
M  V30 18 1 17 19
M  V30 19 2 19 20
M  V30 20 1 13 21
M  V30 21 1 21 22
M  V30 22 2 22 23
M  V30 23 1 23 24
M  V30 24 2 24 25
M  V30 25 1 25 26
M  V30 26 1 26 27
M  V30 27 1 27 28
M  V30 28 1 28 29
M  V30 29 1 29 30
M  V30 30 1 30 31
M  V30 31 1 31 32
M  V30 32 2 26 33
M  V30 33 1 5 34
M  V30 34 1 34 35
M  V30 35 1 35 2
M  V30 36 1 11 6
M  V30 37 1 20 14
M  V30 38 1 33 22
M  V30 39 1 21 9
M  V30 40 1 32 28
M  V30 41 1 1 36
M  V30 42 1 1 37
M  V30 43 1 1 38
M  V30 44 1 3 39
M  V30 45 1 3 40
M  V30 46 1 4 41
M  V30 47 1 4 42
M  V30 48 1 7 43
M  V30 49 1 8 44
M  V30 50 1 15 45
M  V30 51 1 16 46
M  V30 52 1 19 47
M  V30 53 1 20 48
M  V30 54 1 23 49
M  V30 55 1 24 50
M  V30 56 1 27 51
M  V30 57 1 28 52
M  V30 58 1 29 53
M  V30 59 1 29 54
M  V30 60 1 30 55
M  V30 61 1 30 56
M  V30 62 1 31 57
M  V30 63 1 31 58
M  V30 64 1 32 59
M  V30 65 1 32 60
M  V30 66 1 34 61
M  V30 67 1 34 62
M  V30 68 1 35 63
M  V30 69 1 35 64
M  V30 END BOND
M  V30 END CTAB
M  END
>  <Dataset>  (822) 
ChEMBL_Kinases

>  <Ligand_Instance>  (822) 
nan

>  <PDB_ID>  (822) 
nan

>  <Standardized_SMILES>  (822) 
CN1CCN(c2ccc3c(n2)nc(-c2ccc(F)cc2)n3-c2ccnc(NC3CCCC3)n2)CC1

>  <Name>  (822) 
nan

>  <Pocket>  (822) 
nan

>  <ATP_Site>  (822) 
nan

>  <Peripheral>  (822) 
nan

>  <Num_H_Atoms_ProtBoundConf>  (822) 
nan

>  <Num_Resolved_Atoms>  (822) 
nan

>  <Num_Not_Resolved_Atoms>  (822) 
nan

$$$$
CHEMBL604934
     RDKit          3D

  0  0  0  0  0  0  0  0  0  0999 V3000
M  V30 BEGIN CTAB
M  V30 COUNTS 49 53 0 0 0
M  V30 BEGIN ATOM
M  V30 1 C -0.566776 -6.500129 2.004891 0
M  V30 2 C 0.019456 -5.388147 1.447632 0
M  V30 3 C -0.448879 -4.107762 1.579280 0
M  V30 4 C 0.143268 -2.913509 1.006388 0
M  V30 5 C 1.285957 -3.011649 0.247859 0
M  V30 6 N 1.898904 -1.944147 -0.320741 0
M  V30 7 C 1.371569 -0.697050 -0.144162 0
M  V30 8 N 2.009745 0.417043 -0.747471 0
M  V30 9 C 1.394589 1.272491 -1.744072 0
M  V30 10 C 2.341491 2.384783 -2.041867 0
M  V30 11 C 3.585244 2.095835 -1.269039 0
M  V30 12 C 3.361325 0.860654 -0.461766 0
M  V30 13 C 0.239835 -0.612059 0.609259 0
M  V30 14 N -0.391031 0.633271 0.870776 0
M  V30 15 C 0.295196 1.671346 1.608439 0
M  V30 16 C -0.141659 3.000590 1.062621 0
M  V30 17 N -1.410440 3.077940 0.477394 0
M  V30 18 C -2.313534 2.009605 0.588737 0
M  V30 19 C -1.712394 0.648681 0.315279 0
M  V30 20 N -0.346074 -1.685200 1.160156 0
M  V30 21 C -1.609823 -4.002921 2.349312 0
M  V30 22 C -2.420516 -2.962511 2.747212 0
M  V30 23 C -3.463650 -3.440212 3.521779 0
M  V30 24 N -3.306391 -4.755339 3.605533 0
M  V30 25 C -2.219953 -5.105337 2.921330 0
M  V30 26 N -1.668267 -6.337854 2.726398 0
M  V30 27 H -0.163462 -7.490361 1.875306 0
M  V30 28 H 0.910756 -5.543389 0.867221 0
M  V30 29 H 1.798837 -3.923859 0.032752 0
M  V30 30 H 1.246164 0.632020 -2.665249 0
M  V30 31 H 0.389334 1.617301 -1.425339 0
M  V30 32 H 2.579064 2.421081 -3.139310 0
M  V30 33 H 1.909098 3.351716 -1.740876 0
M  V30 34 H 4.458174 1.986546 -1.973062 0
M  V30 35 H 3.818607 2.970153 -0.600998 0
M  V30 36 H 4.075376 0.064923 -0.818553 0
M  V30 37 H 3.546605 1.033342 0.619094 0
M  V30 38 H 0.074395 1.588737 2.709366 0
M  V30 39 H 1.395880 1.574034 1.536139 0
M  V30 40 H -0.067518 3.793773 1.843513 0
M  V30 41 H 0.627574 3.277672 0.281813 0
M  V30 42 H -1.515864 3.698022 -0.342879 0
M  V30 43 H -3.105053 2.143688 -0.202511 0
M  V30 44 H -2.827544 1.931827 1.569207 0
M  V30 45 H -1.694754 0.416635 -0.752325 0
M  V30 46 H -2.282244 -0.154451 0.837940 0
M  V30 47 H -2.281378 -1.921315 2.502539 0
M  V30 48 H -4.246613 -2.829950 3.963162 0
M  V30 49 H -3.979727 -5.354009 4.147492 0
M  V30 END ATOM
M  V30 BEGIN BOND
M  V30 1 2 1 2
M  V30 2 1 2 3
M  V30 3 1 3 4
M  V30 4 2 4 5
M  V30 5 1 5 6
M  V30 6 2 6 7
M  V30 7 1 7 8
M  V30 8 1 8 9
M  V30 9 1 9 10
M  V30 10 1 10 11
M  V30 11 1 11 12
M  V30 12 1 7 13
M  V30 13 1 13 14
M  V30 14 1 14 15
M  V30 15 1 15 16
M  V30 16 1 16 17
M  V30 17 1 17 18
M  V30 18 1 18 19
M  V30 19 2 13 20
M  V30 20 2 3 21
M  V30 21 1 21 22
M  V30 22 2 22 23
M  V30 23 1 23 24
M  V30 24 1 24 25
M  V30 25 2 25 26
M  V30 26 1 26 1
M  V30 27 1 20 4
M  V30 28 1 25 21
M  V30 29 1 12 8
M  V30 30 1 19 14
M  V30 31 1 1 27
M  V30 32 1 2 28
M  V30 33 1 5 29
M  V30 34 1 9 30
M  V30 35 1 9 31
M  V30 36 1 10 32
M  V30 37 1 10 33
M  V30 38 1 11 34
M  V30 39 1 11 35
M  V30 40 1 12 36
M  V30 41 1 12 37
M  V30 42 1 15 38
M  V30 43 1 15 39
M  V30 44 1 16 40
M  V30 45 1 16 41
M  V30 46 1 17 42
M  V30 47 1 18 43
M  V30 48 1 18 44
M  V30 49 1 19 45
M  V30 50 1 19 46
M  V30 51 1 22 47
M  V30 52 1 23 48
M  V30 53 1 24 49
M  V30 END BOND
M  V30 END CTAB
M  END
>  <Dataset>  (823) 
ChEMBL_Kinases

>  <Ligand_Instance>  (823) 
nan

>  <PDB_ID>  (823) 
nan

>  <Standardized_SMILES>  (823) 
c1cc(-c2cnc(N3CCCC3)c(N3CCNCC3)n2)c2cc[nH]c2n1

>  <Name>  (823) 
nan

>  <Pocket>  (823) 
nan

>  <ATP_Site>  (823) 
nan

>  <Peripheral>  (823) 
nan

>  <Num_H_Atoms_ProtBoundConf>  (823) 
nan

>  <Num_Resolved_Atoms>  (823) 
nan

>  <Num_Not_Resolved_Atoms>  (823) 
nan

$$$$
CHEMBL2063461
     RDKit          3D

  0  0  0  0  0  0  0  0  0  0999 V3000
M  V30 BEGIN CTAB
M  V30 COUNTS 52 55 0 0 0
M  V30 BEGIN ATOM
M  V30 1 C 0.390727 -4.923789 5.918484 0
M  V30 2 C 1.055289 -4.045014 4.927566 0
M  V30 3 C 0.661381 -3.833706 3.630609 0
M  V30 4 C 1.344671 -2.997775 2.782143 0
M  V30 5 C 2.472741 -2.308452 3.163213 0
M  V30 6 N 3.248541 -1.412638 2.390964 0
M  V30 7 C 3.019120 -0.983273 1.062937 0
M  V30 8 O 2.020114 -1.412901 0.438144 0
M  V30 9 N 3.843194 -0.091858 0.376315 0
M  V30 10 C 3.699030 0.424931 -0.964003 0
M  V30 11 C 2.656367 1.466448 -0.912522 0
M  V30 12 C 2.994099 2.783313 -0.560762 0
M  V30 13 C 2.040269 3.772591 -0.505710 0
M  V30 14 C 0.708247 3.501083 -0.796725 0
M  V30 15 C 0.325259 2.206946 -1.151271 0
M  V30 16 N -1.045146 1.984126 -1.420563 0
M  V30 17 C -1.698345 0.808068 -1.880493 0
M  V30 18 O -1.013953 -0.188291 -2.101933 0
M  V30 19 C -3.131548 0.703709 -2.106891 0
M  V30 20 C -4.057928 1.520162 -2.712028 0
M  V30 21 C -5.336581 0.952258 -2.663220 0
M  V30 22 N -5.156714 -0.233989 -2.009646 0
M  V30 23 N -6.097826 -1.109116 -1.736056 0
M  V30 24 C -5.843788 -2.250137 -1.093036 0
M  V30 25 N -4.580491 -2.486434 -0.725408 0
M  V30 26 C -3.658626 -1.582818 -1.017283 0
M  V30 27 N -2.344704 -1.908073 -0.590096 0
M  V30 28 C -3.843793 -0.392962 -1.672817 0
M  V30 29 C 1.318434 1.299614 -1.181954 0
M  V30 30 C 2.866658 -2.521077 4.464994 0
M  V30 31 C 2.183683 -3.358473 5.315534 0
M  V30 32 H -0.683422 -4.915744 5.684120 0
M  V30 33 H 0.745750 -5.961496 5.893835 0
M  V30 34 H 0.480870 -4.499020 6.952891 0
M  V30 35 H -0.226079 -4.359138 3.296545 0
M  V30 36 H 0.976534 -2.883501 1.780332 0
M  V30 37 H 4.096590 -0.993173 2.795441 0
M  V30 38 H 4.694395 0.264346 0.896184 0
M  V30 39 H 3.462578 -0.376093 -1.697470 0
M  V30 40 H 4.625746 0.900882 -1.323026 0
M  V30 41 H 4.038519 3.037916 -0.322376 0
M  V30 42 H 2.326436 4.781183 -0.232889 0
M  V30 43 H 0.023432 4.339478 -0.728362 0
M  V30 44 H -1.730390 2.767690 -1.275367 0
M  V30 45 H -3.777417 2.477482 -3.153177 0
M  V30 46 H -6.250586 1.371302 -3.057565 0
M  V30 47 H -6.615491 -2.973555 -0.865330 0
M  V30 48 H -1.393750 -2.203298 -0.305735 0
M  V30 49 H -1.852790 -2.835386 -0.758765 0
M  V30 50 H 1.094273 0.281084 -1.457167 0
M  V30 51 H 3.746793 -2.020898 4.864185 0
M  V30 52 H 2.543968 -3.479078 6.328901 0
M  V30 END ATOM
M  V30 BEGIN BOND
M  V30 1 1 1 2
M  V30 2 2 2 3
M  V30 3 1 3 4
M  V30 4 2 4 5
M  V30 5 1 5 6
M  V30 6 1 6 7
M  V30 7 2 7 8
M  V30 8 1 7 9
M  V30 9 1 9 10
M  V30 10 1 10 11
M  V30 11 2 11 12
M  V30 12 1 12 13
M  V30 13 2 13 14
M  V30 14 1 14 15
M  V30 15 1 15 16
M  V30 16 1 16 17
M  V30 17 2 17 18
M  V30 18 1 17 19
M  V30 19 1 19 20
M  V30 20 2 20 21
M  V30 21 1 21 22
M  V30 22 1 22 23
M  V30 23 2 23 24
M  V30 24 1 24 25
M  V30 25 2 25 26
M  V30 26 1 26 27
M  V30 27 1 26 28
M  V30 28 2 15 29
M  V30 29 1 5 30
M  V30 30 2 30 31
M  V30 31 1 31 2
M  V30 32 1 29 11
M  V30 33 2 28 19
M  V30 34 1 28 22
M  V30 35 1 1 32
M  V30 36 1 1 33
M  V30 37 1 1 34
M  V30 38 1 3 35
M  V30 39 1 4 36
M  V30 40 1 6 37
M  V30 41 1 9 38
M  V30 42 1 10 39
M  V30 43 1 10 40
M  V30 44 1 12 41
M  V30 45 1 13 42
M  V30 46 1 14 43
M  V30 47 1 16 44
M  V30 48 1 20 45
M  V30 49 1 21 46
M  V30 50 1 24 47
M  V30 51 1 27 48
M  V30 52 1 27 49
M  V30 53 1 29 50
M  V30 54 1 30 51
M  V30 55 1 31 52
M  V30 END BOND
M  V30 END CTAB
M  END
>  <Dataset>  (824) 
ChEMBL_Kinases

>  <Ligand_Instance>  (824) 
nan

>  <PDB_ID>  (824) 
nan

>  <Standardized_SMILES>  (824) 
Cc1ccc(NC(=O)NCc2cccc(NC(=O)c3ccn4ncnc(N)c34)c2)cc1

>  <Name>  (824) 
nan

>  <Pocket>  (824) 
nan

>  <ATP_Site>  (824) 
nan

>  <Peripheral>  (824) 
nan

>  <Num_H_Atoms_ProtBoundConf>  (824) 
nan

>  <Num_Resolved_Atoms>  (824) 
nan

>  <Num_Not_Resolved_Atoms>  (824) 
nan

$$$$
CHEMBL2064537
     RDKit          3D

  0  0  0  0  0  0  0  0  0  0999 V3000
M  V30 BEGIN CTAB
M  V30 COUNTS 55 59 0 0 0
M  V30 BEGIN ATOM
M  V30 1 C 4.297982 -3.685203 1.663867 0
M  V30 2 O 3.670976 -2.643237 2.327071 0
M  V30 3 C 2.923414 -1.803924 1.524022 0
M  V30 4 C 3.819466 -1.170413 0.492104 0
M  V30 5 C 4.955292 -0.476668 1.191547 0
M  V30 6 O 4.737978 0.925785 1.300650 0
M  V30 7 C 3.530154 1.535590 1.003268 0
M  V30 8 C 3.169411 2.769328 1.558732 0
M  V30 9 C 1.939551 3.355641 1.234666 0
M  V30 10 C 1.063291 2.745292 0.373924 0
M  V30 11 C -0.231791 3.308162 0.000332 0
M  V30 12 N -0.726965 4.476418 0.447174 0
M  V30 13 N -1.922460 4.645064 -0.114687 0
M  V30 14 C -2.169429 3.577489 -0.912819 0
M  V30 15 S -3.514320 3.067882 -1.977632 0
M  V30 16 C -4.711616 2.086767 -1.026997 0
M  V30 17 C -4.107764 0.805903 -0.589451 0
M  V30 18 C -3.440513 0.605842 0.582404 0
M  V30 19 C -2.896583 -0.611354 0.938305 0
M  V30 20 C -3.004923 -1.709575 0.105132 0
M  V30 21 C -2.479893 -3.047231 0.355584 0
M  V30 22 C -1.818240 -3.668023 -0.692514 0
M  V30 23 C -1.263718 -4.918218 -0.633342 0
M  V30 24 C -1.377846 -5.601647 0.562912 0
M  V30 25 C -2.035152 -5.024535 1.654986 0
M  V30 26 C -2.573408 -3.760446 1.532534 0
M  V30 27 C -3.262519 -3.108987 2.616982 0
M  V30 28 N -3.809846 -2.593875 3.499291 0
M  V30 29 C -3.682992 -1.525202 -1.096460 0
M  V30 30 C -4.217520 -0.288621 -1.423238 0
M  V30 31 O -1.127221 2.793229 -0.817259 0
M  V30 32 C 1.426000 1.529948 -0.169105 0
M  V30 33 C 2.614323 0.938270 0.128564 0
M  V30 34 O 3.098957 -0.283248 -0.350414 0
M  V30 35 H 3.552947 -4.331860 1.142775 0
M  V30 36 H 5.066184 -3.380549 0.937668 0
M  V30 37 H 4.848146 -4.320558 2.415202 0
M  V30 38 H 2.072075 -2.349001 1.051946 0
M  V30 39 H 2.557347 -0.970212 2.165071 0
M  V30 40 H 4.161587 -2.001137 -0.190419 0
M  V30 41 H 5.857963 -0.614273 0.575750 0
M  V30 42 H 5.075971 -0.926637 2.200579 0
M  V30 43 H 3.833914 3.266078 2.232189 0
M  V30 44 H 1.663234 4.315519 1.669013 0
M  V30 45 H -4.894847 2.671560 -0.093010 0
M  V30 46 H -5.675549 1.989019 -1.539180 0
M  V30 47 H -3.338636 1.450299 1.258774 0
M  V30 48 H -2.366044 -0.777059 1.866040 0
M  V30 49 H -1.709082 -3.151871 -1.660163 0
M  V30 50 H -0.753504 -5.373310 -1.471912 0
M  V30 51 H -0.977883 -6.593645 0.721883 0
M  V30 52 H -2.120112 -5.566032 2.586985 0
M  V30 53 H -3.812222 -2.336768 -1.806724 0
M  V30 54 H -4.750728 -0.163261 -2.379618 0
M  V30 55 H 0.782247 0.976557 -0.865733 0
M  V30 END ATOM
M  V30 BEGIN BOND
M  V30 1 1 1 2
M  V30 2 1 2 3
M  V30 3 1 3 4
M  V30 4 1 4 5
M  V30 5 1 5 6
M  V30 6 1 6 7
M  V30 7 2 7 8
M  V30 8 1 8 9
M  V30 9 2 9 10
M  V30 10 1 10 11
M  V30 11 2 11 12
M  V30 12 1 12 13
M  V30 13 2 13 14
M  V30 14 1 14 15
M  V30 15 1 15 16
M  V30 16 1 16 17
M  V30 17 2 17 18
M  V30 18 1 18 19
M  V30 19 2 19 20
M  V30 20 1 20 21
M  V30 21 2 21 22
M  V30 22 1 22 23
M  V30 23 2 23 24
M  V30 24 1 24 25
M  V30 25 2 25 26
M  V30 26 1 26 27
M  V30 27 3 27 28
M  V30 28 1 20 29
M  V30 29 2 29 30
M  V30 30 1 14 31
M  V30 31 1 10 32
M  V30 32 2 32 33
M  V30 33 1 33 34
M  V30 34 1 34 4
M  V30 35 1 33 7
M  V30 36 1 31 11
M  V30 37 1 30 17
M  V30 38 1 26 21
M  V30 39 1 1 35
M  V30 40 1 1 36
M  V30 41 1 1 37
M  V30 42 1 3 38
M  V30 43 1 3 39
M  V30 44 1 4 40
M  V30 45 1 5 41
M  V30 46 1 5 42
M  V30 47 1 8 43
M  V30 48 1 9 44
M  V30 49 1 16 45
M  V30 50 1 16 46
M  V30 51 1 18 47
M  V30 52 1 19 48
M  V30 53 1 22 49
M  V30 54 1 23 50
M  V30 55 1 24 51
M  V30 56 1 25 52
M  V30 57 1 29 53
M  V30 58 1 30 54
M  V30 59 1 32 55
M  V30 END BOND
M  V30 END CTAB
M  END
>  <Dataset>  (825) 
ChEMBL_Kinases

>  <Ligand_Instance>  (825) 
nan

>  <PDB_ID>  (825) 
nan

>  <Standardized_SMILES>  (825) 
COCC1COc2ccc(-c3nnc(SCc4ccc(-c5ccccc5C#N)cc4)o3)cc2O1

>  <Name>  (825) 
nan

>  <Pocket>  (825) 
nan

>  <ATP_Site>  (825) 
nan

>  <Peripheral>  (825) 
nan

>  <Num_H_Atoms_ProtBoundConf>  (825) 
nan

>  <Num_Resolved_Atoms>  (825) 
nan

>  <Num_Not_Resolved_Atoms>  (825) 
nan

$$$$
CHEMBL4637300
     RDKit          3D

  0  0  0  0  0  0  0  0  0  0999 V3000
M  V30 BEGIN CTAB
M  V30 COUNTS 46 48 0 0 0
M  V30 BEGIN ATOM
M  V30 1 C 0.726297 -4.314891 0.084887 0
M  V30 2 C 1.580828 -3.435012 -0.803456 0
M  V30 3 O 1.618582 -2.114830 -0.247416 0
M  V30 4 C 2.342282 -1.096468 -0.874756 0
M  V30 5 O 2.850348 -1.630212 -1.895989 0
M  V30 6 C 2.450486 0.277699 -0.400038 0
M  V30 7 C 3.244695 1.045962 -1.248108 0
M  V30 8 N 3.488931 2.352421 -1.009114 0
M  V30 9 C 2.942540 2.915731 0.084540 0
M  V30 10 C 3.158125 4.255627 0.386273 0
M  V30 11 C 2.579864 4.779396 1.513582 0
M  V30 12 Cl 2.950258 6.491838 1.754428 0
M  V30 13 C 1.792227 4.050773 2.371027 0
M  V30 14 C 1.579867 2.722625 2.069815 0
M  V30 15 Cl 0.586345 1.795451 3.159705 0
M  V30 16 C 2.149658 2.195037 0.953004 0
M  V30 17 C 1.891281 0.859963 0.721520 0
M  V30 18 N 1.100679 -0.028053 1.503657 0
M  V30 19 C -0.286263 -0.145003 1.120430 0
M  V30 20 C -0.742472 0.566968 0.031351 0
M  V30 21 C -2.079434 0.420241 -0.287990 0
M  V30 22 C -2.923374 -0.393761 0.438320 0
M  V30 23 C -2.452040 -1.109393 1.537945 0
M  V30 24 S -3.624877 -2.084592 2.352777 0
M  V30 25 O -3.284933 -2.218735 3.830950 0
M  V30 26 O -4.984719 -1.433003 2.270731 0
M  V30 27 N -3.748129 -3.673500 1.741395 0
M  V30 28 C -2.498626 -4.396668 1.883925 0
M  V30 29 C -1.131004 -0.971751 1.862708 0
M  V30 30 H -0.321561 -4.338519 -0.315178 0
M  V30 31 H 1.112762 -5.364359 0.126181 0
M  V30 32 H 0.767181 -3.938641 1.130817 0
M  V30 33 H 2.621723 -3.817610 -0.877870 0
M  V30 34 H 1.104671 -3.436552 -1.805421 0
M  V30 35 H 3.737945 0.698579 -2.159932 0
M  V30 36 H 3.785525 4.798998 -0.314125 0
M  V30 37 H 1.390507 4.568309 3.226668 0
M  V30 38 H 1.450368 -0.584579 2.314176 0
M  V30 39 H -0.102832 1.212073 -0.555432 0
M  V30 40 H -2.473477 0.975348 -1.151597 0
M  V30 41 H -3.949679 -0.442382 0.110914 0
M  V30 42 H -4.088591 -3.746687 0.778061 0
M  V30 43 H -1.699038 -3.682629 2.148422 0
M  V30 44 H -2.282194 -4.940055 0.927020 0
M  V30 45 H -2.655225 -5.156242 2.681001 0
M  V30 46 H -0.787211 -1.535381 2.718091 0
M  V30 END ATOM
M  V30 BEGIN BOND
M  V30 1 1 1 2
M  V30 2 1 2 3
M  V30 3 1 3 4
M  V30 4 2 4 5
M  V30 5 1 4 6
M  V30 6 2 6 7
M  V30 7 1 7 8
M  V30 8 2 8 9
M  V30 9 1 9 10
M  V30 10 2 10 11
M  V30 11 1 11 12
M  V30 12 1 11 13
M  V30 13 2 13 14
M  V30 14 1 14 15
M  V30 15 1 14 16
M  V30 16 2 16 17
M  V30 17 1 17 18
M  V30 18 1 18 19
M  V30 19 2 19 20
M  V30 20 1 20 21
M  V30 21 2 21 22
M  V30 22 1 22 23
M  V30 23 1 23 24
M  V30 24 2 24 25
M  V30 25 2 24 26
M  V30 26 1 24 27
M  V30 27 1 27 28
M  V30 28 2 23 29
M  V30 29 1 17 6
M  V30 30 1 29 19
M  V30 31 1 16 9
M  V30 32 1 1 30
M  V30 33 1 1 31
M  V30 34 1 1 32
M  V30 35 1 2 33
M  V30 36 1 2 34
M  V30 37 1 7 35
M  V30 38 1 10 36
M  V30 39 1 13 37
M  V30 40 1 18 38
M  V30 41 1 20 39
M  V30 42 1 21 40
M  V30 43 1 22 41
M  V30 44 1 27 42
M  V30 45 1 28 43
M  V30 46 1 28 44
M  V30 47 1 28 45
M  V30 48 1 29 46
M  V30 END BOND
M  V30 END CTAB
M  END
>  <Dataset>  (826) 
ChEMBL_Kinases

>  <Ligand_Instance>  (826) 
nan

>  <PDB_ID>  (826) 
nan

>  <Standardized_SMILES>  (826) 
CCOC(=O)c1cnc2cc(Cl)cc(Cl)c2c1Nc1cccc(S(=O)(=O)NC)c1

>  <Name>  (826) 
nan

>  <Pocket>  (826) 
nan

>  <ATP_Site>  (826) 
nan

>  <Peripheral>  (826) 
nan

>  <Num_H_Atoms_ProtBoundConf>  (826) 
nan

>  <Num_Resolved_Atoms>  (826) 
nan

>  <Num_Not_Resolved_Atoms>  (826) 
nan

$$$$
CHEMBL2064516
     RDKit          3D

  0  0  0  0  0  0  0  0  0  0999 V3000
M  V30 BEGIN CTAB
M  V30 COUNTS 35 38 0 0 0
M  V30 BEGIN ATOM
M  V30 1 N 0.525102 -2.054162 4.045419 0
M  V30 2 C 0.831689 -2.368777 2.970794 0
M  V30 3 C 1.220980 -2.772115 1.647187 0
M  V30 4 C 0.539832 -3.729796 0.918182 0
M  V30 5 C 0.985284 -4.061963 -0.354759 0
M  V30 6 C 2.104236 -3.446804 -0.905629 0
M  V30 7 C 2.810253 -2.497378 -0.229020 0
M  V30 8 C 4.005318 -1.783818 -0.709876 0
M  V30 9 S 3.552078 -0.253625 -1.608114 0
M  V30 10 C 2.790385 0.866765 -0.405195 0
M  V30 11 N 3.029431 1.840513 0.489170 0
M  V30 12 N 1.877604 2.194196 1.020924 0
M  V30 13 C 0.881205 1.443435 0.467348 0
M  V30 14 C -0.538704 1.574481 0.830874 0
M  V30 15 C -0.981324 2.474435 1.774167 0
M  V30 16 C -2.323536 2.558323 2.078501 0
M  V30 17 C -3.160679 1.702399 1.390988 0
M  V30 18 C -2.780163 0.781922 0.438244 0
M  V30 19 C -1.411811 0.723023 0.153452 0
M  V30 20 O -3.954212 0.139867 0.013535 0
M  V30 21 C -5.032692 1.036457 0.321000 0
M  V30 22 O -4.550426 1.602615 1.526916 0
M  V30 23 O 1.506219 0.672158 -0.377341 0
M  V30 24 C 2.319639 -2.200813 1.046220 0
M  V30 25 H -0.332961 -4.195347 1.373177 0
M  V30 26 H 0.416909 -4.810178 -0.876848 0
M  V30 27 H 2.444002 -3.710594 -1.896262 0
M  V30 28 H 4.592649 -1.461572 0.173157 0
M  V30 29 H 4.674273 -2.408775 -1.331770 0
M  V30 30 H -0.225698 3.105889 2.258396 0
M  V30 31 H -2.678066 3.261450 2.816526 0
M  V30 32 H -1.125216 -0.002712 -0.594562 0
M  V30 33 H -5.998125 0.540272 0.405230 0
M  V30 34 H -4.966944 1.820488 -0.464068 0
M  V30 35 H 2.847632 -1.451713 1.623323 0
M  V30 END ATOM
M  V30 BEGIN BOND
M  V30 1 3 1 2
M  V30 2 1 2 3
M  V30 3 2 3 4
M  V30 4 1 4 5
M  V30 5 2 5 6
M  V30 6 1 6 7
M  V30 7 1 7 8
M  V30 8 1 8 9
M  V30 9 1 9 10
M  V30 10 2 10 11
M  V30 11 1 11 12
M  V30 12 2 12 13
M  V30 13 1 13 14
M  V30 14 2 14 15
M  V30 15 1 15 16
M  V30 16 2 16 17
M  V30 17 1 17 18
M  V30 18 2 18 19
M  V30 19 1 18 20
M  V30 20 1 20 21
M  V30 21 1 21 22
M  V30 22 1 13 23
M  V30 23 2 7 24
M  V30 24 1 24 3
M  V30 25 1 23 10
M  V30 26 1 19 14
M  V30 27 1 22 17
M  V30 28 1 4 25
M  V30 29 1 5 26
M  V30 30 1 6 27
M  V30 31 1 8 28
M  V30 32 1 8 29
M  V30 33 1 15 30
M  V30 34 1 16 31
M  V30 35 1 19 32
M  V30 36 1 21 33
M  V30 37 1 21 34
M  V30 38 1 24 35
M  V30 END BOND
M  V30 END CTAB
M  END
>  <Dataset>  (827) 
ChEMBL_Kinases

>  <Ligand_Instance>  (827) 
nan

>  <PDB_ID>  (827) 
nan

>  <Standardized_SMILES>  (827) 
N#Cc1cccc(CSc2nnc(-c3ccc4c(c3)OCO4)o2)c1

>  <Name>  (827) 
nan

>  <Pocket>  (827) 
nan

>  <ATP_Site>  (827) 
nan

>  <Peripheral>  (827) 
nan

>  <Num_H_Atoms_ProtBoundConf>  (827) 
nan

>  <Num_Resolved_Atoms>  (827) 
nan

>  <Num_Not_Resolved_Atoms>  (827) 
nan

$$$$
CHEMBL488706
     RDKit          3D

  0  0  0  0  0  0  0  0  0  0999 V3000
M  V30 BEGIN CTAB
M  V30 COUNTS 56 57 0 0 0
M  V30 BEGIN ATOM
M  V30 1 C 1.481310 -4.206751 3.850421 0
M  V30 2 C 1.444376 -2.995484 2.889267 0
M  V30 3 C 1.882692 -1.756262 3.606674 0
M  V30 4 C 1.871212 -0.511573 2.847334 0
M  V30 5 C 2.665447 -0.226938 1.672991 0
M  V30 6 C 2.599629 -0.989921 0.427052 0
M  V30 7 C 3.572754 -0.347835 -0.610800 0
M  V30 8 C 2.392537 1.227783 1.293164 0
M  V30 9 O 3.065301 2.252743 1.131302 0
M  V30 10 O 1.028828 1.345509 1.097621 0
M  V30 11 C 0.385734 2.543183 0.719680 0
M  V30 12 C -1.096350 2.222587 0.654654 0
M  V30 13 C -1.919273 3.255540 -0.034424 0
M  V30 14 O -2.075648 4.445931 0.657118 0
M  V30 15 C -1.212189 0.935459 -0.177262 0
M  V30 16 C -2.364323 0.270928 0.466595 0
M  V30 17 C -2.984356 -0.799133 0.029187 0
M  V30 18 C -2.758758 -1.606726 -1.131622 0
M  V30 19 C -2.511539 -1.262303 -2.440118 0
M  V30 20 C -2.291941 -2.135229 -3.478490 0
M  V30 21 C -2.314491 -3.483546 -3.230381 0
M  V30 22 N -2.091115 -4.397558 -4.289367 0 CHG=1 VAL=4
M  V30 23 O -1.876985 -3.993772 -5.467888 0
M  V30 24 O -2.085480 -5.756898 -4.159980 0 CHG=-1 VAL=1
M  V30 25 C -2.552904 -3.935320 -1.963388 0
M  V30 26 C -2.767252 -2.994609 -0.953331 0
M  V30 27 C -2.709242 0.996772 1.704735 0
M  V30 28 O -3.767062 0.889996 2.415739 0
M  V30 29 O -1.597577 1.816233 1.892420 0
M  V30 30 H 2.391328 -4.788827 3.708129 0
M  V30 31 H 0.561948 -4.799044 3.668632 0
M  V30 32 H 1.360216 -3.778468 4.883143 0
M  V30 33 H 1.970513 -3.256974 1.979544 0
M  V30 34 H 0.347997 -2.852516 2.667193 0
M  V30 35 H 1.120233 -1.651475 4.453497 0
M  V30 36 H 2.825766 -1.934676 4.193367 0
M  V30 37 H 2.041512 0.362884 3.577767 0
M  V30 38 H 0.754152 -0.308573 2.609133 0
M  V30 39 H 3.778717 -0.167681 1.951027 0
M  V30 40 H 1.657859 -1.091624 -0.091771 0
M  V30 41 H 3.090088 -2.006407 0.539662 0
M  V30 42 H 3.050284 0.542852 -1.014181 0
M  V30 43 H 3.728094 -1.055412 -1.445338 0
M  V30 44 H 4.530525 -0.133971 -0.140658 0
M  V30 45 H 0.590265 3.283963 1.494061 0
M  V30 46 H 0.727798 2.835572 -0.268501 0
M  V30 47 H -2.924869 2.832684 -0.232568 0
M  V30 48 H -1.499075 3.446950 -1.063502 0
M  V30 49 H -1.222785 4.945589 0.775790 0
M  V30 50 H -1.432058 1.224880 -1.218129 0
M  V30 51 H -0.278493 0.331933 -0.072156 0
M  V30 52 H -3.831802 -1.162163 0.632114 0
M  V30 53 H -2.500125 -0.228129 -2.668545 0
M  V30 54 H -2.105213 -1.753194 -4.471974 0
M  V30 55 H -2.570865 -4.998166 -1.761295 0
M  V30 56 H -2.951841 -3.448676 0.019501 0
M  V30 END ATOM
M  V30 BEGIN BOND
M  V30 1 1 1 2
M  V30 2 1 2 3
M  V30 3 1 3 4
M  V30 4 1 4 5
M  V30 5 1 5 6
M  V30 6 1 6 7
M  V30 7 1 5 8
M  V30 8 2 8 9
M  V30 9 1 8 10
M  V30 10 1 10 11
M  V30 11 1 11 12
M  V30 12 1 12 13
M  V30 13 1 13 14
M  V30 14 1 12 15
M  V30 15 1 15 16
M  V30 16 2 16 17
M  V30 17 1 17 18
M  V30 18 2 18 19
M  V30 19 1 19 20
M  V30 20 2 20 21
M  V30 21 1 21 22
M  V30 22 2 22 23
M  V30 23 1 22 24
M  V30 24 1 21 25
M  V30 25 2 25 26
M  V30 26 1 16 27
M  V30 27 2 27 28
M  V30 28 1 27 29
M  V30 29 1 29 12
M  V30 30 1 26 18
M  V30 31 1 1 30
M  V30 32 1 1 31
M  V30 33 1 1 32
M  V30 34 1 2 33
M  V30 35 1 2 34
M  V30 36 1 3 35
M  V30 37 1 3 36
M  V30 38 1 4 37
M  V30 39 1 4 38
M  V30 40 1 5 39
M  V30 41 1 6 40
M  V30 42 1 6 41
M  V30 43 1 7 42
M  V30 44 1 7 43
M  V30 45 1 7 44
M  V30 46 1 11 45
M  V30 47 1 11 46
M  V30 48 1 13 47
M  V30 49 1 13 48
M  V30 50 1 14 49
M  V30 51 1 15 50
M  V30 52 1 15 51
M  V30 53 1 17 52
M  V30 54 1 19 53
M  V30 55 1 20 54
M  V30 56 1 25 55
M  V30 57 1 26 56
M  V30 END BOND
M  V30 END CTAB
M  END
>  <Dataset>  (828) 
ChEMBL_Kinases

>  <Ligand_Instance>  (828) 
nan

>  <PDB_ID>  (828) 
nan

>  <Standardized_SMILES>  (828) 
CCCCC(CC)C(=O)OCC1(CO)C/C(=C\c2ccc([N+](=O)[O-])cc2)C(=O)O1

>  <Name>  (828) 
nan

>  <Pocket>  (828) 
nan

>  <ATP_Site>  (828) 
nan

>  <Peripheral>  (828) 
nan

>  <Num_H_Atoms_ProtBoundConf>  (828) 
nan

>  <Num_Resolved_Atoms>  (828) 
nan

>  <Num_Not_Resolved_Atoms>  (828) 
nan

$$$$
CHEMBL489410
     RDKit          3D

  0  0  0  0  0  0  0  0  0  0999 V3000
M  V30 BEGIN CTAB
M  V30 COUNTS 41 45 0 0 0
M  V30 BEGIN ATOM
M  V30 1 C -1.213696 -3.803052 4.008213 0
M  V30 2 N -0.565880 -2.994420 3.030084 0
M  V30 3 C -0.761985 -3.175940 1.709312 0
M  V30 4 C -0.027891 -2.264107 0.970721 0
M  V30 5 C 0.133399 -2.066952 -0.464382 0
M  V30 6 C 0.012050 -0.982351 -1.226618 0
M  V30 7 C -0.336973 0.392441 -0.826426 0
M  V30 8 C -1.423731 0.667869 0.007552 0
M  V30 9 O -1.488954 1.979982 0.209548 0
M  V30 10 C -0.495246 2.580306 -0.452256 0
M  V30 11 C -0.081926 3.885094 -0.602601 0
M  V30 12 C 1.029146 4.153964 -1.387304 0
M  V30 13 C 1.755760 3.180619 -2.035891 0
M  V30 14 C 1.357084 1.869150 -1.898435 0
M  V30 15 C 0.234748 1.616244 -1.105125 0
M  V30 16 C 0.270688 -1.304542 -2.624864 0
M  V30 17 O 0.252533 -0.554716 -3.653644 0
M  V30 18 N 0.570950 -2.678363 -2.716265 0
M  V30 19 C 0.486282 -3.154890 -1.375483 0
M  V30 20 O 0.706601 -4.376648 -1.119937 0
M  V30 21 C 0.632330 -1.511642 1.951691 0
M  V30 22 C 1.521552 -0.466248 1.898320 0
M  V30 23 C 2.040206 0.089469 3.043334 0
M  V30 24 C 1.688140 -0.383555 4.308487 0
M  V30 25 C 0.791248 -1.441587 4.387004 0
M  V30 26 O 0.409494 -1.952026 5.619967 0
M  V30 27 C 0.291408 -1.972815 3.227372 0
M  V30 28 H -0.680061 -3.932860 4.941379 0
M  V30 29 H -2.175087 -3.269340 4.273315 0
M  V30 30 H -1.494017 -4.811391 3.609786 0
M  V30 31 H -1.381677 -3.895496 1.175996 0
M  V30 32 H -2.176369 0.033962 0.490637 0
M  V30 33 H -0.667429 4.629085 -0.082933 0
M  V30 34 H 1.309932 5.195226 -1.466302 0
M  V30 35 H 2.628252 3.412829 -2.645916 0
M  V30 36 H 1.935914 1.109300 -2.398068 0
M  V30 37 H 0.804120 -3.199220 -3.605029 0
M  V30 38 H 1.856153 -0.035231 0.951148 0
M  V30 39 H 2.740700 0.908623 3.069796 0
M  V30 40 H 2.089583 0.044670 5.231922 0
M  V30 41 H 0.975483 -2.617490 6.126977 0
M  V30 END ATOM
M  V30 BEGIN BOND
M  V30 1 1 1 2
M  V30 2 1 2 3
M  V30 3 2 3 4
M  V30 4 1 4 5
M  V30 5 2 5 6
M  V30 6 1 6 7
M  V30 7 2 7 8
M  V30 8 1 8 9
M  V30 9 1 9 10
M  V30 10 2 10 11
M  V30 11 1 11 12
M  V30 12 2 12 13
M  V30 13 1 13 14
M  V30 14 2 14 15
M  V30 15 1 6 16
M  V30 16 2 16 17
M  V30 17 1 16 18
M  V30 18 1 18 19
M  V30 19 2 19 20
M  V30 20 1 4 21
M  V30 21 2 21 22
M  V30 22 1 22 23
M  V30 23 2 23 24
M  V30 24 1 24 25
M  V30 25 1 25 26
M  V30 26 2 25 27
M  V30 27 1 27 2
M  V30 28 1 19 5
M  V30 29 1 27 21
M  V30 30 1 15 7
M  V30 31 1 15 10
M  V30 32 1 1 28
M  V30 33 1 1 29
M  V30 34 1 1 30
M  V30 35 1 3 31
M  V30 36 1 8 32
M  V30 37 1 11 33
M  V30 38 1 12 34
M  V30 39 1 13 35
M  V30 40 1 14 36
M  V30 41 1 18 37
M  V30 42 1 22 38
M  V30 43 1 23 39
M  V30 44 1 24 40
M  V30 45 1 26 41
M  V30 END BOND
M  V30 END CTAB
M  END
>  <Dataset>  (829) 
ChEMBL_Kinases

>  <Ligand_Instance>  (829) 
nan

>  <PDB_ID>  (829) 
nan

>  <Standardized_SMILES>  (829) 
Cn1cc(C2=C(c3coc4ccccc34)C(=O)NC2=O)c2cccc(O)c21

>  <Name>  (829) 
nan

>  <Pocket>  (829) 
nan

>  <ATP_Site>  (829) 
nan

>  <Peripheral>  (829) 
nan

>  <Num_H_Atoms_ProtBoundConf>  (829) 
nan

>  <Num_Resolved_Atoms>  (829) 
nan

>  <Num_Not_Resolved_Atoms>  (829) 
nan

$$$$
CHEMBL3914249
     RDKit          3D

  0  0  0  0  0  0  0  0  0  0999 V3000
M  V30 BEGIN CTAB
M  V30 COUNTS 55 59 0 0 0
M  V30 BEGIN ATOM
M  V30 1 O -4.609176 -2.656777 3.915755 0
M  V30 2 C -4.167327 -2.237045 2.804182 0
M  V30 3 N -4.814952 -2.514740 1.661577 0
M  V30 4 N -4.111294 -1.946031 0.710382 0
M  V30 5 C -3.029676 -1.316030 1.253628 0
M  V30 6 C -1.924083 -0.528978 0.633819 0 CFG=2
M  V30 7 C -2.391189 0.898432 0.607200 0
M  V30 8 C -1.428084 1.846991 0.024167 0
M  V30 9 C -1.510412 2.070993 -1.342147 0
M  V30 10 N -0.648780 2.931165 -1.917296 0
M  V30 11 C 0.286045 3.573762 -1.192201 0
M  V30 12 C 0.370584 3.352693 0.169266 0
M  V30 13 N 1.351320 4.019538 0.963988 0
M  V30 14 C 1.503333 3.844713 2.378126 0
M  V30 15 C 2.423992 4.453230 3.205578 0
M  V30 16 C 2.167053 3.962640 4.463048 0
M  V30 17 N 1.134112 3.095387 4.390903 0
M  V30 18 N 0.734294 3.027585 3.119948 0
M  V30 19 N -0.486153 2.492873 0.762196 0
M  V30 20 C -1.674915 -1.102792 -0.741360 0
M  V30 21 C -1.376221 -2.576429 -0.561462 0
M  V30 22 C 0.032116 -2.664706 0.037437 0 CFG=1
M  V30 23 O 0.880313 -2.964269 -1.027330 0
M  V30 24 C 1.692297 -4.054039 -1.177733 0
M  V30 25 C 2.344947 -3.900884 -2.412135 0
M  V30 26 C 3.260432 -4.851254 -2.882843 0
M  V30 27 C 3.546539 -5.977692 -2.132466 0
M  V30 28 C 2.905880 -6.127396 -0.921437 0
M  V30 29 Cl 3.130169 -7.476171 0.170739 0
M  V30 30 C 2.010343 -5.189677 -0.469706 0
M  V30 31 F 1.344999 -5.258691 0.694429 0
M  V30 32 C 0.435573 -1.325450 0.627679 0
M  V30 33 C -0.667725 -0.715895 1.448239 0
M  V30 34 O -3.101009 -1.519040 2.543819 0
M  V30 35 H -5.681155 -3.041977 1.413022 0
M  V30 36 H -3.337874 0.909597 0.023678 0
M  V30 37 H -2.637886 1.168372 1.652516 0
M  V30 38 H -2.236778 1.588411 -1.983162 0
M  V30 39 H 1.006465 4.281543 -1.620078 0
M  V30 40 H 2.010698 4.686607 0.483280 0
M  V30 41 H 3.168519 5.162742 2.865901 0
M  V30 42 H 2.790624 4.315763 5.297413 0
M  V30 43 H 0.815336 2.629474 5.288655 0
M  V30 44 H -2.622549 -0.961078 -1.331713 0
M  V30 45 H -0.810448 -0.639614 -1.247964 0
M  V30 46 H -1.442084 -3.117861 -1.534623 0
M  V30 47 H -2.083187 -3.057331 0.144172 0
M  V30 48 H 0.071802 -3.444120 0.816063 0
M  V30 49 H 2.275107 -3.107855 -3.155872 0
M  V30 50 H 3.806112 -4.817946 -3.812412 0
M  V30 51 H 4.231121 -6.765006 -2.401523 0
M  V30 52 H 0.885923 -0.642729 -0.112555 0
M  V30 53 H 1.272809 -1.565688 1.342935 0
M  V30 54 H -0.305841 0.225281 1.864703 0
M  V30 55 H -0.844976 -1.413537 2.306823 0
M  V30 END ATOM
M  V30 BEGIN BOND
M  V30 1 2 1 2
M  V30 2 1 2 3
M  V30 3 1 3 4
M  V30 4 2 4 5
M  V30 5 1 5 6
M  V30 6 1 6 7 CFG=3
M  V30 7 1 7 8
M  V30 8 2 8 9
M  V30 9 1 9 10
M  V30 10 2 10 11
M  V30 11 1 11 12
M  V30 12 1 12 13
M  V30 13 1 13 14
M  V30 14 1 14 15
M  V30 15 2 15 16
M  V30 16 1 16 17
M  V30 17 1 17 18
M  V30 18 2 12 19
M  V30 19 1 6 20
M  V30 20 1 20 21
M  V30 21 1 21 22
M  V30 22 1 22 23
M  V30 23 1 23 24
M  V30 24 2 24 25
M  V30 25 1 25 26
M  V30 26 2 26 27
M  V30 27 1 27 28
M  V30 28 1 28 29
M  V30 29 2 28 30
M  V30 30 1 30 31
M  V30 31 1 22 32
M  V30 32 1 32 33
M  V30 33 1 5 34
M  V30 34 1 34 2
M  V30 35 1 33 6
M  V30 36 1 19 8
M  V30 37 1 30 24
M  V30 38 2 18 14
M  V30 39 1 3 35
M  V30 40 1 7 36
M  V30 41 1 7 37
M  V30 42 1 9 38
M  V30 43 1 11 39
M  V30 44 1 13 40
M  V30 45 1 15 41
M  V30 46 1 16 42
M  V30 47 1 17 43
M  V30 48 1 20 44
M  V30 49 1 20 45
M  V30 50 1 21 46
M  V30 51 1 21 47
M  V30 52 1 22 48 CFG=1
M  V30 53 1 25 49
M  V30 54 1 26 50
M  V30 55 1 27 51
M  V30 56 1 32 52
M  V30 57 1 32 53
M  V30 58 1 33 54
M  V30 59 1 33 55
M  V30 END BOND
M  V30 END CTAB
M  END
>  <Dataset>  (830) 
ChEMBL_Kinases

>  <Ligand_Instance>  (830) 
nan

>  <PDB_ID>  (830) 
nan

>  <Standardized_SMILES>  (830) 
O=c1[nH]nc([C@]2(Cc3cncc(Nc4cc[nH]n4)n3)CC[C@@H](Oc3cccc(Cl)c3F)CC2)o1

>  <Name>  (830) 
nan

>  <Pocket>  (830) 
nan

>  <ATP_Site>  (830) 
nan

>  <Peripheral>  (830) 
nan

>  <Num_H_Atoms_ProtBoundConf>  (830) 
nan

>  <Num_Resolved_Atoms>  (830) 
nan

>  <Num_Not_Resolved_Atoms>  (830) 
nan

$$$$
CHEMBL3912951
     RDKit          3D

  0  0  0  0  0  0  0  0  0  0999 V3000
M  V30 BEGIN CTAB
M  V30 COUNTS 29 31 0 0 0
M  V30 BEGIN ATOM
M  V30 1 C -2.242973 -2.727262 3.203490 0
M  V30 2 C -0.935754 -2.376834 2.609159 0
M  V30 3 C 0.172044 -2.892320 3.248878 0
M  V30 4 C 1.411414 -2.587679 2.723853 0
M  V30 5 C 1.548956 -1.799210 1.603245 0
M  V30 6 C 0.466113 -1.266229 0.937787 0
M  V30 7 C 0.341973 -0.422664 -0.212067 0
M  V30 8 C -0.464061 -0.935484 -1.238244 0
M  V30 9 C -0.685219 -0.291430 -2.437788 0
M  V30 10 N -0.086438 0.915887 -2.641570 0
M  V30 11 C 0.696989 1.458504 -1.693944 0
M  V30 12 N 1.411856 2.616565 -1.583153 0
M  V30 13 C 2.035620 2.680166 -0.381982 0
M  V30 14 C 1.725926 1.520428 0.337189 0
M  V30 15 C 2.208271 1.261370 1.659856 0
M  V30 16 N 2.601914 1.071813 2.730706 0
M  V30 17 C 0.906327 0.799482 -0.500312 0
M  V30 18 C -0.781999 -1.588631 1.488045 0
M  V30 19 H -3.022036 -2.734927 2.408640 0
M  V30 20 H -2.244483 -3.763931 3.623146 0
M  V30 21 H -2.499771 -1.976532 3.989879 0
M  V30 22 H 0.219285 -3.518631 4.126911 0
M  V30 23 H 2.358070 -2.927949 3.129374 0
M  V30 24 H 2.490091 -1.523299 1.125225 0
M  V30 25 H -0.976885 -1.905019 -1.138650 0
M  V30 26 H -1.315757 -0.726433 -3.201358 0
M  V30 27 H 1.472157 3.354098 -2.320159 0
M  V30 28 H 2.663660 3.487765 -0.039642 0
M  V30 29 H -1.752394 -1.254013 1.092178 0
M  V30 END ATOM
M  V30 BEGIN BOND
M  V30 1 1 1 2
M  V30 2 2 2 3
M  V30 3 1 3 4
M  V30 4 2 4 5
M  V30 5 1 5 6
M  V30 6 1 6 7
M  V30 7 2 7 8
M  V30 8 1 8 9
M  V30 9 2 9 10
M  V30 10 1 10 11
M  V30 11 1 11 12
M  V30 12 1 12 13
M  V30 13 2 13 14
M  V30 14 1 14 15
M  V30 15 3 15 16
M  V30 16 1 14 17
M  V30 17 2 6 18
M  V30 18 1 18 2
M  V30 19 1 17 7
M  V30 20 2 17 11
M  V30 21 1 1 19
M  V30 22 1 1 20
M  V30 23 1 1 21
M  V30 24 1 3 22
M  V30 25 1 4 23
M  V30 26 1 5 24
M  V30 27 1 8 25
M  V30 28 1 9 26
M  V30 29 1 12 27
M  V30 30 1 13 28
M  V30 31 1 18 29
M  V30 END BOND
M  V30 END CTAB
M  END
>  <Dataset>  (831) 
ChEMBL_Kinases

>  <Ligand_Instance>  (831) 
nan

>  <PDB_ID>  (831) 
nan

>  <Standardized_SMILES>  (831) 
Cc1cccc(-c2ccnc3[nH]cc(C#N)c23)c1

>  <Name>  (831) 
nan

>  <Pocket>  (831) 
nan

>  <ATP_Site>  (831) 
nan

>  <Peripheral>  (831) 
nan

>  <Num_H_Atoms_ProtBoundConf>  (831) 
nan

>  <Num_Resolved_Atoms>  (831) 
nan

>  <Num_Not_Resolved_Atoms>  (831) 
nan

$$$$
CHEMBL606919
     RDKit          3D

  0  0  0  0  0  0  0  0  0  0999 V3000
M  V30 BEGIN CTAB
M  V30 COUNTS 47 50 0 0 0
M  V30 BEGIN ATOM
M  V30 1 C -0.963289 -2.873752 6.033617 0
M  V30 2 O -2.051969 -2.784815 5.197330 0
M  V30 3 C -2.149797 -1.553447 4.600542 0
M  V30 4 C -0.948796 -1.257034 3.786733 0
M  V30 5 C 0.165520 -0.613295 4.299628 0
M  V30 6 C 1.314329 -0.306936 3.601734 0
M  V30 7 C 1.363909 -0.671731 2.273280 0
M  V30 8 C 0.285786 -1.316536 1.701255 0
M  V30 9 C 0.345292 -1.703593 0.287108 0
M  V30 10 C 0.479876 -1.045318 -0.922979 0
M  V30 11 C 0.609154 0.408661 -0.914997 0
M  V30 12 C 1.778445 0.904542 -1.465362 0
M  V30 13 C 2.000906 2.265262 -1.504505 0
M  V30 14 C 1.076620 3.159164 -1.002794 0
M  V30 15 N 1.230316 4.496299 -1.007833 0
M  V30 16 C 0.265337 5.310084 -0.488851 0
M  V30 17 C -0.883956 4.769292 0.049183 0
M  V30 18 N -1.053185 3.418024 0.061169 0
M  V30 19 C -0.087385 2.611034 -0.457782 0
M  V30 20 C -0.350927 1.253513 -0.398339 0
M  V30 21 N 0.460481 -1.969545 -1.892645 0
M  V30 22 C 0.584577 -1.566294 -3.281750 0
M  V30 23 N 0.321856 -3.163577 -1.356102 0
M  V30 24 C 0.261412 -4.399786 -2.098459 0
M  V30 25 C 0.244632 -3.067823 -0.008811 0
M  V30 26 O 0.107841 -4.074048 0.759562 0
M  V30 27 C -0.860895 -1.607475 2.448956 0
M  V30 28 H -0.987620 -2.117537 6.864375 0
M  V30 29 H -0.923478 -3.854638 6.571968 0
M  V30 30 H -0.012310 -2.745185 5.498580 0
M  V30 31 H -3.073269 -1.481482 3.990355 0
M  V30 32 H -2.255618 -0.790077 5.391256 0
M  V30 33 H 0.082307 -0.341804 5.358155 0
M  V30 34 H 2.142080 0.198579 4.076727 0
M  V30 35 H 2.223260 -0.472780 1.646640 0
M  V30 36 H 2.588119 0.308136 -1.895274 0
M  V30 37 H 2.908453 2.707155 -1.928628 0
M  V30 38 H 0.400181 6.398271 -0.497260 0
M  V30 39 H -1.682368 5.361362 0.474101 0
M  V30 40 H -1.249389 0.845956 0.022688 0
M  V30 41 H 0.171298 -2.344816 -3.952426 0
M  V30 42 H 1.655365 -1.383781 -3.547617 0
M  V30 43 H 0.027056 -0.603561 -3.463430 0
M  V30 44 H -0.716907 -4.891722 -1.824006 0
M  V30 45 H 0.303680 -4.225961 -3.174891 0
M  V30 46 H 1.125227 -5.015712 -1.745430 0
M  V30 47 H -1.682071 -2.115541 1.956827 0
M  V30 END ATOM
M  V30 BEGIN BOND
M  V30 1 1 1 2
M  V30 2 1 2 3
M  V30 3 1 3 4
M  V30 4 2 4 5
M  V30 5 1 5 6
M  V30 6 2 6 7
M  V30 7 1 7 8
M  V30 8 1 8 9
M  V30 9 2 9 10
M  V30 10 1 10 11
M  V30 11 2 11 12
M  V30 12 1 12 13
M  V30 13 2 13 14
M  V30 14 1 14 15
M  V30 15 2 15 16
M  V30 16 1 16 17
M  V30 17 2 17 18
M  V30 18 1 18 19
M  V30 19 2 19 20
M  V30 20 1 10 21
M  V30 21 1 21 22
M  V30 22 1 21 23
M  V30 23 1 23 24
M  V30 24 1 23 25
M  V30 25 2 25 26
M  V30 26 2 8 27
M  V30 27 1 27 4
M  V30 28 1 25 9
M  V30 29 1 20 11
M  V30 30 1 19 14
M  V30 31 1 1 28
M  V30 32 1 1 29
M  V30 33 1 1 30
M  V30 34 1 3 31
M  V30 35 1 3 32
M  V30 36 1 5 33
M  V30 37 1 6 34
M  V30 38 1 7 35
M  V30 39 1 12 36
M  V30 40 1 13 37
M  V30 41 1 16 38
M  V30 42 1 17 39
M  V30 43 1 20 40
M  V30 44 1 22 41
M  V30 45 1 22 42
M  V30 46 1 22 43
M  V30 47 1 24 44
M  V30 48 1 24 45
M  V30 49 1 24 46
M  V30 50 1 27 47
M  V30 END BOND
M  V30 END CTAB
M  END
>  <Dataset>  (832) 
ChEMBL_Kinases

>  <Ligand_Instance>  (832) 
nan

>  <PDB_ID>  (832) 
nan

>  <Standardized_SMILES>  (832) 
COCc1cccc(-c2c(-c3ccc4nccnc4c3)n(C)n(C)c2=O)c1

>  <Name>  (832) 
nan

>  <Pocket>  (832) 
nan

>  <ATP_Site>  (832) 
nan

>  <Peripheral>  (832) 
nan

>  <Num_H_Atoms_ProtBoundConf>  (832) 
nan

>  <Num_Resolved_Atoms>  (832) 
nan

>  <Num_Not_Resolved_Atoms>  (832) 
nan

$$$$
CHEMBL3914273
     RDKit          3D

  0  0  0  0  0  0  0  0  0  0999 V3000
M  V30 BEGIN CTAB
M  V30 COUNTS 65 70 0 0 0
M  V30 BEGIN ATOM
M  V30 1 C 3.887231 0.871847 5.948137 0
M  V30 2 N 3.773819 -0.325169 5.092171 0
M  V30 3 C 3.808345 -1.452550 6.049397 0
M  V30 4 C 3.648077 -0.655602 3.716721 0
M  V30 5 O 3.572867 -1.926095 3.484181 0
M  V30 6 C 3.565377 -0.137390 2.366202 0
M  V30 7 C 4.548189 0.046734 1.414734 0
M  V30 8 C 3.903156 0.556908 0.303729 0
M  V30 9 C 4.443643 0.893138 -0.916573 0
M  V30 10 N 3.622721 1.363016 -1.897104 0
M  V30 11 C 2.315753 1.479738 -1.636972 0
M  V30 12 N 1.231695 1.931146 -2.479537 0
M  V30 13 C -0.059551 1.269911 -2.421499 0
M  V30 14 C -1.201329 1.543103 -3.109170 0
M  V30 15 C -2.292243 0.738102 -2.902144 0
M  V30 16 C -2.352593 -0.320181 -2.070040 0
M  V30 17 C -3.408050 -1.265983 -1.759616 0
M  V30 18 O -3.506546 -1.517417 -0.492790 0
M  V30 19 N -4.332826 -1.946293 -2.621974 0
M  V30 20 C -4.703267 -2.045281 -4.050145 0
M  V30 21 C -4.435087 -3.512547 -4.298556 0 CFG=2
M  V30 22 C -5.550190 -4.483127 -4.172621 0
M  V30 23 C -4.813308 -4.167041 -2.923563 0 CFG=1
M  V30 24 N -3.811432 -5.031220 -2.355233 0
M  V30 25 C -5.275409 -2.943478 -2.105662 0
M  V30 26 C -1.137919 -0.575440 -1.364006 0
M  V30 27 N -0.057131 0.208075 -1.558274 0
M  V30 28 N 1.848383 1.137456 -0.425433 0
M  V30 29 C 2.574105 0.668821 0.597261 0
M  V30 30 N 2.367937 0.245214 1.859874 0
M  V30 31 C 0.999664 0.327203 2.325786 0
M  V30 32 C 0.812960 0.054103 3.778299 0
M  V30 33 C -0.685472 0.409694 3.902793 0
M  V30 34 C -0.841062 1.633505 3.003660 0
M  V30 35 C 0.471161 1.770050 2.253594 0
M  V30 36 H 2.932412 0.978800 6.541763 0
M  V30 37 H 4.711372 0.797170 6.668939 0
M  V30 38 H 4.092276 1.728231 5.298269 0
M  V30 39 H 4.759055 -1.413699 6.589231 0
M  V30 40 H 2.948793 -1.338398 6.735301 0
M  V30 41 H 3.768376 -2.433523 5.477055 0
M  V30 42 H 5.615683 -0.181723 1.571712 0
M  V30 43 H 5.492058 0.805157 -1.155601 0
M  V30 44 H 1.406767 2.729909 -3.109688 0
M  V30 45 H -1.109590 2.385024 -3.754203 0
M  V30 46 H -3.188574 0.945461 -3.448987 0
M  V30 47 H -5.808968 -1.900607 -4.179894 0
M  V30 48 H -4.114608 -1.387196 -4.682402 0
M  V30 49 H -3.456681 -3.812007 -4.722393 0
M  V30 50 H -6.585109 -4.089359 -4.274736 0
M  V30 51 H -5.409397 -5.501143 -4.580966 0
M  V30 52 H -2.885222 -4.913187 -2.853908 0
M  V30 53 H -3.602351 -4.743970 -1.360625 0
M  V30 54 H -6.318588 -2.704141 -2.303898 0
M  V30 55 H -5.059531 -3.208375 -1.033266 0
M  V30 56 H -1.065397 -1.414302 -0.649737 0
M  V30 57 H 0.333435 -0.244871 1.666216 0
M  V30 58 H 1.382339 0.815517 4.337819 0
M  V30 59 H 0.911686 -0.973748 4.110546 0
M  V30 60 H -1.206131 -0.418822 3.368362 0
M  V30 61 H -0.998665 0.573742 4.933505 0
M  V30 62 H -1.021946 2.536961 3.584341 0
M  V30 63 H -1.641704 1.459311 2.222821 0
M  V30 64 H 0.320371 2.112132 1.220612 0
M  V30 65 H 1.185108 2.360903 2.852977 0
M  V30 END ATOM
M  V30 BEGIN BOND
M  V30 1 1 1 2
M  V30 2 1 2 3
M  V30 3 1 2 4
M  V30 4 2 4 5
M  V30 5 1 4 6
M  V30 6 2 6 7
M  V30 7 1 7 8
M  V30 8 2 8 9
M  V30 9 1 9 10
M  V30 10 2 10 11
M  V30 11 1 11 12
M  V30 12 1 12 13
M  V30 13 2 13 14
M  V30 14 1 14 15
M  V30 15 2 15 16
M  V30 16 1 16 17
M  V30 17 2 17 18
M  V30 18 1 17 19
M  V30 19 1 19 20
M  V30 20 1 20 21
M  V30 21 1 21 22
M  V30 22 1 22 23
M  V30 23 1 23 24 CFG=1
M  V30 24 1 23 25
M  V30 25 1 16 26
M  V30 26 2 26 27
M  V30 27 1 11 28
M  V30 28 2 28 29
M  V30 29 1 29 30
M  V30 30 1 30 31
M  V30 31 1 31 32
M  V30 32 1 32 33
M  V30 33 1 33 34
M  V30 34 1 34 35
M  V30 35 1 30 6
M  V30 36 1 35 31
M  V30 37 1 29 8
M  V30 38 1 27 13
M  V30 39 1 25 19
M  V30 40 1 23 21
M  V30 41 1 1 36
M  V30 42 1 1 37
M  V30 43 1 1 38
M  V30 44 1 3 39
M  V30 45 1 3 40
M  V30 46 1 3 41
M  V30 47 1 7 42
M  V30 48 1 9 43
M  V30 49 1 12 44
M  V30 50 1 14 45
M  V30 51 1 15 46
M  V30 52 1 20 47
M  V30 53 1 20 48
M  V30 54 1 21 49 CFG=3
M  V30 55 1 22 50
M  V30 56 1 22 51
M  V30 57 1 24 52
M  V30 58 1 24 53
M  V30 59 1 25 54
M  V30 60 1 25 55
M  V30 61 1 26 56
M  V30 62 1 31 57
M  V30 63 1 32 58
M  V30 64 1 32 59
M  V30 65 1 33 60
M  V30 66 1 33 61
M  V30 67 1 34 62
M  V30 68 1 34 63
M  V30 69 1 35 64
M  V30 70 1 35 65
M  V30 END BOND
M  V30 END CTAB
M  END
>  <Dataset>  (833) 
ChEMBL_Kinases

>  <Ligand_Instance>  (833) 
nan

>  <PDB_ID>  (833) 
nan

>  <Standardized_SMILES>  (833) 
CN(C)C(=O)c1cc2cnc(Nc3ccc(C(=O)N4C[C@@H]5C[C@]5(N)C4)cn3)nc2n1C1CCCC1

>  <Name>  (833) 
nan

>  <Pocket>  (833) 
nan

>  <ATP_Site>  (833) 
nan

>  <Peripheral>  (833) 
nan

>  <Num_H_Atoms_ProtBoundConf>  (833) 
nan

>  <Num_Resolved_Atoms>  (833) 
nan

>  <Num_Not_Resolved_Atoms>  (833) 
nan

$$$$
CHEMBL488707
     RDKit          3D

  0  0  0  0  0  0  0  0  0  0999 V3000
M  V30 BEGIN CTAB
M  V30 COUNTS 59 61 0 0 0
M  V30 BEGIN ATOM
M  V30 1 C -0.082876 2.489489 4.495612 0
M  V30 2 C 1.272935 2.953316 4.883651 0
M  V30 3 C 2.372802 2.720900 3.903025 0
M  V30 4 C 2.202884 3.363679 2.563936 0
M  V30 5 C 3.411187 3.077573 1.664388 0
M  V30 6 C 3.645282 1.620561 1.440226 0
M  V30 7 C 4.828602 1.331407 0.513935 0
M  V30 8 C 1.009496 2.928922 1.817922 0
M  V30 9 O -0.031052 3.582510 1.558616 0
M  V30 10 O 0.530878 1.825755 1.164882 0
M  V30 11 C -0.747526 1.795511 0.552191 0
M  V30 12 C -0.927518 0.487343 -0.108710 0
M  V30 13 C -0.000089 0.231971 -1.283654 0
M  V30 14 O 1.326006 0.326302 -1.003425 0
M  V30 15 C -0.892207 -0.627618 0.906706 0
M  V30 16 C -1.322650 -1.753158 0.012806 0
M  V30 17 C -0.993342 -2.982895 -0.301570 0
M  V30 18 C -1.627711 -3.876840 -1.257637 0
M  V30 19 C -2.068290 -3.566592 -2.532313 0
M  V30 20 N -2.657527 -4.503060 -3.318881 0
M  V30 21 C -2.827840 -5.772161 -2.869115 0
M  V30 22 C -3.430998 -6.688262 -3.711695 0
M  V30 23 C -3.631083 -7.995447 -3.317163 0
M  V30 24 C -3.213012 -8.361868 -2.060521 0
M  V30 25 C -2.604244 -7.432283 -1.212678 0
M  V30 26 C -2.401787 -6.116965 -1.606560 0
M  V30 27 C -1.796166 -5.182346 -0.778612 0
M  V30 28 C -2.486139 -1.058467 -0.587839 0
M  V30 29 O -3.537367 -1.714985 -0.951077 0
M  V30 30 O -2.230498 0.328160 -0.670388 0
M  V30 31 H -0.757880 3.318021 4.164641 0
M  V30 32 H -0.598705 2.112501 5.432860 0
M  V30 33 H -0.098691 1.608577 3.825389 0
M  V30 34 H 1.575954 2.388666 5.819190 0
M  V30 35 H 1.255313 4.022152 5.194892 0
M  V30 36 H 2.522967 1.628467 3.720258 0
M  V30 37 H 3.296963 3.152742 4.346124 0
M  V30 38 H 2.144254 4.464761 2.670704 0
M  V30 39 H 4.333688 3.507640 2.112787 0
M  V30 40 H 3.276629 3.582477 0.692559 0
M  V30 41 H 2.796268 1.030867 1.116583 0
M  V30 42 H 3.966507 1.170569 2.434718 0
M  V30 43 H 5.787362 1.274390 1.047025 0
M  V30 44 H 4.921048 2.119271 -0.275541 0
M  V30 45 H 4.651485 0.359479 -0.025511 0
M  V30 46 H -0.820173 2.636522 -0.184304 0
M  V30 47 H -1.527016 1.941293 1.324202 0
M  V30 48 H -0.286003 0.977832 -2.052596 0
M  V30 49 H -0.294842 -0.749007 -1.694549 0
M  V30 50 H 1.853302 -0.275649 -1.588072 0
M  V30 51 H -1.592914 -0.421440 1.709773 0
M  V30 52 H 0.145984 -0.742228 1.260418 0
M  V30 53 H -0.111726 -3.279066 0.291883 0
M  V30 54 H -1.913949 -2.558716 -2.884936 0
M  V30 55 H -3.787251 -6.466758 -4.720214 0
M  V30 56 H -4.104829 -8.730070 -3.967654 0
M  V30 57 H -3.317684 -9.353740 -1.647480 0
M  V30 58 H -2.253274 -7.669124 -0.208443 0
M  V30 59 H -1.484066 -5.495819 0.188784 0
M  V30 END ATOM
M  V30 BEGIN BOND
M  V30 1 1 1 2
M  V30 2 1 2 3
M  V30 3 1 3 4
M  V30 4 1 4 5
M  V30 5 1 5 6
M  V30 6 1 6 7
M  V30 7 1 4 8
M  V30 8 2 8 9
M  V30 9 1 8 10
M  V30 10 1 10 11
M  V30 11 1 11 12
M  V30 12 1 12 13
M  V30 13 1 13 14
M  V30 14 1 12 15
M  V30 15 1 15 16
M  V30 16 2 16 17
M  V30 17 1 17 18
M  V30 18 2 18 19
M  V30 19 1 19 20
M  V30 20 2 20 21
M  V30 21 1 21 22
M  V30 22 2 22 23
M  V30 23 1 23 24
M  V30 24 2 24 25
M  V30 25 1 25 26
M  V30 26 2 26 27
M  V30 27 1 16 28
M  V30 28 2 28 29
M  V30 29 1 28 30
M  V30 30 1 30 12
M  V30 31 1 27 18
M  V30 32 1 26 21
M  V30 33 1 1 31
M  V30 34 1 1 32
M  V30 35 1 1 33
M  V30 36 1 2 34
M  V30 37 1 2 35
M  V30 38 1 3 36
M  V30 39 1 3 37
M  V30 40 1 4 38
M  V30 41 1 5 39
M  V30 42 1 5 40
M  V30 43 1 6 41
M  V30 44 1 6 42
M  V30 45 1 7 43
M  V30 46 1 7 44
M  V30 47 1 7 45
M  V30 48 1 11 46
M  V30 49 1 11 47
M  V30 50 1 13 48
M  V30 51 1 13 49
M  V30 52 1 14 50
M  V30 53 1 15 51
M  V30 54 1 15 52
M  V30 55 1 17 53
M  V30 56 1 19 54
M  V30 57 1 22 55
M  V30 58 1 23 56
M  V30 59 1 24 57
M  V30 60 1 25 58
M  V30 61 1 27 59
M  V30 END BOND
M  V30 END CTAB
M  END
>  <Dataset>  (834) 
ChEMBL_Kinases

>  <Ligand_Instance>  (834) 
nan

>  <PDB_ID>  (834) 
nan

>  <Standardized_SMILES>  (834) 
CCCC(CCC)C(=O)OCC1(CO)C/C(=C/c2cnc3ccccc3c2)C(=O)O1

>  <Name>  (834) 
nan

>  <Pocket>  (834) 
nan

>  <ATP_Site>  (834) 
nan

>  <Peripheral>  (834) 
nan

>  <Num_H_Atoms_ProtBoundConf>  (834) 
nan

>  <Num_Resolved_Atoms>  (834) 
nan

>  <Num_Not_Resolved_Atoms>  (834) 
nan

$$$$
CHEMBL3912148
     RDKit          3D

  0  0  0  0  0  0  0  0  0  0999 V3000
M  V30 BEGIN CTAB
M  V30 COUNTS 54 57 0 0 0
M  V30 BEGIN ATOM
M  V30 1 C 0.787714 -3.468740 -1.663236 0
M  V30 2 C 1.187783 -2.211673 -0.974095 0
M  V30 3 C 2.528623 -1.976295 -0.904582 0
M  V30 4 C 2.934543 -0.801546 -0.264749 0
M  V30 5 C 1.999729 0.070838 0.268130 0
M  V30 6 N 2.412309 1.264213 0.913564 0
M  V30 7 C 2.789718 1.787055 2.164307 0
M  V30 8 O 2.782570 0.955043 3.086000 0
M  V30 9 C 3.138666 3.196165 2.253112 0
M  V30 10 C 3.116825 4.165719 1.279554 0
M  V30 11 C 3.478319 5.469396 1.497956 0
M  V30 12 C 3.883847 5.817626 2.763610 0
M  V30 13 C 3.922899 4.881097 3.774488 0
M  V30 14 C 4.367730 5.291819 5.131397 0
M  V30 15 F 3.975470 4.384233 6.071595 0
M  V30 16 F 5.731610 5.533832 5.173009 0
M  V30 17 F 3.725857 6.501157 5.395128 0
M  V30 18 C 3.553256 3.565132 3.535415 0
M  V30 19 C 0.659823 -0.240120 0.156261 0
M  V30 20 C 0.191838 -1.401114 -0.473108 0
M  V30 21 C -1.234192 -1.677390 -0.565589 0
M  V30 22 C -1.939550 -0.533416 -0.955744 0
M  V30 23 C -3.325617 -0.596864 -1.102738 0
M  V30 24 N -3.976495 -1.751645 -0.870116 0
M  V30 25 C -3.295494 -2.869673 -0.489829 0
M  V30 26 N -4.000505 -4.077787 -0.251586 0
M  V30 27 C -3.464750 -5.337974 0.214915 0
M  V30 28 C -3.883983 -6.473658 -0.728006 0
M  V30 29 O -5.285275 -6.442339 -0.749274 0
M  V30 30 C -5.657859 -5.298678 -1.456533 0
M  V30 31 C -5.432973 -4.132764 -0.484496 0
M  V30 32 C -1.930897 -2.823542 -0.340733 0
M  V30 33 H 0.794144 -4.309482 -0.961215 0
M  V30 34 H -0.183178 -3.337063 -2.201358 0
M  V30 35 H 1.528805 -3.729178 -2.476882 0
M  V30 36 H 3.266285 -2.668050 -1.326210 0
M  V30 37 H 3.976688 -0.564893 -0.179847 0
M  V30 38 H 2.370912 1.842495 0.040282 0
M  V30 39 H 2.788661 3.811257 0.320438 0
M  V30 40 H 3.425748 6.153570 0.665725 0
M  V30 41 H 4.160085 6.865113 2.878613 0
M  V30 42 H 3.609635 2.882412 4.377970 0
M  V30 43 H -0.028562 0.474033 0.588259 0
M  V30 44 H -1.551950 0.455012 -1.173933 0
M  V30 45 H -3.933610 0.268040 -1.406299 0
M  V30 46 H -4.001951 -5.554013 1.171434 0
M  V30 47 H -2.379806 -5.359479 0.293341 0
M  V30 48 H -3.421921 -6.349452 -1.717967 0
M  V30 49 H -3.547660 -7.420093 -0.262865 0
M  V30 50 H -6.686681 -5.304529 -1.827453 0
M  V30 51 H -4.899617 -5.222095 -2.291242 0
M  V30 52 H -5.979289 -4.390043 0.446459 0
M  V30 53 H -5.833687 -3.188736 -0.904884 0
M  V30 54 H -1.323628 -3.646385 -0.047696 0
M  V30 END ATOM
M  V30 BEGIN BOND
M  V30 1 1 1 2
M  V30 2 2 2 3
M  V30 3 1 3 4
M  V30 4 2 4 5
M  V30 5 1 5 6
M  V30 6 1 6 7
M  V30 7 2 7 8
M  V30 8 1 7 9
M  V30 9 2 9 10
M  V30 10 1 10 11
M  V30 11 2 11 12
M  V30 12 1 12 13
M  V30 13 1 13 14
M  V30 14 1 14 15
M  V30 15 1 14 16
M  V30 16 1 14 17
M  V30 17 2 13 18
M  V30 18 1 5 19
M  V30 19 2 19 20
M  V30 20 1 20 21
M  V30 21 2 21 22
M  V30 22 1 22 23
M  V30 23 2 23 24
M  V30 24 1 24 25
M  V30 25 1 25 26
M  V30 26 1 26 27
M  V30 27 1 27 28
M  V30 28 1 28 29
M  V30 29 1 29 30
M  V30 30 1 30 31
M  V30 31 2 25 32
M  V30 32 1 20 2
M  V30 33 1 32 21
M  V30 34 1 18 9
M  V30 35 1 31 26
M  V30 36 1 1 33
M  V30 37 1 1 34
M  V30 38 1 1 35
M  V30 39 1 3 36
M  V30 40 1 4 37
M  V30 41 1 6 38
M  V30 42 1 10 39
M  V30 43 1 11 40
M  V30 44 1 12 41
M  V30 45 1 18 42
M  V30 46 1 19 43
M  V30 47 1 22 44
M  V30 48 1 23 45
M  V30 49 1 27 46
M  V30 50 1 27 47
M  V30 51 1 28 48
M  V30 52 1 28 49
M  V30 53 1 30 50
M  V30 54 1 30 51
M  V30 55 1 31 52
M  V30 56 1 31 53
M  V30 57 1 32 54
M  V30 END BOND
M  V30 END CTAB
M  END
>  <Dataset>  (835) 
ChEMBL_Kinases

>  <Ligand_Instance>  (835) 
nan

>  <PDB_ID>  (835) 
nan

>  <Standardized_SMILES>  (835) 
Cc1ccc(NC(=O)c2cccc(C(F)(F)F)c2)cc1-c1ccnc(N2CCOCC2)c1

>  <Name>  (835) 
nan

>  <Pocket>  (835) 
nan

>  <ATP_Site>  (835) 
nan

>  <Peripheral>  (835) 
nan

>  <Num_H_Atoms_ProtBoundConf>  (835) 
nan

>  <Num_Resolved_Atoms>  (835) 
nan

>  <Num_Not_Resolved_Atoms>  (835) 
nan

$$$$
CHEMBL3884555
     RDKit          3D

  0  0  0  0  0  0  0  0  0  0999 V3000
M  V30 BEGIN CTAB
M  V30 COUNTS 58 61 0 0 0
M  V30 BEGIN ATOM
M  V30 1 C 4.280702 -3.286259 1.521712 0
M  V30 2 C 5.112755 -2.517925 2.225603 0
M  V30 3 C 4.094503 -1.690468 2.858466 0
M  V30 4 O 2.999650 -2.169695 2.378363 0
M  V30 5 N 4.015605 -0.599889 3.776758 0
M  V30 6 C 2.600684 -0.345039 3.893420 0
M  V30 7 C 2.079619 -1.103702 4.918324 0
M  V30 8 C 0.731513 -1.012436 5.161320 0
M  V30 9 C -0.046069 -0.187063 4.393629 0
M  V30 10 C 0.580802 0.518202 3.404582 0
M  V30 11 C 1.907071 0.521975 3.057330 0
M  V30 12 O 2.643097 1.166291 2.107568 0
M  V30 13 C 2.109813 2.008543 1.165202 0
M  V30 14 C 2.979828 2.628962 0.260442 0
M  V30 15 C 2.573074 3.496364 -0.738231 0
M  V30 16 N 1.266065 3.713042 -0.788169 0
M  V30 17 C 0.347511 3.164075 0.038874 0
M  V30 18 N -0.975913 3.540980 -0.240364 0
M  V30 19 C -1.499180 2.277092 -0.661363 0
M  V30 20 C -1.630446 1.850383 -1.983171 0
M  V30 21 C -2.151499 0.613954 -2.306185 0
M  V30 22 C -2.569019 -0.260015 -1.321389 0
M  V30 23 N -3.102046 -1.567495 -1.601077 0
M  V30 24 C -3.698478 -2.467199 -0.672784 0
M  V30 25 C -3.178004 -3.877347 -0.718031 0
M  V30 26 N -2.420199 -4.173937 -1.906099 0
M  V30 27 C -1.012175 -3.965402 -1.745635 0
M  V30 28 C -2.973924 -3.547590 -3.083070 0
M  V30 29 C -3.034321 -2.067113 -2.971410 0
M  V30 30 C -2.453827 0.131136 -0.001952 0
M  V30 31 C -1.926581 1.379257 0.292565 0
M  V30 32 N 0.842565 2.360127 0.944132 0
M  V30 33 H 4.330328 -4.093871 0.841795 0
M  V30 34 H 3.435192 -3.794253 1.035464 0
M  V30 35 H 6.127430 -2.795581 2.057310 0
M  V30 36 H 5.000592 -0.393616 4.023346 0
M  V30 37 H 2.594778 -1.783940 5.579036 0
M  V30 38 H 0.191382 -1.547565 5.922710 0
M  V30 39 H -1.097990 -0.039456 4.495834 0
M  V30 40 H -0.001860 1.195919 2.776706 0
M  V30 41 H 4.054739 2.434632 0.323205 0
M  V30 42 H 3.248108 3.976308 -1.436547 0
M  V30 43 H -1.448690 4.474830 -0.162926 0
M  V30 44 H -1.300251 2.545782 -2.744136 0
M  V30 45 H -2.227875 0.355355 -3.350891 0
M  V30 46 H -3.668846 -2.166390 0.385689 0
M  V30 47 H -4.803216 -2.495160 -0.925544 0
M  V30 48 H -2.511742 -4.130669 0.139915 0
M  V30 49 H -4.013205 -4.615984 -0.671285 0
M  V30 50 H -0.715309 -3.993916 -0.663400 0
M  V30 51 H -0.461979 -4.802690 -2.227411 0
M  V30 52 H -0.693833 -2.991031 -2.156251 0
M  V30 53 H -3.944500 -4.010099 -3.339411 0
M  V30 54 H -2.290021 -3.833706 -3.916189 0
M  V30 55 H -3.918660 -1.723891 -3.536765 0
M  V30 56 H -2.082420 -1.642108 -3.404074 0
M  V30 57 H -2.730922 -0.430538 0.851012 0
M  V30 58 H -1.819800 1.731977 1.330711 0
M  V30 END ATOM
M  V30 BEGIN BOND
M  V30 1 2 1 2
M  V30 2 1 2 3
M  V30 3 2 3 4
M  V30 4 1 3 5
M  V30 5 1 5 6
M  V30 6 2 6 7
M  V30 7 1 7 8
M  V30 8 2 8 9
M  V30 9 1 9 10
M  V30 10 2 10 11
M  V30 11 1 11 12
M  V30 12 1 12 13
M  V30 13 2 13 14
M  V30 14 1 14 15
M  V30 15 2 15 16
M  V30 16 1 16 17
M  V30 17 1 17 18
M  V30 18 1 18 19
M  V30 19 2 19 20
M  V30 20 1 20 21
M  V30 21 2 21 22
M  V30 22 1 22 23
M  V30 23 1 23 24
M  V30 24 1 24 25
M  V30 25 1 25 26
M  V30 26 1 26 27
M  V30 27 1 26 28
M  V30 28 1 28 29
M  V30 29 1 22 30
M  V30 30 2 30 31
M  V30 31 2 17 32
M  V30 32 1 11 6
M  V30 33 1 32 13
M  V30 34 1 31 19
M  V30 35 1 29 23
M  V30 36 1 1 33
M  V30 37 1 1 34
M  V30 38 1 2 35
M  V30 39 1 5 36
M  V30 40 1 7 37
M  V30 41 1 8 38
M  V30 42 1 9 39
M  V30 43 1 10 40
M  V30 44 1 14 41
M  V30 45 1 15 42
M  V30 46 1 18 43
M  V30 47 1 20 44
M  V30 48 1 21 45
M  V30 49 1 24 46
M  V30 50 1 24 47
M  V30 51 1 25 48
M  V30 52 1 25 49
M  V30 53 1 27 50
M  V30 54 1 27 51
M  V30 55 1 27 52
M  V30 56 1 28 53
M  V30 57 1 28 54
M  V30 58 1 29 55
M  V30 59 1 29 56
M  V30 60 1 30 57
M  V30 61 1 31 58
M  V30 END BOND
M  V30 END CTAB
M  END
>  <Dataset>  (836) 
ChEMBL_Kinases

>  <Ligand_Instance>  (836) 
nan

>  <PDB_ID>  (836) 
nan

>  <Standardized_SMILES>  (836) 
C=CC(=O)Nc1ccccc1Oc1ccnc(Nc2ccc(N3CCN(C)CC3)cc2)n1

>  <Name>  (836) 
nan

>  <Pocket>  (836) 
nan

>  <ATP_Site>  (836) 
nan

>  <Peripheral>  (836) 
nan

>  <Num_H_Atoms_ProtBoundConf>  (836) 
nan

>  <Num_Resolved_Atoms>  (836) 
nan

>  <Num_Not_Resolved_Atoms>  (836) 
nan

$$$$
CHEMBL489413
     RDKit          3D

  0  0  0  0  0  0  0  0  0  0999 V3000
M  V30 BEGIN CTAB
M  V30 COUNTS 54 59 0 0 0
M  V30 BEGIN ATOM
M  V30 1 C 4.810212 -4.490884 1.562249 0
M  V30 2 N 3.489994 -4.568577 0.959490 0
M  V30 3 C 2.330140 -4.162049 1.500098 0
M  V30 4 C 1.250304 -4.378686 0.671924 0
M  V30 5 C -0.172050 -4.090457 0.783842 0
M  V30 6 C -0.873426 -3.005187 1.090833 0
M  V30 7 C -0.501579 -1.641092 1.445484 0
M  V30 8 C 0.401024 -1.133360 2.378892 0
M  V30 9 O 0.429442 0.174832 2.316699 0
M  V30 10 C -0.395554 0.620002 1.398668 0
M  V30 11 C -0.658325 1.916050 1.020219 0
M  V30 12 C -1.566697 2.177546 0.019116 0
M  V30 13 O -2.030725 3.321777 -0.565325 0
M  V30 14 C -1.708679 4.650679 -0.295698 0
M  V30 15 C -2.044821 5.151622 1.071712 0
M  V30 16 C -1.667182 6.598850 1.329583 0
M  V30 17 C -3.000402 6.771627 2.017577 0
M  V30 18 C -3.502854 5.580493 1.236713 0
M  V30 19 C -2.195972 1.077526 -0.581104 0
M  V30 20 C -1.915379 -0.235330 -0.181324 0
M  V30 21 C -0.994727 -0.484073 0.832849 0
M  V30 22 C -2.305036 -3.323928 1.073255 0
M  V30 23 O -3.365283 -2.670142 1.287428 0
M  V30 24 N -2.463279 -4.712078 0.726346 0
M  V30 25 C -1.116974 -5.174297 0.549931 0
M  V30 26 O -0.919340 -6.400909 0.230587 0
M  V30 27 C 1.831926 -4.966466 -0.459994 0
M  V30 28 C 1.386789 -5.434644 -1.678233 0
M  V30 29 C 2.210322 -5.964495 -2.625930 0
M  V30 30 F 1.747641 -6.416636 -3.816238 0
M  V30 31 C 3.578856 -6.057034 -2.395340 0
M  V30 32 Cl 4.638642 -6.736781 -3.620495 0
M  V30 33 C 4.079390 -5.603196 -1.193089 0
M  V30 34 C 3.197693 -5.077096 -0.273233 0
M  V30 35 H 4.974265 -3.569793 2.152364 0
M  V30 36 H 5.605784 -4.506558 0.774295 0
M  V30 37 H 4.996900 -5.339480 2.252711 0
M  V30 38 H 2.227796 -3.714776 2.474692 0
M  V30 39 H 0.980216 -1.772954 3.046341 0
M  V30 40 H -0.214442 2.797871 1.420314 0
M  V30 41 H -0.586924 4.762748 -0.393497 0
M  V30 42 H -2.159394 5.282527 -1.093010 0
M  V30 43 H -1.713157 4.514611 1.900607 0
M  V30 44 H -0.797583 6.720644 2.002075 0
M  V30 45 H -1.619710 7.222003 0.417521 0
M  V30 46 H -2.979655 6.570559 3.129861 0
M  V30 47 H -3.542809 7.709102 1.753088 0
M  V30 48 H -3.926312 5.866664 0.255419 0
M  V30 49 H -4.122438 4.948883 1.871592 0
M  V30 50 H -2.940151 1.104185 -1.389260 0
M  V30 51 H -2.408416 -1.088100 -0.666314 0
M  V30 52 H -3.354014 -5.284551 0.620638 0
M  V30 53 H 0.345192 -5.388429 -1.929240 0
M  V30 54 H 5.141721 -5.672215 -1.008990 0
M  V30 END ATOM
M  V30 BEGIN BOND
M  V30 1 1 1 2
M  V30 2 1 2 3
M  V30 3 2 3 4
M  V30 4 1 4 5
M  V30 5 2 5 6
M  V30 6 1 6 7
M  V30 7 2 7 8
M  V30 8 1 8 9
M  V30 9 1 9 10
M  V30 10 2 10 11
M  V30 11 1 11 12
M  V30 12 1 12 13
M  V30 13 1 13 14
M  V30 14 1 14 15
M  V30 15 1 15 16
M  V30 16 1 16 17
M  V30 17 1 17 18
M  V30 18 2 12 19
M  V30 19 1 19 20
M  V30 20 2 20 21
M  V30 21 1 6 22
M  V30 22 2 22 23
M  V30 23 1 22 24
M  V30 24 1 24 25
M  V30 25 2 25 26
M  V30 26 1 4 27
M  V30 27 2 27 28
M  V30 28 1 28 29
M  V30 29 1 29 30
M  V30 30 2 29 31
M  V30 31 1 31 32
M  V30 32 1 31 33
M  V30 33 2 33 34
M  V30 34 1 34 2
M  V30 35 1 25 5
M  V30 36 1 34 27
M  V30 37 1 21 7
M  V30 38 1 21 10
M  V30 39 1 18 15
M  V30 40 1 1 35
M  V30 41 1 1 36
M  V30 42 1 1 37
M  V30 43 1 3 38
M  V30 44 1 8 39
M  V30 45 1 11 40
M  V30 46 1 14 41
M  V30 47 1 14 42
M  V30 48 1 15 43
M  V30 49 1 16 44
M  V30 50 1 16 45
M  V30 51 1 17 46
M  V30 52 1 17 47
M  V30 53 1 18 48
M  V30 54 1 18 49
M  V30 55 1 19 50
M  V30 56 1 20 51
M  V30 57 1 24 52
M  V30 58 1 28 53
M  V30 59 1 33 54
M  V30 END BOND
M  V30 END CTAB
M  END
>  <Dataset>  (837) 
ChEMBL_Kinases

>  <Ligand_Instance>  (837) 
nan

>  <PDB_ID>  (837) 
nan

>  <Standardized_SMILES>  (837) 
Cn1cc(C2=C(c3coc4cc(OCC5CCC5)ccc34)C(=O)NC2=O)c2cc(F)c(Cl)cc21

>  <Name>  (837) 
nan

>  <Pocket>  (837) 
nan

>  <ATP_Site>  (837) 
nan

>  <Peripheral>  (837) 
nan

>  <Num_H_Atoms_ProtBoundConf>  (837) 
nan

>  <Num_Resolved_Atoms>  (837) 
nan

>  <Num_Not_Resolved_Atoms>  (837) 
nan

$$$$
CHEMBL391305
     RDKit          3D

  0  0  0  0  0  0  0  0  0  0999 V3000
M  V30 BEGIN CTAB
M  V30 COUNTS 45 48 0 0 0
M  V30 BEGIN ATOM
M  V30 1 C 1.199686 -2.374246 2.069619 0
M  V30 2 N 2.092157 -1.765565 3.019073 0
M  V30 3 C 2.007614 -1.873992 4.355397 0
M  V30 4 N 3.034020 -1.163774 4.881549 0
M  V30 5 C 3.705735 -0.648392 3.831561 0
M  V30 6 C 3.123851 -1.017543 2.614462 0
M  V30 7 C 3.765557 -0.504050 1.399972 0
M  V30 8 N 3.334017 0.821930 1.028528 0
M  V30 9 C 2.184508 1.377349 0.447074 0
M  V30 10 C 2.082260 2.760948 0.280312 0
M  V30 11 C 1.001715 3.366933 -0.306105 0
M  V30 12 Cl 0.956786 5.088423 -0.472435 0
M  V30 13 C -0.047938 2.604250 -0.762647 0
M  V30 14 N -1.091203 3.225575 -1.339352 0
M  V30 15 C -2.154933 2.556724 -1.819101 0
M  V30 16 C -2.143633 1.182534 -1.699179 0
M  V30 17 C -3.277970 0.440870 -2.208699 0
M  V30 18 N -4.191707 -0.151911 -2.639316 0
M  V30 19 C -1.071460 0.547601 -1.106528 0
M  V30 20 N -1.125186 -0.845667 -1.029040 0
M  V30 21 C -1.682015 -1.747164 -0.125145 0
M  V30 22 C -2.361760 -1.250500 0.957884 0
M  V30 23 C -2.898721 -2.204020 1.830583 0
M  V30 24 C -2.736427 -3.560433 1.587789 0
M  V30 25 F -3.245518 -4.504916 2.415703 0
M  V30 26 C -2.043664 -4.013623 0.483344 0
M  V30 27 Cl -1.822330 -5.721358 0.150412 0
M  V30 28 C -1.507106 -3.089814 -0.388327 0
M  V30 29 C 0.012563 1.240933 -0.618347 0
M  V30 30 C 1.105739 0.674258 -0.028658 0
M  V30 31 H 0.338488 -1.688662 1.907627 0
M  V30 32 H 1.699690 -2.541203 1.112088 0
M  V30 33 H 0.826367 -3.328344 2.526105 0
M  V30 34 H 1.235515 -2.440704 4.856781 0
M  V30 35 H 4.574646 -0.040791 4.098607 0
M  V30 36 H 4.872479 -0.507276 1.482125 0
M  V30 37 H 3.497607 -1.240319 0.562170 0
M  V30 38 H 4.091866 1.539935 1.269259 0
M  V30 39 H 2.876315 3.412087 0.619467 0
M  V30 40 H -2.978115 3.100885 -2.278622 0
M  V30 41 H -0.590942 -1.126306 -1.905309 0
M  V30 42 H -2.493996 -0.206102 1.156486 0
M  V30 43 H -3.448042 -1.918852 2.707285 0
M  V30 44 H -0.967401 -3.458110 -1.248566 0
M  V30 45 H 1.089718 -0.380603 0.044258 0
M  V30 END ATOM
M  V30 BEGIN BOND
M  V30 1 1 1 2
M  V30 2 1 2 3
M  V30 3 2 3 4
M  V30 4 1 4 5
M  V30 5 2 5 6
M  V30 6 1 6 7
M  V30 7 1 7 8
M  V30 8 1 8 9
M  V30 9 2 9 10
M  V30 10 1 10 11
M  V30 11 1 11 12
M  V30 12 2 11 13
M  V30 13 1 13 14
M  V30 14 2 14 15
M  V30 15 1 15 16
M  V30 16 1 16 17
M  V30 17 3 17 18
M  V30 18 2 16 19
M  V30 19 1 19 20
M  V30 20 1 20 21
M  V30 21 2 21 22
M  V30 22 1 22 23
M  V30 23 2 23 24
M  V30 24 1 24 25
M  V30 25 1 24 26
M  V30 26 1 26 27
M  V30 27 2 26 28
M  V30 28 1 19 29
M  V30 29 2 29 30
M  V30 30 1 6 2
M  V30 31 1 30 9
M  V30 32 1 29 13
M  V30 33 1 28 21
M  V30 34 1 1 31
M  V30 35 1 1 32
M  V30 36 1 1 33
M  V30 37 1 3 34
M  V30 38 1 5 35
M  V30 39 1 7 36
M  V30 40 1 7 37
M  V30 41 1 8 38
M  V30 42 1 10 39
M  V30 43 1 15 40
M  V30 44 1 20 41
M  V30 45 1 22 42
M  V30 46 1 23 43
M  V30 47 1 28 44
M  V30 48 1 30 45
M  V30 END BOND
M  V30 END CTAB
M  END
>  <Dataset>  (838) 
ChEMBL_Kinases

>  <Ligand_Instance>  (838) 
nan

>  <PDB_ID>  (838) 
nan

>  <Standardized_SMILES>  (838) 
Cn1cncc1CNc1cc(Cl)c2ncc(C#N)c(Nc3ccc(F)c(Cl)c3)c2c1

>  <Name>  (838) 
nan

>  <Pocket>  (838) 
nan

>  <ATP_Site>  (838) 
nan

>  <Peripheral>  (838) 
nan

>  <Num_H_Atoms_ProtBoundConf>  (838) 
nan

>  <Num_Resolved_Atoms>  (838) 
nan

>  <Num_Not_Resolved_Atoms>  (838) 
nan

$$$$
CHEMBL489421
     RDKit          3D

  0  0  0  0  0  0  0  0  0  0999 V3000
M  V30 BEGIN CTAB
M  V30 COUNTS 54 59 0 0 0
M  V30 BEGIN ATOM
M  V30 1 C 5.091432 -3.584626 4.869019 0
M  V30 2 O 4.322835 -3.227719 3.737403 0
M  V30 3 C 4.225147 -1.874773 3.433593 0
M  V30 4 C 4.829587 -0.862688 4.166590 0
M  V30 5 C 4.687741 0.470202 3.803383 0
M  V30 6 C 3.929101 0.781874 2.690065 0
M  V30 7 C 3.295991 -0.155839 1.906223 0
M  V30 8 C 2.491320 -0.138607 0.768762 0
M  V30 9 C 2.144430 1.096272 0.092040 0
M  V30 10 C 1.004286 1.674879 -0.323846 0
M  V30 11 C -0.393883 1.273366 -0.258638 0
M  V30 12 C -1.318429 2.115574 0.383174 0
M  V30 13 N -2.560556 1.602203 0.343963 0
M  V30 14 C -3.765157 2.182994 0.897877 0
M  V30 15 C -2.488806 0.432506 -0.312669 0
M  V30 16 C -3.429697 -0.515414 -0.657147 0
M  V30 17 C -2.998200 -1.625457 -1.361272 0
M  V30 18 C -3.965230 -2.676460 -1.742839 0
M  V30 19 C -4.798099 -2.975007 -0.673612 0
M  V30 20 C -5.782777 -3.928744 -0.787628 0
M  V30 21 C -5.943742 -4.595286 -1.979572 0
M  V30 22 Cl -7.157268 -5.831595 -2.259445 0
M  V30 23 C -5.116654 -4.300040 -3.043788 0
M  V30 24 C -4.130782 -3.348496 -2.935818 0
M  V30 25 C -1.683919 -1.822027 -1.730749 0
M  V30 26 F -1.305822 -2.924961 -2.423279 0
M  V30 27 C -0.760198 -0.861985 -1.375581 0
M  V30 28 C -1.179739 0.224706 -0.683406 0
M  V30 29 C 1.334626 2.959768 -0.980652 0
M  V30 30 O 0.542404 3.803799 -1.505701 0
M  V30 31 N 2.741546 3.172569 -0.964589 0
M  V30 32 C 3.238033 2.017958 -0.301347 0
M  V30 33 O 4.494857 1.910305 -0.131043 0
M  V30 34 C 2.246832 -1.478415 0.589684 0
M  V30 35 O 2.828387 -2.216236 1.501113 0
M  V30 36 C 3.491485 -1.445710 2.341866 0
M  V30 37 H 4.919577 -4.676490 5.084710 0
M  V30 38 H 6.161471 -3.382035 4.662300 0
M  V30 39 H 4.803279 -3.005836 5.768192 0
M  V30 40 H 5.421421 -1.150414 5.041151 0
M  V30 41 H 5.176074 1.250500 4.401332 0
M  V30 42 H 3.863439 1.831316 2.484774 0
M  V30 43 H -1.130501 3.081061 0.875804 0
M  V30 44 H -3.799084 3.256008 0.547658 0
M  V30 45 H -3.847600 2.113812 1.983857 0
M  V30 46 H -4.679024 1.732005 0.445652 0
M  V30 47 H -4.471454 -0.400158 -0.388666 0
M  V30 48 H -4.776674 -2.523995 0.316533 0
M  V30 49 H -6.488305 -4.241825 -0.018719 0
M  V30 50 H -5.186590 -4.783900 -4.004921 0
M  V30 51 H -3.416470 -3.015519 -3.676200 0
M  V30 52 H 0.264032 -0.988989 -1.676799 0
M  V30 53 H 3.251115 3.989973 -1.354800 0
M  V30 54 H 1.665172 -1.937857 -0.175298 0
M  V30 END ATOM
M  V30 BEGIN BOND
M  V30 1 1 1 2
M  V30 2 1 2 3
M  V30 3 2 3 4
M  V30 4 1 4 5
M  V30 5 2 5 6
M  V30 6 1 6 7
M  V30 7 1 7 8
M  V30 8 1 8 9
M  V30 9 2 9 10
M  V30 10 1 10 11
M  V30 11 2 11 12
M  V30 12 1 12 13
M  V30 13 1 13 14
M  V30 14 1 13 15
M  V30 15 2 15 16
M  V30 16 1 16 17
M  V30 17 1 17 18
M  V30 18 2 18 19
M  V30 19 1 19 20
M  V30 20 2 20 21
M  V30 21 1 21 22
M  V30 22 1 21 23
M  V30 23 2 23 24
M  V30 24 2 17 25
M  V30 25 1 25 26
M  V30 26 1 25 27
M  V30 27 2 27 28
M  V30 28 1 10 29
M  V30 29 2 29 30
M  V30 30 1 29 31
M  V30 31 1 31 32
M  V30 32 2 32 33
M  V30 33 2 8 34
M  V30 34 1 34 35
M  V30 35 1 35 36
M  V30 36 1 36 3
M  V30 37 2 36 7
M  V30 38 1 32 9
M  V30 39 1 28 11
M  V30 40 1 28 15
M  V30 41 1 24 18
M  V30 42 1 1 37
M  V30 43 1 1 38
M  V30 44 1 1 39
M  V30 45 1 4 40
M  V30 46 1 5 41
M  V30 47 1 6 42
M  V30 48 1 12 43
M  V30 49 1 14 44
M  V30 50 1 14 45
M  V30 51 1 14 46
M  V30 52 1 16 47
M  V30 53 1 19 48
M  V30 54 1 20 49
M  V30 55 1 23 50
M  V30 56 1 24 51
M  V30 57 1 27 52
M  V30 58 1 31 53
M  V30 59 1 34 54
M  V30 END BOND
M  V30 END CTAB
M  END
>  <Dataset>  (839) 
ChEMBL_Kinases

>  <Ligand_Instance>  (839) 
nan

>  <PDB_ID>  (839) 
nan

>  <Standardized_SMILES>  (839) 
COc1cccc2c(C3=C(c4cn(C)c5cc(-c6ccc(Cl)cc6)c(F)cc45)C(=O)NC3=O)coc12

>  <Name>  (839) 
nan

>  <Pocket>  (839) 
nan

>  <ATP_Site>  (839) 
nan

>  <Peripheral>  (839) 
nan

>  <Num_H_Atoms_ProtBoundConf>  (839) 
nan

>  <Num_Resolved_Atoms>  (839) 
nan

>  <Num_Not_Resolved_Atoms>  (839) 
nan

$$$$
CHEMBL488573
     RDKit          3D

  0  0  0  0  0  0  0  0  0  0999 V3000
M  V30 BEGIN CTAB
M  V30 COUNTS 44 47 0 0 0
M  V30 BEGIN ATOM
M  V30 1 C 1.547243 -4.701880 2.156950 0
M  V30 2 N 0.867524 -3.731652 1.328337 0
M  V30 3 C -0.164171 -4.345918 0.514739 0
M  V30 4 C 1.771042 -2.927032 0.561609 0
M  V30 5 C 2.547269 -2.038113 1.489059 0
M  V30 6 C 1.726680 -1.077564 2.276969 0
M  V30 7 N 0.968003 -0.127965 1.532749 0
M  V30 8 C 1.474577 1.078491 1.113396 0
M  V30 9 C 2.766991 1.590803 1.304978 0
M  V30 10 C 3.182167 2.824859 0.840814 0
M  V30 11 C 2.237076 3.582632 0.144200 0
M  V30 12 O 2.643042 4.826574 -0.327940 0
M  V30 13 C 0.977523 3.057728 -0.030056 0
M  V30 14 C 0.560689 1.844531 0.423007 0
M  V30 15 C -0.570964 1.086418 0.407647 0
M  V30 16 C -1.804327 1.312188 -0.119557 0
M  V30 17 C -2.807260 0.381810 0.002704 0
M  V30 18 C -2.556914 -0.803927 0.674008 0
M  V30 19 C -1.297320 -0.997245 1.193742 0
M  V30 20 C -0.293503 -0.080370 1.077058 0
M  V30 21 C -4.075375 0.802362 -0.632025 0
M  V30 22 O -5.138836 0.140617 -0.663334 0
M  V30 23 N -3.755052 2.096932 -1.163785 0
M  V30 24 C -2.408842 2.389401 -0.854935 0
M  V30 25 O -1.993717 3.483218 -1.255806 0
M  V30 26 H 0.796665 -5.496831 2.410236 0
M  V30 27 H 2.428790 -5.164113 1.710173 0
M  V30 28 H 1.782670 -4.188411 3.113945 0
M  V30 29 H -0.454894 -3.721630 -0.342404 0
M  V30 30 H -1.063281 -4.445535 1.161168 0
M  V30 31 H 0.093554 -5.355504 0.160091 0
M  V30 32 H 1.278442 -2.295793 -0.189160 0
M  V30 33 H 2.523290 -3.535084 0.003869 0
M  V30 34 H 3.321844 -1.486606 0.898985 0
M  V30 35 H 3.101625 -2.668050 2.249096 0
M  V30 36 H 2.424186 -0.517335 2.940026 0
M  V30 37 H 1.055680 -1.649756 2.965992 0
M  V30 38 H 3.545280 1.050508 1.841023 0
M  V30 39 H 4.183130 3.199982 1.000287 0
M  V30 40 H 2.609467 5.089047 -1.299806 0
M  V30 41 H 0.343904 3.711296 -0.568614 0
M  V30 42 H -3.328799 -1.576347 0.795598 0
M  V30 43 H -1.134780 -1.904821 1.709338 0
M  V30 44 H -4.512433 2.617259 -1.676784 0
M  V30 END ATOM
M  V30 BEGIN BOND
M  V30 1 1 1 2
M  V30 2 1 2 3
M  V30 3 1 2 4
M  V30 4 1 4 5
M  V30 5 1 5 6
M  V30 6 1 6 7
M  V30 7 1 7 8
M  V30 8 2 8 9
M  V30 9 1 9 10
M  V30 10 2 10 11
M  V30 11 1 11 12
M  V30 12 1 11 13
M  V30 13 2 13 14
M  V30 14 1 14 15
M  V30 15 2 15 16
M  V30 16 1 16 17
M  V30 17 2 17 18
M  V30 18 1 18 19
M  V30 19 2 19 20
M  V30 20 1 17 21
M  V30 21 2 21 22
M  V30 22 1 21 23
M  V30 23 1 23 24
M  V30 24 2 24 25
M  V30 25 1 20 7
M  V30 26 1 14 8
M  V30 27 1 20 15
M  V30 28 1 24 16
M  V30 29 1 1 26
M  V30 30 1 1 27
M  V30 31 1 1 28
M  V30 32 1 3 29
M  V30 33 1 3 30
M  V30 34 1 3 31
M  V30 35 1 4 32
M  V30 36 1 4 33
M  V30 37 1 5 34
M  V30 38 1 5 35
M  V30 39 1 6 36
M  V30 40 1 6 37
M  V30 41 1 9 38
M  V30 42 1 10 39
M  V30 43 1 12 40
M  V30 44 1 13 41
M  V30 45 1 18 42
M  V30 46 1 19 43
M  V30 47 1 23 44
M  V30 END BOND
M  V30 END CTAB
M  END
>  <Dataset>  (840) 
ChEMBL_Kinases

>  <Ligand_Instance>  (840) 
nan

>  <PDB_ID>  (840) 
nan

>  <Standardized_SMILES>  (840) 
CN(C)CCCn1c2ccc(O)cc2c2c3c(ccc21)C(=O)NC3=O

>  <Name>  (840) 
nan

>  <Pocket>  (840) 
nan

>  <ATP_Site>  (840) 
nan

>  <Peripheral>  (840) 
nan

>  <Num_H_Atoms_ProtBoundConf>  (840) 
nan

>  <Num_Resolved_Atoms>  (840) 
nan

>  <Num_Not_Resolved_Atoms>  (840) 
nan

$$$$
CHEMBL3702215
     RDKit          3D

  0  0  0  0  0  0  0  0  0  0999 V3000
M  V30 BEGIN CTAB
M  V30 COUNTS 62 66 0 0 0
M  V30 BEGIN ATOM
M  V30 1 C 3.438440 -1.927133 2.193125 0
M  V30 2 O 2.242666 -1.418588 2.632556 0
M  V30 3 C 2.154861 -0.037569 2.690841 0
M  V30 4 C 2.408605 0.567588 1.343390 0
M  V30 5 N 2.327027 2.039974 1.371591 0
M  V30 6 C 3.354670 2.905889 1.617456 0
M  V30 7 C 4.679821 2.613367 1.896560 0
M  V30 8 N 5.541916 3.663788 2.119152 0
M  V30 9 C 5.013445 4.905643 2.046710 0
M  V30 10 C 3.724510 5.292529 1.779571 0
M  V30 11 C 2.876796 4.202058 1.556737 0
M  V30 12 C 1.513464 4.090270 1.262883 0
M  V30 13 C 0.541825 5.075624 1.085562 0
M  V30 14 N -0.711082 4.671724 0.804986 0
M  V30 15 C -1.026846 3.360664 0.697192 0
M  V30 16 N -2.353264 2.918996 0.374541 0
M  V30 17 C -2.660994 1.528223 0.345143 0
M  V30 18 C -3.915619 1.033261 -0.008756 0
M  V30 19 C -4.082487 -0.328878 0.015833 0
M  V30 20 C -3.081643 -1.201182 0.369246 0
M  V30 21 N -3.183841 -2.609833 0.378337 0
M  V30 22 C -4.000370 -3.292500 -0.634388 0
M  V30 23 C -2.952662 -3.805420 -1.635635 0
M  V30 24 C -1.821971 -4.426216 -0.904696 0
M  V30 25 N -1.139483 -5.486338 -1.544258 0
M  V30 26 C -1.894694 -6.621522 -1.948620 0
M  V30 27 C -0.234779 -5.111622 -2.599963 0
M  V30 28 C -2.161843 -4.813763 0.529714 0
M  V30 29 C -2.571581 -3.573679 1.316444 0
M  V30 30 N -1.881739 -0.649263 0.704326 0
M  V30 31 N -1.690331 0.660726 0.689502 0
M  V30 32 N -0.072188 2.412615 0.871863 0
M  V30 33 C 1.207991 2.752026 1.156167 0
M  V30 34 H 4.252255 -1.537352 2.867289 0
M  V30 35 H 3.355367 -3.043190 2.327060 0
M  V30 36 H 3.714313 -1.731978 1.161163 0
M  V30 37 H 2.752024 0.394933 3.508940 0
M  V30 38 H 1.084237 0.162004 3.007663 0
M  V30 39 H 3.390759 0.249714 0.942344 0
M  V30 40 H 1.649259 0.211869 0.647816 0
M  V30 41 H 5.015002 1.592623 1.933106 0
M  V30 42 H 5.758936 5.681528 2.240652 0
M  V30 43 H 3.367148 6.298146 1.737321 0
M  V30 44 H 0.782251 6.141894 1.168815 0
M  V30 45 H -3.052752 3.656115 0.173908 0
M  V30 46 H -4.695586 1.734531 -0.285929 0
M  V30 47 H -5.024603 -0.776257 -0.247888 0
M  V30 48 H -4.647168 -2.544464 -1.143515 0
M  V30 49 H -4.534136 -4.097673 -0.134485 0
M  V30 50 H -2.598794 -2.865734 -2.152641 0
M  V30 51 H -3.423659 -4.407079 -2.432367 0
M  V30 52 H -1.032414 -3.606964 -0.754480 0
M  V30 53 H -2.876494 -6.712243 -1.426588 0
M  V30 54 H -1.299661 -7.526733 -1.616994 0
M  V30 55 H -1.997841 -6.752781 -3.051807 0
M  V30 56 H -0.794061 -4.633769 -3.452840 0
M  V30 57 H 0.554322 -4.410676 -2.248943 0
M  V30 58 H 0.277015 -5.977944 -3.071051 0
M  V30 59 H -3.031077 -5.494562 0.516965 0
M  V30 60 H -1.275798 -5.240934 1.010572 0
M  V30 61 H -1.747412 -3.070468 1.814524 0
M  V30 62 H -3.311234 -3.906253 2.071982 0
M  V30 END ATOM
M  V30 BEGIN BOND
M  V30 1 1 1 2
M  V30 2 1 2 3
M  V30 3 1 3 4
M  V30 4 1 4 5
M  V30 5 1 5 6
M  V30 6 2 6 7
M  V30 7 1 7 8
M  V30 8 2 8 9
M  V30 9 1 9 10
M  V30 10 2 10 11
M  V30 11 1 11 12
M  V30 12 2 12 13
M  V30 13 1 13 14
M  V30 14 2 14 15
M  V30 15 1 15 16
M  V30 16 1 16 17
M  V30 17 2 17 18
M  V30 18 1 18 19
M  V30 19 2 19 20
M  V30 20 1 20 21
M  V30 21 1 21 22
M  V30 22 1 22 23
M  V30 23 1 23 24
M  V30 24 1 24 25
M  V30 25 1 25 26
M  V30 26 1 25 27
M  V30 27 1 24 28
M  V30 28 1 28 29
M  V30 29 1 20 30
M  V30 30 2 30 31
M  V30 31 1 15 32
M  V30 32 2 32 33
M  V30 33 1 33 5
M  V30 34 1 11 6
M  V30 35 1 33 12
M  V30 36 1 31 17
M  V30 37 1 29 21
M  V30 38 1 1 34
M  V30 39 1 1 35
M  V30 40 1 1 36
M  V30 41 1 3 37
M  V30 42 1 3 38
M  V30 43 1 4 39
M  V30 44 1 4 40
M  V30 45 1 7 41
M  V30 46 1 9 42
M  V30 47 1 10 43
M  V30 48 1 13 44
M  V30 49 1 16 45
M  V30 50 1 18 46
M  V30 51 1 19 47
M  V30 52 1 22 48
M  V30 53 1 22 49
M  V30 54 1 23 50
M  V30 55 1 23 51
M  V30 56 1 24 52
M  V30 57 1 26 53
M  V30 58 1 26 54
M  V30 59 1 26 55
M  V30 60 1 27 56
M  V30 61 1 27 57
M  V30 62 1 27 58
M  V30 63 1 28 59
M  V30 64 1 28 60
M  V30 65 1 29 61
M  V30 66 1 29 62
M  V30 END BOND
M  V30 END CTAB
M  END
>  <Dataset>  (841) 
ChEMBL_Kinases

>  <Ligand_Instance>  (841) 
nan

>  <PDB_ID>  (841) 
nan

>  <Standardized_SMILES>  (841) 
COCCn1c2cnccc2c2cnc(Nc3ccc(N4CCC(N(C)C)CC4)nn3)nc21

>  <Name>  (841) 
nan

>  <Pocket>  (841) 
nan

>  <ATP_Site>  (841) 
nan

>  <Peripheral>  (841) 
nan

>  <Num_H_Atoms_ProtBoundConf>  (841) 
nan

>  <Num_Resolved_Atoms>  (841) 
nan

>  <Num_Not_Resolved_Atoms>  (841) 
nan

$$$$
CHEMBL489422
     RDKit          3D

  0  0  0  0  0  0  0  0  0  0999 V3000
M  V30 BEGIN CTAB
M  V30 COUNTS 40 44 0 0 0
M  V30 BEGIN ATOM
M  V30 1 C -1.627944 -4.836537 2.432936 0
M  V30 2 N -1.040420 -3.526108 2.153080 0
M  V30 3 C 0.150238 -3.404627 1.546447 0
M  V30 4 C 0.491157 -2.056719 1.393689 0
M  V30 5 C 1.720568 -1.577512 0.782194 0
M  V30 6 C 2.026352 -0.609435 -0.098436 0
M  V30 7 C 1.132260 0.308325 -0.743197 0
M  V30 8 C -0.089962 -0.148838 -1.255842 0
M  V30 9 O -0.753243 0.866240 -1.797122 0
M  V30 10 C -0.054373 1.981726 -1.681979 0
M  V30 11 C -0.234340 3.302454 -2.045745 0
M  V30 12 C 0.728998 4.258541 -1.763721 0
M  V30 13 C 1.905789 3.889484 -1.099480 0
M  V30 14 C 2.082875 2.575703 -0.738835 0
M  V30 15 C 1.104166 1.652817 -1.036828 0
M  V30 16 C 3.466410 -0.633630 -0.320897 0
M  V30 17 O 4.235401 0.068068 -1.054375 0
M  V30 18 N 4.078616 -1.659259 0.456125 0
M  V30 19 C 2.989035 -2.253892 1.149468 0
M  V30 20 O 3.170122 -3.230070 1.956367 0
M  V30 21 C -0.590425 -1.415699 1.957348 0
M  V30 22 C -0.832031 -0.067774 2.108785 0
M  V30 23 C -1.987611 0.377107 2.711785 0
M  V30 24 Br -2.414978 2.216330 2.969733 0
M  V30 25 C -2.902288 -0.549104 3.163605 0
M  V30 26 C -2.700489 -1.910560 3.032534 0
M  V30 27 C -1.529382 -2.307683 2.422846 0
M  V30 28 H -1.445993 -5.532726 1.587427 0
M  V30 29 H -1.207065 -5.220448 3.391590 0
M  V30 30 H -2.714953 -4.715587 2.597853 0
M  V30 31 H 0.796697 -4.216896 1.203347 0
M  V30 32 H -0.597141 -1.112207 -1.307532 0
M  V30 33 H -1.135881 3.598938 -2.556779 0
M  V30 34 H 0.623848 5.319237 -2.037368 0
M  V30 35 H 2.650188 4.664338 -0.889004 0
M  V30 36 H 2.990347 2.307407 -0.220036 0
M  V30 37 H 5.098499 -1.950098 0.535572 0
M  V30 38 H -0.135309 0.665869 1.772171 0
M  V30 39 H -3.849679 -0.285183 3.656485 0
M  V30 40 H -3.394580 -2.680437 3.371619 0
M  V30 END ATOM
M  V30 BEGIN BOND
M  V30 1 1 1 2
M  V30 2 1 2 3
M  V30 3 2 3 4
M  V30 4 1 4 5
M  V30 5 2 5 6
M  V30 6 1 6 7
M  V30 7 2 7 8
M  V30 8 1 8 9
M  V30 9 1 9 10
M  V30 10 2 10 11
M  V30 11 1 11 12
M  V30 12 2 12 13
M  V30 13 1 13 14
M  V30 14 2 14 15
M  V30 15 1 6 16
M  V30 16 2 16 17
M  V30 17 1 16 18
M  V30 18 1 18 19
M  V30 19 2 19 20
M  V30 20 1 4 21
M  V30 21 2 21 22
M  V30 22 1 22 23
M  V30 23 1 23 24
M  V30 24 2 23 25
M  V30 25 1 25 26
M  V30 26 2 26 27
M  V30 27 1 27 2
M  V30 28 1 19 5
M  V30 29 1 27 21
M  V30 30 1 15 7
M  V30 31 1 15 10
M  V30 32 1 1 28
M  V30 33 1 1 29
M  V30 34 1 1 30
M  V30 35 1 3 31
M  V30 36 1 8 32
M  V30 37 1 11 33
M  V30 38 1 12 34
M  V30 39 1 13 35
M  V30 40 1 14 36
M  V30 41 1 18 37
M  V30 42 1 22 38
M  V30 43 1 25 39
M  V30 44 1 26 40
M  V30 END BOND
M  V30 END CTAB
M  END
>  <Dataset>  (842) 
ChEMBL_Kinases

>  <Ligand_Instance>  (842) 
nan

>  <PDB_ID>  (842) 
nan

>  <Standardized_SMILES>  (842) 
Cn1cc(C2=C(c3coc4ccccc34)C(=O)NC2=O)c2cc(Br)ccc21

>  <Name>  (842) 
nan

>  <Pocket>  (842) 
nan

>  <ATP_Site>  (842) 
nan

>  <Peripheral>  (842) 
nan

>  <Num_H_Atoms_ProtBoundConf>  (842) 
nan

>  <Num_Resolved_Atoms>  (842) 
nan

>  <Num_Not_Resolved_Atoms>  (842) 
nan

$$$$
CHEMBL489906
     RDKit          3D

  0  0  0  0  0  0  0  0  0  0999 V3000
M  V30 BEGIN CTAB
M  V30 COUNTS 56 60 0 0 0
M  V30 BEGIN ATOM
M  V30 1 O 5.463244 -4.472012 5.320638 0
M  V30 2 C 5.538074 -3.196603 4.753592 0
M  V30 3 C 4.582376 -3.196979 3.589011 0
M  V30 4 N 4.511324 -1.985335 2.876714 0
M  V30 5 C 3.951181 -0.849037 3.485383 0
M  V30 6 C 2.796120 -0.204485 2.752395 0
M  V30 7 C 2.359807 -1.104561 1.644975 0
M  V30 8 C 1.175148 -0.641800 0.908025 0
M  V30 9 C 1.154136 0.590654 0.288319 0
M  V30 10 C 0.072802 1.090047 -0.424859 0
M  V30 11 C -1.071267 0.290170 -0.521293 0
M  V30 12 C -2.289851 0.489797 -1.145620 0
M  V30 13 C -2.706266 1.663531 -1.906839 0
M  V30 14 C -3.045444 1.755629 -3.241235 0
M  V30 15 C -3.412768 2.982960 -3.753799 0
M  V30 16 N -3.443069 4.079318 -2.972887 0
M  V30 17 C -3.108605 3.987211 -1.657739 0
M  V30 18 N -2.751755 2.801834 -1.154217 0
M  V30 19 C -3.018575 -0.658724 -0.890695 0
M  V30 20 C -4.379052 -0.942672 -1.337189 0
M  V30 21 C -5.504566 -0.219334 -0.980890 0
M  V30 22 C -6.761263 -0.518579 -1.421334 0
M  V30 23 C -6.946143 -1.600399 -2.272043 0
M  V30 24 F -8.161460 -1.958636 -2.750153 0
M  V30 25 C -5.821545 -2.334586 -2.636625 0
M  V30 26 C -4.549151 -2.028700 -2.188524 0
M  V30 27 N -2.263624 -1.509650 -0.143533 0
M  V30 28 C -1.051947 -0.944089 0.098623 0
M  V30 29 C 0.032807 -1.436985 0.810062 0
M  V30 30 C 3.534576 -1.319118 0.702625 0
M  V30 31 C 4.633115 -2.015472 1.470283 0
M  V30 32 H 4.534380 -4.743526 5.534516 0
M  V30 33 H 6.576043 -3.040914 4.440775 0
M  V30 34 H 5.284069 -2.497316 5.549458 0
M  V30 35 H 4.926850 -3.986678 2.888283 0
M  V30 36 H 3.589991 -3.545861 3.975651 0
M  V30 37 H 4.761317 -0.062467 3.536424 0
M  V30 38 H 3.708415 -1.045268 4.546982 0
M  V30 39 H 1.998125 -0.033640 3.489113 0
M  V30 40 H 3.089298 0.772275 2.279221 0
M  V30 41 H 2.148926 -2.108387 2.064671 0
M  V30 42 H 2.019065 1.227918 0.345385 0
M  V30 43 H 0.106762 2.070306 -0.895924 0
M  V30 44 H -2.983772 0.809671 -3.766465 0
M  V30 45 H -3.663136 2.965684 -4.810318 0
M  V30 46 H -3.125971 4.860569 -1.007502 0
M  V30 47 H -5.343854 0.623609 -0.314941 0
M  V30 48 H -7.625931 0.078375 -1.116346 0
M  V30 49 H -5.980664 -3.183945 -3.306849 0
M  V30 50 H -3.703753 -2.642820 -2.509913 0
M  V30 51 H -2.602359 -2.448841 0.175754 0
M  V30 52 H -0.006259 -2.407655 1.274282 0
M  V30 53 H 3.878182 -0.398498 0.213122 0
M  V30 54 H 3.166071 -2.030216 -0.066068 0
M  V30 55 H 4.747214 -3.086154 1.147786 0
M  V30 56 H 5.606137 -1.545480 1.154581 0
M  V30 END ATOM
M  V30 BEGIN BOND
M  V30 1 1 1 2
M  V30 2 1 2 3
M  V30 3 1 3 4
M  V30 4 1 4 5
M  V30 5 1 5 6
M  V30 6 1 6 7
M  V30 7 1 7 8
M  V30 8 2 8 9
M  V30 9 1 9 10
M  V30 10 2 10 11
M  V30 11 1 11 12
M  V30 12 1 12 13
M  V30 13 2 13 14
M  V30 14 1 14 15
M  V30 15 2 15 16
M  V30 16 1 16 17
M  V30 17 2 17 18
M  V30 18 2 12 19
M  V30 19 1 19 20
M  V30 20 2 20 21
M  V30 21 1 21 22
M  V30 22 2 22 23
M  V30 23 1 23 24
M  V30 24 1 23 25
M  V30 25 2 25 26
M  V30 26 1 19 27
M  V30 27 1 27 28
M  V30 28 2 28 29
M  V30 29 1 7 30
M  V30 30 1 30 31
M  V30 31 1 31 4
M  V30 32 1 29 8
M  V30 33 1 28 11
M  V30 34 1 18 13
M  V30 35 1 26 20
M  V30 36 1 1 32
M  V30 37 1 2 33
M  V30 38 1 2 34
M  V30 39 1 3 35
M  V30 40 1 3 36
M  V30 41 1 5 37
M  V30 42 1 5 38
M  V30 43 1 6 39
M  V30 44 1 6 40
M  V30 45 1 7 41
M  V30 46 1 9 42
M  V30 47 1 10 43
M  V30 48 1 14 44
M  V30 49 1 15 45
M  V30 50 1 17 46
M  V30 51 1 21 47
M  V30 52 1 22 48
M  V30 53 1 25 49
M  V30 54 1 26 50
M  V30 55 1 27 51
M  V30 56 1 29 52
M  V30 57 1 30 53
M  V30 58 1 30 54
M  V30 59 1 31 55
M  V30 60 1 31 56
M  V30 END BOND
M  V30 END CTAB
M  END
>  <Dataset>  (843) 
ChEMBL_Kinases

>  <Ligand_Instance>  (843) 
nan

>  <PDB_ID>  (843) 
nan

>  <Standardized_SMILES>  (843) 
OCCN1CCC(c2ccc3c(-c4ccncn4)c(-c4ccc(F)cc4)[nH]c3c2)CC1

>  <Name>  (843) 
nan

>  <Pocket>  (843) 
nan

>  <ATP_Site>  (843) 
nan

>  <Peripheral>  (843) 
nan

>  <Num_H_Atoms_ProtBoundConf>  (843) 
nan

>  <Num_Resolved_Atoms>  (843) 
nan

>  <Num_Not_Resolved_Atoms>  (843) 
nan

$$$$
CHEMBL4877470
     RDKit          3D

  0  0  0  0  0  0  0  0  0  0999 V3000
M  V30 BEGIN CTAB
M  V30 COUNTS 42 43 0 0 0
M  V30 BEGIN ATOM
M  V30 1 C -0.177306 -3.776894 0.442312 0
M  V30 2 C -1.063723 -4.259198 -0.676131 0
M  V30 3 C -0.595106 -5.672547 -1.025221 0
M  V30 4 C -0.999233 -3.455941 -1.925154 0
M  V30 5 C -1.385794 -2.020219 -1.802827 0 CFG=1
M  V30 6 N -2.732192 -1.833388 -1.339397 0
M  V30 7 C -0.497218 -1.185369 -0.994810 0
M  V30 8 O -1.364519 -0.649802 -0.222292 0
M  V30 9 N 0.896443 -0.918987 -0.933732 0
M  V30 10 C 1.177528 0.018661 0.100026 0
M  V30 11 C 1.155025 1.353209 -0.268166 0
M  V30 12 C 1.421453 2.305334 0.697304 0
M  V30 13 C 1.696850 1.876666 1.981817 0
M  V30 14 C 1.991684 2.810300 3.077946 0
M  V30 15 C 2.845372 2.469968 4.125613 0
M  V30 16 C 3.014984 3.474008 5.084484 0
M  V30 17 N 2.413868 4.675827 5.020912 0
M  V30 18 C 1.598181 4.976957 4.003172 0
M  V30 19 C 1.371136 4.062300 3.020233 0
M  V30 20 C 1.717279 0.523064 2.344960 0
M  V30 21 C 1.450687 -0.426798 1.378083 0
M  V30 22 H -0.645155 -2.973686 1.033166 0
M  V30 23 H -0.005364 -4.623594 1.169911 0
M  V30 24 H 0.840485 -3.514407 0.079646 0
M  V30 25 H -2.124166 -4.297035 -0.331401 0
M  V30 26 H -1.120605 -6.059751 -1.926695 0
M  V30 27 H 0.510605 -5.630524 -1.148205 0
M  V30 28 H -0.762673 -6.359609 -0.145881 0
M  V30 29 H 0.022625 -3.518451 -2.383558 0
M  V30 30 H -1.681386 -3.955097 -2.661040 0
M  V30 31 H -1.370377 -1.573089 -2.845396 0
M  V30 32 H -2.759306 -2.105619 -0.329033 0
M  V30 33 H -2.943006 -0.809361 -1.357569 0
M  V30 34 H 1.339388 -1.503601 -1.688153 0
M  V30 35 H 0.938016 1.681583 -1.278409 0
M  V30 36 H 1.429407 3.385002 0.512790 0
M  V30 37 H 3.308086 1.515675 4.154031 0
M  V30 38 H 3.691019 3.180461 5.897122 0
M  V30 39 H 1.183789 5.971984 4.076597 0
M  V30 40 H 0.704238 4.346609 2.214459 0
M  V30 41 H 1.933669 0.196377 3.350745 0
M  V30 42 H 1.440206 -1.493566 1.549452 0
M  V30 END ATOM
M  V30 BEGIN BOND
M  V30 1 1 1 2
M  V30 2 1 2 3
M  V30 3 1 2 4
M  V30 4 1 4 5
M  V30 5 1 5 6
M  V30 6 1 5 7
M  V30 7 2 7 8
M  V30 8 1 7 9
M  V30 9 1 9 10
M  V30 10 2 10 11
M  V30 11 1 11 12
M  V30 12 2 12 13
M  V30 13 1 13 14
M  V30 14 2 14 15
M  V30 15 1 15 16
M  V30 16 2 16 17
M  V30 17 1 17 18
M  V30 18 2 18 19
M  V30 19 1 13 20
M  V30 20 2 20 21
M  V30 21 1 21 10
M  V30 22 1 19 14
M  V30 23 1 1 22
M  V30 24 1 1 23
M  V30 25 1 1 24
M  V30 26 1 2 25
M  V30 27 1 3 26
M  V30 28 1 3 27
M  V30 29 1 3 28
M  V30 30 1 4 29
M  V30 31 1 4 30
M  V30 32 1 5 31 CFG=3
M  V30 33 1 6 32
M  V30 34 1 6 33
M  V30 35 1 9 34
M  V30 36 1 11 35
M  V30 37 1 12 36
M  V30 38 1 15 37
M  V30 39 1 16 38
M  V30 40 1 18 39
M  V30 41 1 19 40
M  V30 42 1 20 41
M  V30 43 1 21 42
M  V30 END BOND
M  V30 END CTAB
M  END
>  <Dataset>  (844) 
ChEMBL_Kinases

>  <Ligand_Instance>  (844) 
nan

>  <PDB_ID>  (844) 
nan

>  <Standardized_SMILES>  (844) 
CC(C)C[C@@H](N)C(=O)Nc1ccc(-c2ccncc2)cc1

>  <Name>  (844) 
nan

>  <Pocket>  (844) 
nan

>  <ATP_Site>  (844) 
nan

>  <Peripheral>  (844) 
nan

>  <Num_H_Atoms_ProtBoundConf>  (844) 
nan

>  <Num_Resolved_Atoms>  (844) 
nan

>  <Num_Not_Resolved_Atoms>  (844) 
nan

$$$$
CHEMBL599791
     RDKit          3D

  0  0  0  0  0  0  0  0  0  0999 V3000
M  V30 BEGIN CTAB
M  V30 COUNTS 63 66 0 0 0
M  V30 BEGIN ATOM
M  V30 1 C -1.086132 0.026077 8.983411 0
M  V30 2 O -0.562900 1.152063 8.322838 0
M  V30 3 C 0.029016 1.106123 7.078614 0
M  V30 4 C 0.140121 -0.107360 6.390831 0
M  V30 5 C 0.741140 -0.158728 5.125827 0
M  V30 6 C 1.233126 1.018202 4.550127 0
M  V30 7 C 1.849914 0.924873 3.234782 0
M  V30 8 O 1.880904 -0.225525 2.715729 0
M  V30 9 N 2.389082 2.025320 2.552250 0
M  V30 10 C 3.020399 2.036431 1.245390 0
M  V30 11 C 1.932639 1.952444 0.236185 0
M  V30 12 C 1.436760 3.200618 -0.149169 0
M  V30 13 C 0.434249 3.329800 -1.070172 0
M  V30 14 C -0.133711 2.199157 -1.663276 0
M  V30 15 C 0.368353 0.975043 -1.270778 0
M  V30 16 C -0.210383 -0.216808 -1.876276 0
M  V30 17 O -1.135035 -0.053955 -2.711584 0
M  V30 18 N 0.182892 -1.543605 -1.601087 0
M  V30 19 C -0.582403 -2.477231 -2.360255 0
M  V30 20 C -1.737249 -2.887246 -1.684038 0
M  V30 21 C -2.578552 -3.793955 -2.302535 0
M  V30 22 C -2.269484 -4.267506 -3.549442 0
M  V30 23 C -1.136145 -3.872323 -4.226220 0
M  V30 24 C -0.269025 -2.954207 -3.618742 0
M  V30 25 C -0.741577 -4.341644 -5.572017 0
M  V30 26 N -1.815105 -4.785993 -6.398077 0
M  V30 27 C -1.645295 -6.142410 -6.839130 0
M  V30 28 C -3.105589 -4.639161 -5.760690 0
M  V30 29 C -3.052240 -5.246781 -4.375101 0
M  V30 30 C 1.365277 0.844890 -0.355122 0
M  V30 31 C 1.101228 2.189275 5.264917 0
M  V30 32 C 0.513902 2.264751 6.510435 0
M  V30 33 O 0.389085 3.453662 7.216336 0
M  V30 34 C 0.827690 4.701584 6.775340 0
M  V30 35 H -0.225579 -0.649000 9.225542 0
M  V30 36 H -1.838488 -0.518790 8.350435 0
M  V30 37 H -1.527730 0.328948 9.954565 0
M  V30 38 H -0.247986 -0.977441 6.867891 0
M  V30 39 H 0.796230 -1.139649 4.641772 0
M  V30 40 H 2.338250 2.947282 3.024205 0
M  V30 41 H 3.646778 2.912446 1.087915 0
M  V30 42 H 3.645325 1.111836 1.138372 0
M  V30 43 H 1.796246 4.138984 0.239556 0
M  V30 44 H 0.028738 4.284184 -1.389594 0
M  V30 45 H -0.931192 2.305353 -2.395838 0
M  V30 46 H 0.944385 -1.703681 -0.915465 0
M  V30 47 H -2.031695 -2.553844 -0.710618 0
M  V30 48 H -3.477653 -4.172266 -1.883895 0
M  V30 49 H 0.655175 -2.559102 -4.037408 0
M  V30 50 H -0.070187 -5.230625 -5.388442 0
M  V30 51 H -0.082179 -3.588765 -6.081553 0
M  V30 52 H -0.719268 -6.304459 -7.408617 0
M  V30 53 H -1.633673 -6.863885 -6.010091 0
M  V30 54 H -2.483697 -6.347083 -7.557788 0
M  V30 55 H -3.917112 -5.069793 -6.371530 0
M  V30 56 H -3.296478 -3.537481 -5.607713 0
M  V30 57 H -2.645403 -6.261414 -4.348795 0
M  V30 58 H -4.106479 -5.301654 -4.033928 0
M  V30 59 H 1.792772 -0.086006 -0.016414 0
M  V30 60 H 1.464788 3.097593 4.853545 0
M  V30 61 H 0.385008 5.465059 7.461136 0
M  V30 62 H 1.929038 4.760520 6.737346 0
M  V30 63 H 0.381647 4.894292 5.776399 0
M  V30 END ATOM
M  V30 BEGIN BOND
M  V30 1 1 1 2
M  V30 2 1 2 3
M  V30 3 2 3 4
M  V30 4 1 4 5
M  V30 5 2 5 6
M  V30 6 1 6 7
M  V30 7 2 7 8
M  V30 8 1 7 9
M  V30 9 1 9 10
M  V30 10 1 10 11
M  V30 11 2 11 12
M  V30 12 1 12 13
M  V30 13 2 13 14
M  V30 14 1 14 15
M  V30 15 1 15 16
M  V30 16 2 16 17
M  V30 17 1 16 18
M  V30 18 1 18 19
M  V30 19 2 19 20
M  V30 20 1 20 21
M  V30 21 2 21 22
M  V30 22 1 22 23
M  V30 23 2 23 24
M  V30 24 1 23 25
M  V30 25 1 25 26
M  V30 26 1 26 27
M  V30 27 1 26 28
M  V30 28 1 28 29
M  V30 29 2 15 30
M  V30 30 1 6 31
M  V30 31 2 31 32
M  V30 32 1 32 33
M  V30 33 1 33 34
M  V30 34 1 32 3
M  V30 35 1 30 11
M  V30 36 1 24 19
M  V30 37 1 29 22
M  V30 38 1 1 35
M  V30 39 1 1 36
M  V30 40 1 1 37
M  V30 41 1 4 38
M  V30 42 1 5 39
M  V30 43 1 9 40
M  V30 44 1 10 41
M  V30 45 1 10 42
M  V30 46 1 12 43
M  V30 47 1 13 44
M  V30 48 1 14 45
M  V30 49 1 18 46
M  V30 50 1 20 47
M  V30 51 1 21 48
M  V30 52 1 24 49
M  V30 53 1 25 50
M  V30 54 1 25 51
M  V30 55 1 27 52
M  V30 56 1 27 53
M  V30 57 1 27 54
M  V30 58 1 28 55
M  V30 59 1 28 56
M  V30 60 1 29 57
M  V30 61 1 29 58
M  V30 62 1 30 59
M  V30 63 1 31 60
M  V30 64 1 34 61
M  V30 65 1 34 62
M  V30 66 1 34 63
M  V30 END BOND
M  V30 END CTAB
M  END
>  <Dataset>  (845) 
ChEMBL_Kinases

>  <Ligand_Instance>  (845) 
nan

>  <PDB_ID>  (845) 
nan

>  <Standardized_SMILES>  (845) 
COc1ccc(C(=O)NCc2cccc(C(=O)Nc3ccc4c(c3)CN(C)CC4)c2)cc1OC

>  <Name>  (845) 
nan

>  <Pocket>  (845) 
nan

>  <ATP_Site>  (845) 
nan

>  <Peripheral>  (845) 
nan

>  <Num_H_Atoms_ProtBoundConf>  (845) 
nan

>  <Num_Resolved_Atoms>  (845) 
nan

>  <Num_Not_Resolved_Atoms>  (845) 
nan

$$$$
CHEMBL3884781
     RDKit          3D

  0  0  0  0  0  0  0  0  0  0999 V3000
M  V30 BEGIN CTAB
M  V30 COUNTS 53 56 0 0 0
M  V30 BEGIN ATOM
M  V30 1 C -1.386387 -4.182359 0.250554 0
M  V30 2 C -0.066763 -3.851208 0.818977 0
M  V30 3 O -0.064756 -4.098596 2.066724 0
M  V30 4 N 1.196296 -3.355830 0.465624 0
M  V30 5 C 2.142589 -3.254742 1.558886 0
M  V30 6 C 2.374378 -1.773753 1.756654 0
M  V30 7 C 2.792537 -1.080380 0.485257 0
M  V30 8 N 2.096606 0.200013 0.352906 0
M  V30 9 C 2.747973 1.483560 0.453075 0
M  V30 10 O 3.961394 1.755678 0.660607 0
M  V30 11 C 1.746067 2.589995 0.268566 0
M  V30 12 C 1.703878 3.376466 1.545730 0
M  V30 13 C 2.123608 3.415366 -0.920211 0
M  V30 14 C 0.491087 1.824569 0.059943 0
M  V30 15 C -0.756856 2.358587 -0.160512 0
M  V30 16 N -1.779590 1.499221 -0.328634 0
M  V30 17 C -1.539466 0.173852 -0.274397 0
M  V30 18 N -2.716704 -0.614042 -0.469999 0
M  V30 19 C -3.580583 -1.047500 0.571494 0
M  V30 20 C -3.260747 -0.682558 1.855582 0
M  V30 21 C -4.114212 -1.113741 2.861871 0
M  V30 22 C -5.224151 -1.876717 2.518596 0
M  V30 23 C -5.505550 -2.219709 1.209743 0
M  V30 24 C -4.663657 -1.798758 0.181327 0
M  V30 25 N -0.324006 -0.383197 -0.059313 0
M  V30 26 C 0.719450 0.449562 0.112657 0
M  V30 27 C 2.774844 -1.922140 -0.729626 0
M  V30 28 C 1.677485 -2.934600 -0.837146 0
M  V30 29 H -1.623086 -5.258239 0.468734 0
M  V30 30 H -2.204454 -3.593600 0.743881 0
M  V30 31 H -1.441780 -4.041443 -0.857568 0
M  V30 32 H 1.801247 -3.681741 2.503907 0
M  V30 33 H 3.144790 -3.666574 1.245361 0
M  V30 34 H 1.392734 -1.354566 2.080207 0
M  V30 35 H 3.064501 -1.600781 2.608957 0
M  V30 36 H 3.867442 -0.782428 0.667965 0
M  V30 37 H 1.308183 2.722734 2.348509 0
M  V30 38 H 1.063765 4.271161 1.463768 0
M  V30 39 H 2.722907 3.700717 1.825584 0
M  V30 40 H 1.493628 3.245165 -1.817526 0
M  V30 41 H 2.124407 4.492529 -0.661582 0
M  V30 42 H 3.166579 3.158409 -1.224244 0
M  V30 43 H -0.945047 3.431639 -0.203323 0
M  V30 44 H -2.843572 -0.820083 -1.483266 0
M  V30 45 H -2.386605 -0.087561 2.078458 0
M  V30 46 H -3.932414 -0.868969 3.897328 0
M  V30 47 H -5.902194 -2.222075 3.295242 0
M  V30 48 H -6.366836 -2.814203 0.923196 0
M  V30 49 H -4.841107 -2.041317 -0.858271 0
M  V30 50 H 2.772769 -1.224208 -1.612658 0
M  V30 51 H 3.741954 -2.470861 -0.817216 0
M  V30 52 H 0.819228 -2.581196 -1.476631 0
M  V30 53 H 2.024264 -3.863529 -1.346145 0
M  V30 END ATOM
M  V30 BEGIN BOND
M  V30 1 1 1 2
M  V30 2 2 2 3
M  V30 3 1 2 4
M  V30 4 1 4 5
M  V30 5 1 5 6
M  V30 6 1 6 7
M  V30 7 1 7 8
M  V30 8 1 8 9
M  V30 9 2 9 10
M  V30 10 1 9 11
M  V30 11 1 11 12
M  V30 12 1 11 13
M  V30 13 1 11 14
M  V30 14 2 14 15
M  V30 15 1 15 16
M  V30 16 2 16 17
M  V30 17 1 17 18
M  V30 18 1 18 19
M  V30 19 2 19 20
M  V30 20 1 20 21
M  V30 21 2 21 22
M  V30 22 1 22 23
M  V30 23 2 23 24
M  V30 24 1 17 25
M  V30 25 2 25 26
M  V30 26 1 7 27
M  V30 27 1 27 28
M  V30 28 1 28 4
M  V30 29 1 26 8
M  V30 30 1 26 14
M  V30 31 1 24 19
M  V30 32 1 1 29
M  V30 33 1 1 30
M  V30 34 1 1 31
M  V30 35 1 5 32
M  V30 36 1 5 33
M  V30 37 1 6 34
M  V30 38 1 6 35
M  V30 39 1 7 36
M  V30 40 1 12 37
M  V30 41 1 12 38
M  V30 42 1 12 39
M  V30 43 1 13 40
M  V30 44 1 13 41
M  V30 45 1 13 42
M  V30 46 1 15 43
M  V30 47 1 18 44
M  V30 48 1 20 45
M  V30 49 1 21 46
M  V30 50 1 22 47
M  V30 51 1 23 48
M  V30 52 1 24 49
M  V30 53 1 27 50
M  V30 54 1 27 51
M  V30 55 1 28 52
M  V30 56 1 28 53
M  V30 END BOND
M  V30 END CTAB
M  END
>  <Dataset>  (846) 
ChEMBL_Kinases

>  <Ligand_Instance>  (846) 
nan

>  <PDB_ID>  (846) 
nan

>  <Standardized_SMILES>  (846) 
CC(=O)N1CCC(N2C(=O)C(C)(C)c3cnc(Nc4ccccc4)nc32)CC1

>  <Name>  (846) 
nan

>  <Pocket>  (846) 
nan

>  <ATP_Site>  (846) 
nan

>  <Peripheral>  (846) 
nan

>  <Num_H_Atoms_ProtBoundConf>  (846) 
nan

>  <Num_Resolved_Atoms>  (846) 
nan

>  <Num_Not_Resolved_Atoms>  (846) 
nan

$$$$
CHEMBL489845
     RDKit          3D

  0  0  0  0  0  0  0  0  0  0999 V3000
M  V30 BEGIN CTAB
M  V30 COUNTS 48 52 0 0 0
M  V30 BEGIN ATOM
M  V30 1 C 0.500193 -6.901587 4.023935 0
M  V30 2 C -0.028765 -6.061304 4.886168 0
M  V30 3 C 0.586957 -4.919309 5.567422 0
M  V30 4 O -0.068296 -3.736396 5.268727 0
M  V30 5 C -0.179291 -3.199098 4.025470 0
M  V30 6 C 0.232208 -3.520403 2.761602 0
M  V30 7 C -0.039406 -2.759912 1.655937 0
M  V30 8 C -0.771762 -1.587269 1.782517 0
M  V30 9 C -1.174532 -0.645804 0.821016 0
M  V30 10 C -0.868407 -0.808325 -0.586207 0
M  V30 11 C -0.282072 -0.037644 -1.517842 0
M  V30 12 C 0.300523 1.293726 -1.528277 0
M  V30 13 C 1.633632 1.477372 -1.928427 0
M  V30 14 N 1.970023 2.778974 -1.882916 0
M  V30 15 C 3.284234 3.326574 -2.234743 0
M  V30 16 C 0.909516 3.490772 -1.465875 0
M  V30 17 C 0.698990 4.837264 -1.255385 0
M  V30 18 C -0.580103 5.208695 -0.823753 0
M  V30 19 C -1.605954 4.308978 -0.608117 0
M  V30 20 Br -3.287818 4.987132 -0.021293 0
M  V30 21 C -1.343968 2.977717 -0.832362 0
M  V30 22 C -0.098608 2.579289 -1.254530 0
M  V30 23 C -0.293218 -0.787682 -2.795081 0
M  V30 24 O 0.158342 -0.439546 -3.939232 0
M  V30 25 N -0.912675 -2.062591 -2.627395 0
M  V30 26 C -1.268718 -2.059742 -1.235547 0
M  V30 27 O -1.851461 -3.083536 -0.778282 0
M  V30 28 C -1.844920 0.251019 1.580643 0
M  V30 29 O -1.867575 -0.072577 2.849163 0
M  V30 30 C -1.228389 -1.187094 3.039993 0
M  V30 31 C -0.919366 -2.006126 4.130023 0
M  V30 32 H 1.315487 -7.267561 3.433306 0
M  V30 33 H 0.001496 -7.724603 3.554176 0
M  V30 34 H -1.062425 -6.253573 5.113706 0
M  V30 35 H 0.716187 -5.083948 6.662114 0
M  V30 36 H 1.648614 -4.810862 5.185706 0
M  V30 37 H 0.794177 -4.423276 2.740534 0
M  V30 38 H 0.363781 -3.154097 0.752318 0
M  V30 39 H 2.345060 0.704892 -2.243574 0
M  V30 40 H 3.308209 3.666290 -3.286884 0
M  V30 41 H 4.035770 2.512197 -2.147389 0
M  V30 42 H 3.571428 4.125818 -1.520819 0
M  V30 43 H 1.488296 5.556488 -1.418810 0
M  V30 44 H -0.683347 6.286442 -0.674736 0
M  V30 45 H -2.132289 2.277611 -0.689198 0
M  V30 46 H -1.056596 -2.793347 -3.353734 0
M  V30 47 H -2.330204 1.143149 1.273452 0
M  V30 48 H -1.338936 -1.570397 5.037207 0
M  V30 END ATOM
M  V30 BEGIN BOND
M  V30 1 2 1 2
M  V30 2 1 2 3
M  V30 3 1 3 4
M  V30 4 1 4 5
M  V30 5 2 5 6
M  V30 6 1 6 7
M  V30 7 2 7 8
M  V30 8 1 8 9
M  V30 9 1 9 10
M  V30 10 2 10 11
M  V30 11 1 11 12
M  V30 12 2 12 13
M  V30 13 1 13 14
M  V30 14 1 14 15
M  V30 15 1 14 16
M  V30 16 2 16 17
M  V30 17 1 17 18
M  V30 18 2 18 19
M  V30 19 1 19 20
M  V30 20 1 19 21
M  V30 21 2 21 22
M  V30 22 1 11 23
M  V30 23 2 23 24
M  V30 24 1 23 25
M  V30 25 1 25 26
M  V30 26 2 26 27
M  V30 27 2 9 28
M  V30 28 1 28 29
M  V30 29 1 29 30
M  V30 30 2 30 31
M  V30 31 1 31 5
M  V30 32 1 30 8
M  V30 33 1 26 10
M  V30 34 1 22 12
M  V30 35 1 22 16
M  V30 36 1 1 32
M  V30 37 1 1 33
M  V30 38 1 2 34
M  V30 39 1 3 35
M  V30 40 1 3 36
M  V30 41 1 6 37
M  V30 42 1 7 38
M  V30 43 1 13 39
M  V30 44 1 15 40
M  V30 45 1 15 41
M  V30 46 1 15 42
M  V30 47 1 17 43
M  V30 48 1 18 44
M  V30 49 1 21 45
M  V30 50 1 25 46
M  V30 51 1 28 47
M  V30 52 1 31 48
M  V30 END BOND
M  V30 END CTAB
M  END
>  <Dataset>  (847) 
ChEMBL_Kinases

>  <Ligand_Instance>  (847) 
nan

>  <PDB_ID>  (847) 
nan

>  <Standardized_SMILES>  (847) 
C=CCOc1ccc2c(C3=C(c4cn(C)c5ccc(Br)cc45)C(=O)NC3=O)coc2c1

>  <Name>  (847) 
nan

>  <Pocket>  (847) 
nan

>  <ATP_Site>  (847) 
nan

>  <Peripheral>  (847) 
nan

>  <Num_H_Atoms_ProtBoundConf>  (847) 
nan

>  <Num_Resolved_Atoms>  (847) 
nan

>  <Num_Not_Resolved_Atoms>  (847) 
nan

$$$$
CHEMBL607429
     RDKit          3D

  0  0  0  0  0  0  0  0  0  0999 V3000
M  V30 BEGIN CTAB
M  V30 COUNTS 48 51 0 0 0
M  V30 BEGIN ATOM
M  V30 1 C 0.968036 -4.172718 -0.578462 0
M  V30 2 N 0.093668 -3.414852 0.319640 0
M  V30 3 C 0.224706 -2.128957 0.717119 0
M  V30 4 C 1.327917 -1.302135 0.261522 0
M  V30 5 C 1.009984 -0.188979 -0.488266 0
M  V30 6 C 1.928229 0.711061 -1.005698 0
M  V30 7 C 3.272134 0.438437 -0.726422 0
M  V30 8 N 4.205669 1.293989 -1.213836 0
M  V30 9 C 5.532806 1.075965 -0.971426 0
M  V30 10 C 5.881004 -0.032715 -0.222196 0
M  V30 11 N 4.947633 -0.898631 0.271961 0
M  V30 12 C 3.627669 -0.675496 0.026811 0
M  V30 13 C 2.665040 -1.530437 0.511478 0
M  V30 14 C -0.825582 -1.833694 1.561715 0
M  V30 15 C -1.038394 -0.538115 2.202383 0
M  V30 16 C -0.146690 0.002544 3.108325 0
M  V30 17 C -0.445224 1.245331 3.661366 0
M  V30 18 C -1.611516 1.914814 3.304286 0
M  V30 19 C -2.506395 1.353994 2.384197 0
M  V30 20 N -3.644368 2.168057 2.131404 0
M  V30 21 S -4.109359 2.353039 0.466085 0
M  V30 22 C -2.798004 3.131495 -0.458005 0
M  V30 23 O -5.395192 3.144634 0.351377 0
M  V30 24 O -4.368441 1.012341 -0.159792 0
M  V30 25 C -2.195322 0.122184 1.846034 0
M  V30 26 C -1.603089 -2.992697 1.663463 0
M  V30 27 O -2.653886 -3.110822 2.351454 0
M  V30 28 N -0.999862 -3.930713 0.886180 0
M  V30 29 C -1.504082 -5.296229 0.718836 0
M  V30 30 H 1.479723 -3.489298 -1.283235 0
M  V30 31 H 1.676774 -4.806385 0.003715 0
M  V30 32 H 0.330033 -4.852965 -1.194665 0
M  V30 33 H -0.029661 0.059029 -0.728832 0
M  V30 34 H 1.640546 1.567529 -1.585604 0
M  V30 35 H 6.301114 1.743539 -1.348258 0
M  V30 36 H 6.897440 -0.284951 0.019075 0
M  V30 37 H 2.913750 -2.394327 1.094173 0
M  V30 38 H 0.746866 -0.553119 3.356193 0
M  V30 39 H 0.267772 1.654915 4.372078 0
M  V30 40 H -1.753571 2.885863 3.795631 0
M  V30 41 H -4.173476 2.630052 2.897568 0
M  V30 42 H -3.187247 3.981066 -1.080744 0
M  V30 43 H -2.284880 2.391446 -1.108182 0
M  V30 44 H -2.055686 3.520417 0.287383 0
M  V30 45 H -2.911667 -0.249797 1.156794 0
M  V30 46 H -1.850533 -5.729401 1.673422 0
M  V30 47 H -2.364485 -5.233576 0.009791 0
M  V30 48 H -0.737878 -5.927945 0.236891 0
M  V30 END ATOM
M  V30 BEGIN BOND
M  V30 1 1 1 2
M  V30 2 1 2 3
M  V30 3 1 3 4
M  V30 4 2 4 5
M  V30 5 1 5 6
M  V30 6 2 6 7
M  V30 7 1 7 8
M  V30 8 2 8 9
M  V30 9 1 9 10
M  V30 10 2 10 11
M  V30 11 1 11 12
M  V30 12 2 12 13
M  V30 13 2 3 14
M  V30 14 1 14 15
M  V30 15 2 15 16
M  V30 16 1 16 17
M  V30 17 2 17 18
M  V30 18 1 18 19
M  V30 19 1 19 20
M  V30 20 1 20 21
M  V30 21 1 21 22
M  V30 22 2 21 23
M  V30 23 2 21 24
M  V30 24 2 19 25
M  V30 25 1 14 26
M  V30 26 2 26 27
M  V30 27 1 26 28
M  V30 28 1 28 29
M  V30 29 1 28 2
M  V30 30 1 13 4
M  V30 31 1 25 15
M  V30 32 1 12 7
M  V30 33 1 1 30
M  V30 34 1 1 31
M  V30 35 1 1 32
M  V30 36 1 5 33
M  V30 37 1 6 34
M  V30 38 1 9 35
M  V30 39 1 10 36
M  V30 40 1 13 37
M  V30 41 1 16 38
M  V30 42 1 17 39
M  V30 43 1 18 40
M  V30 44 1 20 41
M  V30 45 1 22 42
M  V30 46 1 22 43
M  V30 47 1 22 44
M  V30 48 1 25 45
M  V30 49 1 29 46
M  V30 50 1 29 47
M  V30 51 1 29 48
M  V30 END BOND
M  V30 END CTAB
M  END
>  <Dataset>  (848) 
ChEMBL_Kinases

>  <Ligand_Instance>  (848) 
nan

>  <PDB_ID>  (848) 
nan

>  <Standardized_SMILES>  (848) 
Cn1c(-c2ccc3nccnc3c2)c(-c2cccc(NS(C)(=O)=O)c2)c(=O)n1C

>  <Name>  (848) 
nan

>  <Pocket>  (848) 
nan

>  <ATP_Site>  (848) 
nan

>  <Peripheral>  (848) 
nan

>  <Num_H_Atoms_ProtBoundConf>  (848) 
nan

>  <Num_Resolved_Atoms>  (848) 
nan

>  <Num_Not_Resolved_Atoms>  (848) 
nan

$$$$
CHEMBL488694
     RDKit          3D

  0  0  0  0  0  0  0  0  0  0999 V3000
M  V30 BEGIN CTAB
M  V30 COUNTS 57 58 0 0 0
M  V30 BEGIN ATOM
M  V30 1 C 1.543618 -4.874916 3.156857 0
M  V30 2 C 2.346885 -4.228663 2.052147 0
M  V30 3 C 3.138878 -3.014367 2.554137 0
M  V30 4 C 3.883300 -2.474108 1.369093 0
M  V30 5 C 4.715134 -1.278590 1.676519 0
M  V30 6 C 4.002468 -0.089980 2.201421 0
M  V30 7 C 2.990127 0.425934 1.257253 0
M  V30 8 O 2.740190 -0.048192 0.127839 0
M  V30 9 O 2.359870 1.495280 1.784195 0
M  V30 10 C 1.339038 2.286647 1.256621 0
M  V30 11 C 0.088495 1.514894 1.064741 0
M  V30 12 C -0.411967 1.005762 2.419284 0
M  V30 13 O -0.608968 2.034304 3.328065 0
M  V30 14 C -1.053970 2.369278 0.528090 0
M  V30 15 C -1.785313 1.305993 -0.271073 0
M  V30 16 C -3.054077 0.988848 -0.557842 0
M  V30 17 C -3.584180 -0.133126 -1.378643 0
M  V30 18 C -2.951391 -1.451589 -1.267852 0
M  V30 19 C -2.827696 -2.220232 -2.566535 0
M  V30 20 C -4.101304 -2.104289 -3.388683 0
M  V30 21 C -4.188865 -0.661453 -3.770918 0
M  V30 22 C -4.286181 0.285845 -2.627234 0
M  V30 23 C -0.650104 0.561451 -0.880102 0
M  V30 24 O -0.761135 0.211535 -2.104720 0
M  V30 25 O 0.280512 0.461742 0.163626 0
M  V30 26 H 0.451095 -4.924972 2.895323 0
M  V30 27 H 1.889164 -5.914630 3.348925 0
M  V30 28 H 1.589123 -4.224363 4.054985 0
M  V30 29 H 1.648333 -3.942624 1.249099 0
M  V30 30 H 3.024165 -4.995665 1.601109 0
M  V30 31 H 2.404417 -2.327012 2.973970 0
M  V30 32 H 3.838875 -3.388259 3.329560 0
M  V30 33 H 4.533549 -3.316002 0.986989 0
M  V30 34 H 3.182638 -2.278757 0.536585 0
M  V30 35 H 5.288609 -0.959459 0.773420 0
M  V30 36 H 5.517037 -1.586888 2.405302 0
M  V30 37 H 4.762656 0.728917 2.299757 0
M  V30 38 H 3.603379 -0.214987 3.228736 0
M  V30 39 H 1.745896 2.656570 0.258674 0
M  V30 40 H 1.207403 3.216109 1.850439 0
M  V30 41 H 0.385333 0.337900 2.796576 0
M  V30 42 H -1.363398 0.451126 2.230806 0
M  V30 43 H -1.373067 1.885794 3.925970 0
M  V30 44 H -1.690791 2.779017 1.323035 0
M  V30 45 H -0.641657 3.144316 -0.149585 0
M  V30 46 H -3.732352 1.732208 -0.070649 0
M  V30 47 H -4.541082 -0.337511 -0.713030 0
M  V30 48 H -2.014550 -1.543902 -0.697838 0
M  V30 49 H -3.575698 -2.213407 -0.655163 0
M  V30 50 H -2.696464 -3.309352 -2.401902 0
M  V30 51 H -1.995827 -1.922897 -3.210603 0
M  V30 52 H -3.926176 -2.683699 -4.316039 0
M  V30 53 H -4.986679 -2.497202 -2.864655 0
M  V30 54 H -3.310138 -0.460541 -4.437361 0
M  V30 55 H -5.066129 -0.579173 -4.455280 0
M  V30 56 H -5.360163 0.530058 -2.513839 0
M  V30 57 H -3.898850 1.277531 -3.018510 0
M  V30 END ATOM
M  V30 BEGIN BOND
M  V30 1 1 1 2
M  V30 2 1 2 3
M  V30 3 1 3 4
M  V30 4 1 4 5
M  V30 5 1 5 6
M  V30 6 1 6 7
M  V30 7 2 7 8
M  V30 8 1 7 9
M  V30 9 1 9 10
M  V30 10 1 10 11
M  V30 11 1 11 12
M  V30 12 1 12 13
M  V30 13 1 11 14
M  V30 14 1 14 15
M  V30 15 2 15 16
M  V30 16 1 16 17
M  V30 17 1 17 18
M  V30 18 1 18 19
M  V30 19 1 19 20
M  V30 20 1 20 21
M  V30 21 1 21 22
M  V30 22 1 15 23
M  V30 23 2 23 24
M  V30 24 1 23 25
M  V30 25 1 25 11
M  V30 26 1 22 17
M  V30 27 1 1 26
M  V30 28 1 1 27
M  V30 29 1 1 28
M  V30 30 1 2 29
M  V30 31 1 2 30
M  V30 32 1 3 31
M  V30 33 1 3 32
M  V30 34 1 4 33
M  V30 35 1 4 34
M  V30 36 1 5 35
M  V30 37 1 5 36
M  V30 38 1 6 37
M  V30 39 1 6 38
M  V30 40 1 10 39
M  V30 41 1 10 40
M  V30 42 1 12 41
M  V30 43 1 12 42
M  V30 44 1 13 43
M  V30 45 1 14 44
M  V30 46 1 14 45
M  V30 47 1 16 46
M  V30 48 1 17 47
M  V30 49 1 18 48
M  V30 50 1 18 49
M  V30 51 1 19 50
M  V30 52 1 19 51
M  V30 53 1 20 52
M  V30 54 1 20 53
M  V30 55 1 21 54
M  V30 56 1 21 55
M  V30 57 1 22 56
M  V30 58 1 22 57
M  V30 END BOND
M  V30 END CTAB
M  END
>  <Dataset>  (849) 
ChEMBL_Kinases

>  <Ligand_Instance>  (849) 
nan

>  <PDB_ID>  (849) 
nan

>  <Standardized_SMILES>  (849) 
CCCCCCC(=O)OCC1(CO)C/C(=C/C2CCCCC2)C(=O)O1

>  <Name>  (849) 
nan

>  <Pocket>  (849) 
nan

>  <ATP_Site>  (849) 
nan

>  <Peripheral>  (849) 
nan

>  <Num_H_Atoms_ProtBoundConf>  (849) 
nan

>  <Num_Resolved_Atoms>  (849) 
nan

>  <Num_Not_Resolved_Atoms>  (849) 
nan

$$$$
CHEMBL599682
     RDKit          3D

  0  0  0  0  0  0  0  0  0  0999 V3000
M  V30 BEGIN CTAB
M  V30 COUNTS 53 57 0 0 0
M  V30 BEGIN ATOM
M  V30 1 C 2.690167 -3.789813 3.755026 0
M  V30 2 O 3.703511 -4.437003 2.975344 0
M  V30 3 C 4.307637 -3.777428 1.887344 0
M  V30 4 C 5.274647 -4.492506 1.201694 0
M  V30 5 C 5.867102 -3.829116 0.124300 0
M  V30 6 C 5.487533 -2.546458 -0.204297 0
M  V30 7 C 4.507867 -1.867047 0.517427 0
M  V30 8 C 4.107870 -0.507736 0.166085 0
M  V30 9 C 4.956897 0.442484 -0.387725 0
M  V30 10 C 4.463400 1.700495 -0.679357 0
M  V30 11 C 3.152111 2.061688 -0.443806 0
M  V30 12 C 2.275728 1.140207 0.107772 0
M  V30 13 N 0.908940 1.437725 0.379831 0
M  V30 14 C -0.089382 0.532895 0.223338 0
M  V30 15 C -1.303047 1.135777 0.571924 0
M  V30 16 C -2.568269 0.374567 0.496111 0
M  V30 17 C -2.540774 -0.920132 1.017879 0
M  V30 18 C -3.679639 -1.685517 0.981277 0
M  V30 19 C -4.826130 -1.187634 0.441329 0
M  V30 20 C -4.885029 0.105838 -0.089198 0
M  V30 21 C -3.726638 0.889551 -0.054091 0
M  V30 22 C -6.122065 0.711381 -0.696512 0
M  V30 23 C -6.937979 -0.404326 -1.272254 0
M  V30 24 N -7.230731 -1.357474 -0.214528 0
M  V30 25 C -6.077449 -1.964853 0.373366 0
M  V30 26 O -6.051855 -3.133948 0.845213 0
M  V30 27 C -0.961773 2.429681 0.936879 0
M  V30 28 N -1.979154 3.329830 1.353921 0
M  V30 29 N 0.361163 2.562018 0.806771 0
M  V30 30 C 2.796140 -0.125696 0.394724 0
M  V30 31 C 3.893977 -2.498678 1.600227 0
M  V30 32 H 1.824386 -3.639357 3.087296 0
M  V30 33 H 2.415045 -4.533564 4.542162 0
M  V30 34 H 3.057112 -2.860183 4.227126 0
M  V30 35 H 5.544403 -5.501456 1.492706 0
M  V30 36 H 6.620979 -4.403380 -0.399514 0
M  V30 37 H 5.980370 -2.071786 -1.053877 0
M  V30 38 H 5.986018 0.143816 -0.566916 0
M  V30 39 H 5.142317 2.443622 -1.116746 0
M  V30 40 H 2.783838 3.061063 -0.681705 0
M  V30 41 H 0.051381 -0.497290 -0.120615 0
M  V30 42 H -1.648449 -1.332587 1.448167 0
M  V30 43 H -3.692721 -2.694933 1.377385 0
M  V30 44 H -3.680352 1.880167 -0.432901 0
M  V30 45 H -5.804250 1.466050 -1.414899 0
M  V30 46 H -6.709084 1.143535 0.158872 0
M  V30 47 H -6.397698 -0.887211 -2.116245 0
M  V30 48 H -7.900728 0.019064 -1.627587 0
M  V30 49 H -8.155454 -1.674686 0.190228 0
M  V30 50 H -2.548188 3.806068 0.642098 0
M  V30 51 H -2.294162 3.632774 2.307922 0
M  V30 52 H 2.107058 -0.838765 0.824769 0
M  V30 53 H 3.129468 -2.003716 2.183862 0
M  V30 END ATOM
M  V30 BEGIN BOND
M  V30 1 1 1 2
M  V30 2 1 2 3
M  V30 3 2 3 4
M  V30 4 1 4 5
M  V30 5 2 5 6
M  V30 6 1 6 7
M  V30 7 1 7 8
M  V30 8 2 8 9
M  V30 9 1 9 10
M  V30 10 2 10 11
M  V30 11 1 11 12
M  V30 12 1 12 13
M  V30 13 1 13 14
M  V30 14 2 14 15
M  V30 15 1 15 16
M  V30 16 2 16 17
M  V30 17 1 17 18
M  V30 18 2 18 19
M  V30 19 1 19 20
M  V30 20 2 20 21
M  V30 21 1 20 22
M  V30 22 1 22 23
M  V30 23 1 23 24
M  V30 24 1 24 25
M  V30 25 2 25 26
M  V30 26 1 15 27
M  V30 27 1 27 28
M  V30 28 2 27 29
M  V30 29 2 12 30
M  V30 30 2 7 31
M  V30 31 1 31 3
M  V30 32 1 30 8
M  V30 33 1 29 13
M  V30 34 1 21 16
M  V30 35 1 25 19
M  V30 36 1 1 32
M  V30 37 1 1 33
M  V30 38 1 1 34
M  V30 39 1 4 35
M  V30 40 1 5 36
M  V30 41 1 6 37
M  V30 42 1 9 38
M  V30 43 1 10 39
M  V30 44 1 11 40
M  V30 45 1 14 41
M  V30 46 1 17 42
M  V30 47 1 18 43
M  V30 48 1 21 44
M  V30 49 1 22 45
M  V30 50 1 22 46
M  V30 51 1 23 47
M  V30 52 1 23 48
M  V30 53 1 24 49
M  V30 54 1 28 50
M  V30 55 1 28 51
M  V30 56 1 30 52
M  V30 57 1 31 53
M  V30 END BOND
M  V30 END CTAB
M  END
>  <Dataset>  (850) 
ChEMBL_Kinases

>  <Ligand_Instance>  (850) 
nan

>  <PDB_ID>  (850) 
nan

>  <Standardized_SMILES>  (850) 
COc1cccc(-c2cccc(-n3cc(-c4ccc5c(c4)CCNC5=O)c(N)n3)c2)c1

>  <Name>  (850) 
nan

>  <Pocket>  (850) 
nan

>  <ATP_Site>  (850) 
nan

>  <Peripheral>  (850) 
nan

>  <Num_H_Atoms_ProtBoundConf>  (850) 
nan

>  <Num_Resolved_Atoms>  (850) 
nan

>  <Num_Not_Resolved_Atoms>  (850) 
nan

$$$$
CHEMBL489833
     RDKit          3D

  0  0  0  0  0  0  0  0  0  0999 V3000
M  V30 BEGIN CTAB
M  V30 COUNTS 44 48 0 0 0
M  V30 BEGIN ATOM
M  V30 1 C -3.464530 -0.778688 0.358755 0
M  V30 2 N -2.325676 -1.686005 0.292666 0
M  V30 3 C -1.098458 -1.386612 0.803602 0
M  V30 4 C -0.208694 -2.438792 0.594421 0
M  V30 5 C 1.177331 -2.381155 1.034562 0
M  V30 6 C 1.882990 -1.241962 0.897176 0
M  V30 7 C 1.497279 0.068144 0.340370 0
M  V30 8 C 0.836242 0.423734 -0.847479 0
M  V30 9 O 0.692728 1.724549 -0.889256 0
M  V30 10 C 1.200767 2.295951 0.174120 0
M  V30 11 C 1.261815 3.647341 0.533556 0
M  V30 12 C 1.848160 4.028746 1.719591 0
M  V30 13 C 1.975476 5.420066 2.220561 0
M  V30 14 O 3.166252 5.979194 1.777319 0
M  V30 15 C 2.364797 3.016218 2.521872 0
M  V30 16 C 2.304204 1.688610 2.165440 0
M  V30 17 C 1.721813 1.292421 0.982025 0
M  V30 18 C 3.228502 -1.459428 1.409509 0
M  V30 19 O 4.289043 -0.759000 1.528038 0
M  V30 20 N 3.355741 -2.794554 1.886838 0
M  V30 21 C 2.057628 -3.362166 1.645151 0
M  V30 22 O 1.715819 -4.553910 1.922454 0
M  V30 23 C -0.965566 -3.381379 -0.066102 0
M  V30 24 C -0.603822 -4.611309 -0.518217 0
M  V30 25 C -1.528805 -5.407070 -1.163329 0
M  V30 26 Br -1.117349 -7.149165 -1.831540 0
M  V30 27 C -2.810825 -4.926586 -1.333839 0
M  V30 28 C -3.208767 -3.683445 -0.887507 0
M  V30 29 C -2.270130 -2.905277 -0.246389 0
M  V30 30 H -3.226594 0.133907 0.916202 0
M  V30 31 H -3.702126 -0.474501 -0.700911 0
M  V30 32 H -4.366883 -1.266512 0.745709 0
M  V30 33 H -0.871943 -0.451295 1.301574 0
M  V30 34 H 0.562089 -0.374702 -1.509292 0
M  V30 35 H 0.862974 4.440570 -0.083242 0
M  V30 36 H 1.088432 6.010748 1.932429 0
M  V30 37 H 1.983586 5.396403 3.350731 0
M  V30 38 H 3.822303 6.098999 2.514681 0
M  V30 39 H 2.833706 3.280312 3.460066 0
M  V30 40 H 2.714564 0.974774 2.838230 0
M  V30 41 H 4.145634 -3.349586 2.327331 0
M  V30 42 H 0.395217 -4.986844 -0.392780 0
M  V30 43 H -3.597336 -5.504364 -1.838246 0
M  V30 44 H -4.219705 -3.277198 -1.009261 0
M  V30 END ATOM
M  V30 BEGIN BOND
M  V30 1 1 1 2
M  V30 2 1 2 3
M  V30 3 2 3 4
M  V30 4 1 4 5
M  V30 5 2 5 6
M  V30 6 1 6 7
M  V30 7 2 7 8
M  V30 8 1 8 9
M  V30 9 1 9 10
M  V30 10 2 10 11
M  V30 11 1 11 12
M  V30 12 1 12 13
M  V30 13 1 13 14
M  V30 14 2 12 15
M  V30 15 1 15 16
M  V30 16 2 16 17
M  V30 17 1 6 18
M  V30 18 2 18 19
M  V30 19 1 18 20
M  V30 20 1 20 21
M  V30 21 2 21 22
M  V30 22 1 4 23
M  V30 23 2 23 24
M  V30 24 1 24 25
M  V30 25 1 25 26
M  V30 26 2 25 27
M  V30 27 1 27 28
M  V30 28 2 28 29
M  V30 29 1 29 2
M  V30 30 1 21 5
M  V30 31 1 29 23
M  V30 32 1 17 7
M  V30 33 1 17 10
M  V30 34 1 1 30
M  V30 35 1 1 31
M  V30 36 1 1 32
M  V30 37 1 3 33
M  V30 38 1 8 34
M  V30 39 1 11 35
M  V30 40 1 13 36
M  V30 41 1 13 37
M  V30 42 1 14 38
M  V30 43 1 15 39
M  V30 44 1 16 40
M  V30 45 1 20 41
M  V30 46 1 24 42
M  V30 47 1 27 43
M  V30 48 1 28 44
M  V30 END BOND
M  V30 END CTAB
M  END
>  <Dataset>  (851) 
ChEMBL_Kinases

>  <Ligand_Instance>  (851) 
nan

>  <PDB_ID>  (851) 
nan

>  <Standardized_SMILES>  (851) 
Cn1cc(C2=C(c3coc4cc(CO)ccc34)C(=O)NC2=O)c2cc(Br)ccc21

>  <Name>  (851) 
nan

>  <Pocket>  (851) 
nan

>  <ATP_Site>  (851) 
nan

>  <Peripheral>  (851) 
nan

>  <Num_H_Atoms_ProtBoundConf>  (851) 
nan

>  <Num_Resolved_Atoms>  (851) 
nan

>  <Num_Not_Resolved_Atoms>  (851) 
nan

$$$$
CHEMBL388434
     RDKit          3D

  0  0  0  0  0  0  0  0  0  0999 V3000
M  V30 BEGIN CTAB
M  V30 COUNTS 33 37 0 0 0
M  V30 BEGIN ATOM
M  V30 1 O 3.420785 -3.400978 0.685422 0
M  V30 2 C 2.270283 -2.979955 0.955162 0
M  V30 3 N 1.407328 -3.746569 1.820234 0
M  V30 4 C 0.181978 -3.040310 1.949648 0
M  V30 5 O -0.694287 -3.553456 2.665623 0
M  V30 6 C 0.252436 -1.829154 1.175763 0
M  V30 7 C 1.492141 -1.811264 0.596380 0
M  V30 8 C 1.821808 -0.760861 -0.197933 0
M  V30 9 C 3.023411 -0.635682 -0.825530 0
M  V30 10 O 4.027265 -1.569118 -0.714279 0
M  V30 11 C 3.397581 0.412919 -1.639135 0
M  V30 12 C 2.502010 1.436204 -1.855045 0
M  V30 13 C 1.268277 1.367338 -1.247196 0
M  V30 14 C 0.956226 0.282559 -0.439924 0
M  V30 15 C -0.307333 0.273746 0.144838 0
M  V30 16 N -1.315582 1.164758 0.061572 0
M  V30 17 C -2.271561 0.619008 0.834060 0
M  V30 18 C -3.528961 1.192291 1.059566 0
M  V30 19 C -4.436952 0.552316 1.867738 0
M  V30 20 C -4.071487 -0.668619 2.447741 0
M  V30 21 C -2.817526 -1.163497 2.175805 0
M  V30 22 C -1.874329 -0.578689 1.385269 0
M  V30 23 C -0.603310 -0.808072 0.942939 0
M  V30 24 H 1.687582 -4.674596 2.259951 0
M  V30 25 H 4.475470 -1.989996 -1.536955 0
M  V30 26 H 4.343939 0.532923 -2.146526 0
M  V30 27 H 2.734985 2.282501 -2.480049 0
M  V30 28 H 0.566576 2.174389 -1.419598 0
M  V30 29 H -1.323805 2.052262 -0.478073 0
M  V30 30 H -3.833714 2.132099 0.623860 0
M  V30 31 H -5.406224 0.998040 2.039242 0
M  V30 32 H -4.791190 -1.169395 3.084353 0
M  V30 33 H -2.612840 -2.075216 2.640187 0
M  V30 END ATOM
M  V30 BEGIN BOND
M  V30 1 2 1 2
M  V30 2 1 2 3
M  V30 3 1 3 4
M  V30 4 2 4 5
M  V30 5 1 4 6
M  V30 6 2 6 7
M  V30 7 1 7 8
M  V30 8 2 8 9
M  V30 9 1 9 10
M  V30 10 1 9 11
M  V30 11 2 11 12
M  V30 12 1 12 13
M  V30 13 2 13 14
M  V30 14 1 14 15
M  V30 15 1 15 16
M  V30 16 1 16 17
M  V30 17 2 17 18
M  V30 18 1 18 19
M  V30 19 2 19 20
M  V30 20 1 20 21
M  V30 21 2 21 22
M  V30 22 1 22 23
M  V30 23 1 7 2
M  V30 24 1 14 8
M  V30 25 2 23 15
M  V30 26 1 23 6
M  V30 27 1 22 17
M  V30 28 1 3 24
M  V30 29 1 10 25
M  V30 30 1 11 26
M  V30 31 1 12 27
M  V30 32 1 13 28
M  V30 33 1 16 29
M  V30 34 1 18 30
M  V30 35 1 19 31
M  V30 36 1 20 32
M  V30 37 1 21 33
M  V30 END BOND
M  V30 END CTAB
M  END
>  <Dataset>  (852) 
ChEMBL_Kinases

>  <Ligand_Instance>  (852) 
nan

>  <PDB_ID>  (852) 
nan

>  <Standardized_SMILES>  (852) 
O=C1NC(=O)c2c1c1c(O)cccc1c1[nH]c3ccccc3c21

>  <Name>  (852) 
nan

>  <Pocket>  (852) 
nan

>  <ATP_Site>  (852) 
nan

>  <Peripheral>  (852) 
nan

>  <Num_H_Atoms_ProtBoundConf>  (852) 
nan

>  <Num_Resolved_Atoms>  (852) 
nan

>  <Num_Not_Resolved_Atoms>  (852) 
nan

$$$$
CHEMBL4877505
     RDKit          3D

  0  0  0  0  0  0  0  0  0  0999 V3000
M  V30 BEGIN CTAB
M  V30 COUNTS 51 53 0 0 0
M  V30 BEGIN ATOM
M  V30 1 C 1.158850 -3.689694 6.851966 0
M  V30 2 C 2.083356 -3.976103 5.717595 0
M  V30 3 C 3.433814 -3.277184 5.865517 0
M  V30 4 N 3.288446 -1.835677 5.926383 0
M  V30 5 C 2.655372 -1.372448 4.738848 0
M  V30 6 C 3.444323 -1.100829 3.645880 0
M  V30 7 C 2.917252 -0.646513 2.454880 0
M  V30 8 O 3.711458 -0.365097 1.326737 0
M  V30 9 C 3.004979 0.083477 0.203357 0
M  V30 10 C 2.780278 1.414194 -0.041157 0
M  V30 11 C 2.080788 1.820220 -1.155881 0
M  V30 12 C 1.608795 0.861190 -2.025042 0
M  V30 13 N 0.852938 1.020937 -3.245929 0
M  V30 14 C -0.561236 1.009893 -3.019031 0
M  V30 15 O -0.921769 0.871271 -1.823533 0
M  V30 16 N -1.604957 1.136951 -3.984470 0
M  V30 17 C -2.972129 1.097888 -3.521541 0
M  V30 18 C -3.578157 2.272134 -3.180212 0
M  V30 19 C -4.898694 2.315368 -2.720550 0
M  V30 20 C -5.546036 1.089016 -2.635880 0
M  V30 21 C -4.945748 -0.084077 -2.975042 0
M  V30 22 C -5.759095 -1.328249 -2.833277 0
M  V30 23 F -6.656692 -1.504350 -3.847831 0
M  V30 24 F -4.839024 -2.385077 -2.869133 0
M  V30 25 F -6.339599 -1.393345 -1.568494 0
M  V30 26 C -3.653605 -0.097122 -3.421688 0
M  V30 27 C 1.826662 -0.501751 -1.795235 0
M  V30 28 C 2.536325 -0.900952 -0.662969 0
M  V30 29 N 1.584976 -0.474635 2.396576 0
M  V30 30 C 0.776836 -0.734645 3.461506 0
M  V30 31 N 1.307568 -1.181150 4.626542 0
M  V30 32 H 1.430536 -2.849582 7.488974 0
M  V30 33 H 1.087840 -4.592424 7.527912 0
M  V30 34 H 0.118966 -3.532136 6.450380 0
M  V30 35 H 1.649251 -3.711234 4.716192 0
M  V30 36 H 2.264170 -5.066721 5.665365 0
M  V30 37 H 4.073069 -3.511333 4.989396 0
M  V30 38 H 3.983862 -3.649702 6.745458 0
M  V30 39 H 3.608408 -1.247441 6.731683 0
M  V30 40 H 4.511433 -1.249514 3.727151 0
M  V30 41 H 3.135464 2.167793 0.614967 0
M  V30 42 H 1.841401 2.811782 -1.457344 0
M  V30 43 H 1.112115 1.144607 -4.270800 0
M  V30 44 H -1.258210 1.250490 -4.975814 0
M  V30 45 H -2.995744 3.195489 -3.276463 0
M  V30 46 H -5.268999 3.300367 -2.481694 0
M  V30 47 H -6.569882 1.193897 -2.271384 0
M  V30 48 H -3.180840 -1.045793 -3.691326 0
M  V30 49 H 1.501724 -1.329163 -2.408209 0
M  V30 50 H 2.730090 -1.941336 -0.443152 0
M  V30 51 H -0.303228 -0.608395 3.454476 0
M  V30 END ATOM
M  V30 BEGIN BOND
M  V30 1 1 1 2
M  V30 2 1 2 3
M  V30 3 1 3 4
M  V30 4 1 4 5
M  V30 5 2 5 6
M  V30 6 1 6 7
M  V30 7 1 7 8
M  V30 8 1 8 9
M  V30 9 2 9 10
M  V30 10 1 10 11
M  V30 11 2 11 12
M  V30 12 1 12 13
M  V30 13 1 13 14
M  V30 14 2 14 15
M  V30 15 1 14 16
M  V30 16 1 16 17
M  V30 17 2 17 18
M  V30 18 1 18 19
M  V30 19 2 19 20
M  V30 20 1 20 21
M  V30 21 1 21 22
M  V30 22 1 22 23
M  V30 23 1 22 24
M  V30 24 1 22 25
M  V30 25 2 21 26
M  V30 26 1 12 27
M  V30 27 2 27 28
M  V30 28 2 7 29
M  V30 29 1 29 30
M  V30 30 2 30 31
M  V30 31 1 31 5
M  V30 32 1 28 9
M  V30 33 1 26 17
M  V30 34 1 1 32
M  V30 35 1 1 33
M  V30 36 1 1 34
M  V30 37 1 2 35
M  V30 38 1 2 36
M  V30 39 1 3 37
M  V30 40 1 3 38
M  V30 41 1 4 39
M  V30 42 1 6 40
M  V30 43 1 10 41
M  V30 44 1 11 42
M  V30 45 1 13 43
M  V30 46 1 16 44
M  V30 47 1 18 45
M  V30 48 1 19 46
M  V30 49 1 20 47
M  V30 50 1 26 48
M  V30 51 1 27 49
M  V30 52 1 28 50
M  V30 53 1 30 51
M  V30 END BOND
M  V30 END CTAB
M  END
>  <Dataset>  (853) 
ChEMBL_Kinases

>  <Ligand_Instance>  (853) 
nan

>  <PDB_ID>  (853) 
nan

>  <Standardized_SMILES>  (853) 
CCCNc1cc(Oc2ccc(NC(=O)Nc3cccc(C(F)(F)F)c3)cc2)ncn1

>  <Name>  (853) 
nan

>  <Pocket>  (853) 
nan

>  <ATP_Site>  (853) 
nan

>  <Peripheral>  (853) 
nan

>  <Num_H_Atoms_ProtBoundConf>  (853) 
nan

>  <Num_Resolved_Atoms>  (853) 
nan

>  <Num_Not_Resolved_Atoms>  (853) 
nan

$$$$
CHEMBL488697
     RDKit          3D

  0  0  0  0  0  0  0  0  0  0999 V3000
M  V30 BEGIN CTAB
M  V30 COUNTS 52 54 0 0 0
M  V30 BEGIN ATOM
M  V30 1 C 6.125213 -0.908977 0.824678 0
M  V30 2 C 5.221027 -1.515280 -0.183063 0
M  V30 3 C 5.787095 -2.388504 -1.106965 0
M  V30 4 C 5.016288 -2.993963 -2.075955 0
M  V30 5 C 3.665822 -2.725400 -2.123882 0
M  V30 6 C 3.173034 -1.852181 -1.179304 0
M  V30 7 C 3.881054 -1.207663 -0.179583 0
M  V30 8 C 3.260938 -0.300885 0.770253 0
M  V30 9 O 3.955211 0.240563 1.637794 0
M  V30 10 O 1.942343 -0.081360 0.670385 0
M  V30 11 C 1.014392 0.652898 1.344292 0
M  V30 12 C 0.592659 0.319170 2.718628 0
M  V30 13 C 1.654428 0.145018 3.727012 0
M  V30 14 O 1.108334 -0.222974 4.990777 0
M  V30 15 C -0.364630 -0.890909 2.675349 0
M  V30 16 C -1.493963 -0.245278 1.956497 0
M  V30 17 C -2.418949 -0.601369 1.084029 0
M  V30 18 C -3.520672 0.122145 0.412820 0
M  V30 19 C -3.451901 -0.026790 -1.095545 0
M  V30 20 C -4.842415 0.255788 -1.633430 0
M  V30 21 C -5.582652 -1.074918 -1.528241 0
M  V30 22 C -5.165620 -1.678504 -0.181947 0
M  V30 23 C -4.833733 -0.579456 0.806699 0
M  V30 24 C -1.483738 1.142921 2.407083 0
M  V30 25 O -2.275584 2.093301 2.183143 0
M  V30 26 O -0.361150 1.303926 3.206991 0
M  V30 27 H 7.159684 -1.310454 0.744343 0
M  V30 28 H 6.115798 0.195633 0.773862 0
M  V30 29 H 5.775489 -1.194708 1.838152 0
M  V30 30 H 6.861216 -2.603049 -1.069946 0
M  V30 31 H 5.445374 -3.663335 -2.785576 0
M  V30 32 H 3.051352 -3.179610 -2.861034 0
M  V30 33 H 2.099121 -1.670091 -1.256361 0
M  V30 34 H 1.250321 1.776842 1.274970 0
M  V30 35 H 0.064565 0.611728 0.712078 0
M  V30 36 H 2.212035 1.071718 3.878640 0
M  V30 37 H 2.393651 -0.658660 3.462262 0
M  V30 38 H 1.636912 0.132630 5.735786 0
M  V30 39 H 0.076488 -1.726945 2.129568 0
M  V30 40 H -0.643322 -1.205887 3.688168 0
M  V30 41 H -2.344140 -1.666549 0.803914 0
M  V30 42 H -3.668291 1.155725 0.689763 0
M  V30 43 H -3.121879 -1.028337 -1.373994 0
M  V30 44 H -2.762096 0.704096 -1.554942 0
M  V30 45 H -5.367032 0.991798 -0.990457 0
M  V30 46 H -4.800155 0.620905 -2.694584 0
M  V30 47 H -6.679368 -0.950427 -1.482427 0
M  V30 48 H -5.259848 -1.695266 -2.378581 0
M  V30 49 H -4.321949 -2.394989 -0.304169 0
M  V30 50 H -6.006373 -2.247790 0.257547 0
M  V30 51 H -4.727130 -1.062795 1.791583 0
M  V30 52 H -5.678914 0.119956 0.826609 0
M  V30 END ATOM
M  V30 BEGIN BOND
M  V30 1 1 1 2
M  V30 2 2 2 3
M  V30 3 1 3 4
M  V30 4 2 4 5
M  V30 5 1 5 6
M  V30 6 2 6 7
M  V30 7 1 7 8
M  V30 8 2 8 9
M  V30 9 1 8 10
M  V30 10 1 10 11
M  V30 11 1 11 12
M  V30 12 1 12 13
M  V30 13 1 13 14
M  V30 14 1 12 15
M  V30 15 1 15 16
M  V30 16 2 16 17
M  V30 17 1 17 18
M  V30 18 1 18 19
M  V30 19 1 19 20
M  V30 20 1 20 21
M  V30 21 1 21 22
M  V30 22 1 22 23
M  V30 23 1 16 24
M  V30 24 2 24 25
M  V30 25 1 24 26
M  V30 26 1 7 2
M  V30 27 1 26 12
M  V30 28 1 23 18
M  V30 29 1 1 27
M  V30 30 1 1 28
M  V30 31 1 1 29
M  V30 32 1 3 30
M  V30 33 1 4 31
M  V30 34 1 5 32
M  V30 35 1 6 33
M  V30 36 1 11 34
M  V30 37 1 11 35
M  V30 38 1 13 36
M  V30 39 1 13 37
M  V30 40 1 14 38
M  V30 41 1 15 39
M  V30 42 1 15 40
M  V30 43 1 17 41
M  V30 44 1 18 42
M  V30 45 1 19 43
M  V30 46 1 19 44
M  V30 47 1 20 45
M  V30 48 1 20 46
M  V30 49 1 21 47
M  V30 50 1 21 48
M  V30 51 1 22 49
M  V30 52 1 22 50
M  V30 53 1 23 51
M  V30 54 1 23 52
M  V30 END BOND
M  V30 END CTAB
M  END
>  <Dataset>  (854) 
ChEMBL_Kinases

>  <Ligand_Instance>  (854) 
nan

>  <PDB_ID>  (854) 
nan

>  <Standardized_SMILES>  (854) 
Cc1ccccc1C(=O)OCC1(CO)C/C(=C/C2CCCCC2)C(=O)O1

>  <Name>  (854) 
nan

>  <Pocket>  (854) 
nan

>  <ATP_Site>  (854) 
nan

>  <Peripheral>  (854) 
nan

>  <Num_H_Atoms_ProtBoundConf>  (854) 
nan

>  <Num_Resolved_Atoms>  (854) 
nan

>  <Num_Not_Resolved_Atoms>  (854) 
nan

$$$$
CHEMBL488646
     RDKit          3D

  0  0  0  0  0  0  0  0  0  0999 V3000
M  V30 BEGIN CTAB
M  V30 COUNTS 63 66 0 0 0
M  V30 BEGIN ATOM
M  V30 1 C 0.663502 0.818406 3.670730 0
M  V30 2 O -0.048629 -0.292357 4.126340 0
M  V30 3 C -0.030100 -1.530889 3.526671 0
M  V30 4 C 0.724592 -1.738393 2.395874 0
M  V30 5 C 0.799396 -2.944974 1.733030 0
M  V30 6 C 1.538824 -3.240615 0.515870 0
M  V30 7 C 1.716914 -2.680621 -0.695427 0
M  V30 8 C 1.170500 -1.456394 -1.261677 0
M  V30 9 C 1.183228 -0.141821 -0.858914 0
M  V30 10 N 0.509083 0.688748 -1.669447 0
M  V30 11 C 0.342677 2.124991 -1.511938 0
M  V30 12 O -0.794955 2.335966 -0.773421 0
M  V30 13 C -1.108506 3.650070 -0.535094 0
M  V30 14 C -0.026022 4.370518 0.223308 0
M  V30 15 C -2.366624 3.679434 0.321484 0
M  V30 16 C -1.404475 4.421700 -1.804921 0
M  V30 17 C 0.014510 -0.069798 -2.661735 0
M  V30 18 C -0.755633 0.336489 -3.730272 0
M  V30 19 C -1.183744 -0.614892 -4.657996 0
M  V30 20 C -0.817572 -1.929169 -4.466634 0
M  V30 21 C -0.049036 -2.258535 -3.378330 0
M  V30 22 C 0.406871 -1.381459 -2.430415 0
M  V30 23 C 2.675478 -3.448612 -1.516769 0
M  V30 24 N 2.993218 -4.615851 -0.723540 0
M  V30 25 C 2.344834 -4.480646 0.523884 0
M  V30 26 O 2.552828 -5.384298 1.374113 0
M  V30 27 C 0.041473 -3.940432 2.309559 0
M  V30 28 C -0.731099 -3.814771 3.427199 0
M  V30 29 O -1.510039 -4.764235 4.052289 0
M  V30 30 C -1.657711 -6.098968 3.634712 0
M  V30 31 C -0.762815 -2.585726 4.041669 0
M  V30 32 O -1.502043 -2.300983 5.185142 0
M  V30 33 C -2.838519 -1.830625 5.142601 0
M  V30 34 H 0.169551 1.248279 2.782123 0
M  V30 35 H 0.635278 1.593895 4.475588 0
M  V30 36 H 1.690971 0.537435 3.384945 0
M  V30 37 H 1.298432 -0.920633 2.001945 0
M  V30 38 H 1.683468 0.227678 0.016002 0
M  V30 39 H 1.279674 2.517420 -1.040400 0
M  V30 40 H 0.256372 2.534456 -2.548686 0
M  V30 41 H -0.476418 5.025928 1.004975 0
M  V30 42 H 0.620516 3.657657 0.753012 0
M  V30 43 H 0.553715 4.989298 -0.472114 0
M  V30 44 H -3.227798 3.371422 -0.307666 0
M  V30 45 H -2.517411 4.679246 0.780384 0
M  V30 46 H -2.208972 2.925320 1.130402 0
M  V30 47 H -0.463387 4.867935 -2.173497 0
M  V30 48 H -2.067231 5.277168 -1.490680 0
M  V30 49 H -1.952168 3.848413 -2.553180 0
M  V30 50 H -1.036210 1.357308 -3.870365 0
M  V30 51 H -1.783864 -0.256410 -5.479562 0
M  V30 52 H -1.155957 -2.647542 -5.188812 0
M  V30 53 H 0.174990 -3.297681 -3.303103 0
M  V30 54 H 3.616326 -2.828614 -1.572988 0
M  V30 55 H 2.297118 -3.688480 -2.506560 0
M  V30 56 H 3.614584 -5.302436 -1.206491 0
M  V30 57 H 0.027077 -4.947472 1.861283 0
M  V30 58 H -2.166807 -6.716124 4.413043 0
M  V30 59 H -0.703947 -6.580595 3.378168 0
M  V30 60 H -2.315830 -6.104202 2.722646 0
M  V30 61 H -3.436719 -2.430790 5.886508 0
M  V30 62 H -3.278447 -1.969526 4.133153 0
M  V30 63 H -2.872775 -0.782177 5.482275 0
M  V30 END ATOM
M  V30 BEGIN BOND
M  V30 1 1 1 2
M  V30 2 1 2 3
M  V30 3 2 3 4
M  V30 4 1 4 5
M  V30 5 1 5 6
M  V30 6 2 6 7
M  V30 7 1 7 8
M  V30 8 2 8 9
M  V30 9 1 9 10
M  V30 10 1 10 11
M  V30 11 1 11 12
M  V30 12 1 12 13
M  V30 13 1 13 14
M  V30 14 1 13 15
M  V30 15 1 13 16
M  V30 16 1 10 17
M  V30 17 2 17 18
M  V30 18 1 18 19
M  V30 19 2 19 20
M  V30 20 1 20 21
M  V30 21 2 21 22
M  V30 22 1 7 23
M  V30 23 1 23 24
M  V30 24 1 24 25
M  V30 25 2 25 26
M  V30 26 2 5 27
M  V30 27 1 27 28
M  V30 28 1 28 29
M  V30 29 1 29 30
M  V30 30 2 28 31
M  V30 31 1 31 32
M  V30 32 1 32 33
M  V30 33 1 31 3
M  V30 34 1 25 6
M  V30 35 1 22 8
M  V30 36 1 22 17
M  V30 37 1 1 34
M  V30 38 1 1 35
M  V30 39 1 1 36
M  V30 40 1 4 37
M  V30 41 1 9 38
M  V30 42 1 11 39
M  V30 43 1 11 40
M  V30 44 1 14 41
M  V30 45 1 14 42
M  V30 46 1 14 43
M  V30 47 1 15 44
M  V30 48 1 15 45
M  V30 49 1 15 46
M  V30 50 1 16 47
M  V30 51 1 16 48
M  V30 52 1 16 49
M  V30 53 1 18 50
M  V30 54 1 19 51
M  V30 55 1 20 52
M  V30 56 1 21 53
M  V30 57 1 23 54
M  V30 58 1 23 55
M  V30 59 1 24 56
M  V30 60 1 27 57
M  V30 61 1 30 58
M  V30 62 1 30 59
M  V30 63 1 30 60
M  V30 64 1 33 61
M  V30 65 1 33 62
M  V30 66 1 33 63
M  V30 END BOND
M  V30 END CTAB
M  END
>  <Dataset>  (855) 
ChEMBL_Kinases

>  <Ligand_Instance>  (855) 
nan

>  <PDB_ID>  (855) 
nan

>  <Standardized_SMILES>  (855) 
COc1cc(C2=C(c3cn(COC(C)(C)C)c4ccccc34)CNC2=O)cc(OC)c1OC

>  <Name>  (855) 
nan

>  <Pocket>  (855) 
nan

>  <ATP_Site>  (855) 
nan

>  <Peripheral>  (855) 
nan

>  <Num_H_Atoms_ProtBoundConf>  (855) 
nan

>  <Num_Resolved_Atoms>  (855) 
nan

>  <Num_Not_Resolved_Atoms>  (855) 
nan

$$$$
CHEMBL4877547
     RDKit          3D

  0  0  0  0  0  0  0  0  0  0999 V3000
M  V30 BEGIN CTAB
M  V30 COUNTS 68 73 0 0 0
M  V30 BEGIN ATOM
M  V30 1 C 4.998246 0.576636 3.370758 0
M  V30 2 C 3.580208 0.560066 2.941620 0
M  V30 3 C 3.157884 0.014709 1.743435 0
M  V30 4 C 1.837834 -0.008824 1.324242 0
M  V30 5 C 1.486844 -0.610285 0.041692 0
M  V30 6 C 2.243148 -0.406161 -1.098659 0
M  V30 7 N 1.671067 -1.102645 -2.123207 0
M  V30 8 N 0.610691 -1.700871 -1.612013 0
M  V30 9 C -0.310508 -2.517404 -2.199417 0
M  V30 10 C -0.213968 -2.860196 -3.616785 0
M  V30 11 C -0.964114 -1.917202 -4.528719 0
M  V30 12 C -2.446609 -1.904926 -4.200438 0 CFG=1
M  V30 13 C -3.281424 -0.996555 -5.070013 0
M  V30 14 C -4.255552 -2.146853 -5.251428 0 CFG=1
M  V30 15 C -5.464424 -2.074202 -4.337393 0
M  V30 16 O -4.541386 -2.381809 -6.591462 0
M  V30 17 C -3.190087 -3.088642 -4.766538 0
M  V30 18 C -1.359584 -3.043687 -1.466328 0
M  V30 19 C -1.499550 -2.749705 -0.103062 0
M  V30 20 O -2.589853 -3.337398 0.514670 0
M  V30 21 C -2.946432 -3.230233 1.829488 0
M  V30 22 C -3.717166 -2.361463 2.573236 0
M  V30 23 C -3.877238 -2.545758 3.924495 0
M  V30 24 C -3.252948 -3.625446 4.556832 0
M  V30 25 N -2.485281 -4.501219 3.847800 0
M  V30 26 C -2.336551 -4.301785 2.501469 0
M  V30 27 N -0.564056 -1.938637 0.432582 0
M  V30 28 C 0.446085 -1.439716 -0.301057 0
M  V30 29 C 0.861580 0.538270 2.132359 0
M  V30 30 C 1.261973 1.087966 3.332760 0
M  V30 31 C 2.584866 1.100628 3.730160 0
M  V30 32 C 2.923162 1.721583 5.033302 0
M  V30 33 O 2.792798 1.421590 6.248546 0
M  V30 34 N 3.566451 2.998199 4.816284 0
M  V30 35 C 4.027760 3.874114 5.876674 0
M  V30 36 C 5.180560 4.767916 5.628915 0
M  V30 37 C 3.799227 5.353703 5.629895 0
M  V30 38 H 5.344096 1.580796 3.692697 0
M  V30 39 H 5.213159 -0.203646 4.148043 0
M  V30 40 H 5.601113 0.333965 2.472297 0
M  V30 41 H 3.920590 -0.426933 1.082011 0
M  V30 42 H 3.132607 0.198229 -1.172047 0
M  V30 43 H 0.870445 -2.760815 -3.915944 0
M  V30 44 H -0.501810 -3.914032 -3.795519 0
M  V30 45 H -0.774493 -2.209111 -5.561010 0
M  V30 46 H -0.589308 -0.886766 -4.390168 0
M  V30 47 H -2.650306 -1.663012 -3.140033 0
M  V30 48 H -3.806649 -0.173655 -4.560087 0
M  V30 49 H -2.753165 -0.715338 -5.991710 0
M  V30 50 H -6.402589 -2.340469 -4.863282 0
M  V30 51 H -5.485947 -1.045893 -3.911700 0
M  V30 52 H -5.265700 -2.769075 -3.489555 0
M  V30 53 H -4.814611 -1.532632 -7.041644 0
M  V30 54 H -2.613597 -3.601863 -5.559375 0
M  V30 55 H -3.608932 -3.794618 -4.015218 0
M  V30 56 H -2.080621 -3.694976 -1.974027 0
M  V30 57 H -4.115174 -1.594528 1.911937 0
M  V30 58 H -4.493676 -1.811545 4.397175 0
M  V30 59 H -3.410575 -3.729072 5.632060 0
M  V30 60 H -1.688872 -5.108011 2.123851 0
M  V30 61 H -0.167742 0.523518 1.815340 0
M  V30 62 H 0.474335 1.508018 3.943448 0
M  V30 63 H 3.758332 3.403034 3.847019 0
M  V30 64 H 3.878130 3.573332 6.931826 0
M  V30 65 H 5.829659 5.148303 6.441259 0
M  V30 66 H 5.694290 4.593946 4.641181 0
M  V30 67 H 3.466080 5.696297 4.619411 0
M  V30 68 H 3.490055 6.011934 6.451836 0
M  V30 END ATOM
M  V30 BEGIN BOND
M  V30 1 1 1 2
M  V30 2 2 2 3
M  V30 3 1 3 4
M  V30 4 1 4 5
M  V30 5 1 5 6
M  V30 6 2 6 7
M  V30 7 1 7 8
M  V30 8 1 8 9
M  V30 9 1 9 10
M  V30 10 1 10 11
M  V30 11 1 11 12
M  V30 12 1 12 13
M  V30 13 1 13 14
M  V30 14 1 14 15
M  V30 15 1 14 16 CFG=3
M  V30 16 1 14 17
M  V30 17 2 9 18
M  V30 18 1 18 19
M  V30 19 1 19 20
M  V30 20 1 20 21
M  V30 21 2 21 22
M  V30 22 1 22 23
M  V30 23 2 23 24
M  V30 24 1 24 25
M  V30 25 2 25 26
M  V30 26 2 19 27
M  V30 27 1 27 28
M  V30 28 2 4 29
M  V30 29 1 29 30
M  V30 30 2 30 31
M  V30 31 1 31 32
M  V30 32 2 32 33
M  V30 33 1 32 34
M  V30 34 1 34 35
M  V30 35 1 35 36
M  V30 36 1 36 37
M  V30 37 1 31 2
M  V30 38 1 37 35
M  V30 39 2 28 5
M  V30 40 1 28 8
M  V30 41 1 17 12
M  V30 42 1 26 21
M  V30 43 1 1 38
M  V30 44 1 1 39
M  V30 45 1 1 40
M  V30 46 1 3 41
M  V30 47 1 6 42
M  V30 48 1 10 43
M  V30 49 1 10 44
M  V30 50 1 11 45
M  V30 51 1 11 46
M  V30 52 1 12 47 CFG=1
M  V30 53 1 13 48
M  V30 54 1 13 49
M  V30 55 1 15 50
M  V30 56 1 15 51
M  V30 57 1 15 52
M  V30 58 1 16 53
M  V30 59 1 17 54
M  V30 60 1 17 55
M  V30 61 1 18 56
M  V30 62 1 22 57
M  V30 63 1 23 58
M  V30 64 1 24 59
M  V30 65 1 26 60
M  V30 66 1 29 61
M  V30 67 1 30 62
M  V30 68 1 34 63
M  V30 69 1 35 64
M  V30 70 1 36 65
M  V30 71 1 36 66
M  V30 72 1 37 67
M  V30 73 1 37 68
M  V30 END BOND
M  V30 END CTAB
M  END
>  <Dataset>  (856) 
ChEMBL_Kinases

>  <Ligand_Instance>  (856) 
nan

>  <PDB_ID>  (856) 
nan

>  <Standardized_SMILES>  (856) 
Cc1cc(-c2cnn3c(CC[C@H]4C[C@@](C)(O)C4)cc(Oc4cccnc4)nc23)ccc1C(=O)NC1CC1

>  <Name>  (856) 
nan

>  <Pocket>  (856) 
nan

>  <ATP_Site>  (856) 
nan

>  <Peripheral>  (856) 
nan

>  <Num_H_Atoms_ProtBoundConf>  (856) 
nan

>  <Num_Resolved_Atoms>  (856) 
nan

>  <Num_Not_Resolved_Atoms>  (856) 
nan

$$$$
CHEMBL3884776
     RDKit          3D

  0  0  0  0  0  0  0  0  0  0999 V3000
M  V30 BEGIN CTAB
M  V30 COUNTS 49 52 0 0 0
M  V30 BEGIN ATOM
M  V30 1 O 0.541974 -2.031019 3.380825 0
M  V30 2 S 0.538407 -2.038454 1.872118 0
M  V30 3 O 1.921145 -2.575941 1.485175 0
M  V30 4 N 0.372545 -0.468249 1.290853 0
M  V30 5 C 0.461203 0.264796 0.089846 0
M  V30 6 C -0.096572 -0.123755 -1.103067 0
M  V30 7 C -0.022903 0.559772 -2.289387 0
M  V30 8 C 0.678457 1.742868 -2.268347 0
M  V30 9 F 0.754495 2.422631 -3.439884 0
M  V30 10 C 1.274898 2.219454 -1.124146 0
M  V30 11 F 1.934348 3.392389 -1.249744 0
M  V30 12 C 1.157466 1.477625 0.030131 0
M  V30 13 N 1.770805 1.970322 1.191244 0
M  V30 14 C 1.539862 2.741122 2.332826 0
M  V30 15 C 1.736903 2.081739 3.534354 0
M  V30 16 C 1.560349 2.664379 4.770770 0
M  V30 17 C 1.161479 3.990852 4.733411 0
M  V30 18 I 0.867994 4.959925 6.596017 0
M  V30 19 C 0.940628 4.729252 3.606027 0
M  V30 20 C 1.143687 4.058188 2.422552 0
M  V30 21 F 0.951997 4.696188 1.245844 0
M  V30 22 O -0.789526 -1.316186 -1.083402 0
M  V30 23 C -1.111442 -2.051552 -2.275615 0
M  V30 24 C -1.867949 -3.323436 -1.812011 0 CFG=2
M  V30 25 O -3.002252 -2.953800 -1.138945 0
M  V30 26 C -0.932394 -4.247261 -1.124679 0 CFG=2
M  V30 27 O -1.613411 -5.427757 -0.805082 0
M  V30 28 C -0.065710 -3.789914 -0.050238 0
M  V30 29 C -0.590953 -3.247774 1.213203 0
M  V30 30 C -1.891286 -3.483811 1.816587 0
M  V30 31 C -0.802643 -4.367617 2.298259 0
M  V30 32 H 0.107855 0.249613 2.006387 0
M  V30 33 H -0.492145 0.184668 -3.188309 0
M  V30 34 H 2.738753 1.588806 1.109999 0
M  V30 35 H 2.053184 1.029800 3.580560 0
M  V30 36 H 1.706521 2.175062 5.708219 0
M  V30 37 H 0.630854 5.759300 3.618498 0
M  V30 38 H -0.139481 -2.307336 -2.738820 0
M  V30 39 H -1.689479 -1.473378 -2.998934 0
M  V30 40 H -2.192438 -3.814326 -2.753913 0
M  V30 41 H -2.998390 -1.981325 -0.949607 0
M  V30 42 H -0.237112 -4.603799 -1.964074 0
M  V30 43 H -2.528918 -5.438726 -1.123498 0
M  V30 44 H 0.638452 -4.655385 0.169504 0
M  V30 45 H 0.662638 -3.028262 -0.468737 0
M  V30 46 H -2.684386 -4.015124 1.292985 0
M  V30 47 H -2.307238 -2.707685 2.512383 0
M  V30 48 H -0.489158 -4.188800 3.317033 0
M  V30 49 H -0.708214 -5.405529 1.970428 0
M  V30 END ATOM
M  V30 BEGIN BOND
M  V30 1 2 1 2
M  V30 2 2 2 3
M  V30 3 1 2 4
M  V30 4 1 4 5
M  V30 5 2 5 6
M  V30 6 1 6 7
M  V30 7 2 7 8
M  V30 8 1 8 9
M  V30 9 1 8 10
M  V30 10 1 10 11
M  V30 11 2 10 12
M  V30 12 1 12 13
M  V30 13 1 13 14
M  V30 14 2 14 15
M  V30 15 1 15 16
M  V30 16 2 16 17
M  V30 17 1 17 18
M  V30 18 1 17 19
M  V30 19 2 19 20
M  V30 20 1 20 21
M  V30 21 1 6 22
M  V30 22 1 22 23
M  V30 23 1 23 24
M  V30 24 1 24 25
M  V30 25 1 24 26
M  V30 26 1 26 27
M  V30 27 1 26 28
M  V30 28 1 28 29
M  V30 29 1 29 30
M  V30 30 1 30 31
M  V30 31 1 29 2
M  V30 32 1 12 5
M  V30 33 1 20 14
M  V30 34 1 31 29
M  V30 35 1 4 32
M  V30 36 1 7 33
M  V30 37 1 13 34
M  V30 38 1 15 35
M  V30 39 1 16 36
M  V30 40 1 19 37
M  V30 41 1 23 38
M  V30 42 1 23 39
M  V30 43 1 24 40 CFG=3
M  V30 44 1 25 41
M  V30 45 1 26 42 CFG=3
M  V30 46 1 27 43
M  V30 47 1 28 44
M  V30 48 1 28 45
M  V30 49 1 30 46
M  V30 50 1 30 47
M  V30 51 1 31 48
M  V30 52 1 31 49
M  V30 END BOND
M  V30 END CTAB
M  END
>  <Dataset>  (857) 
ChEMBL_Kinases

>  <Ligand_Instance>  (857) 
nan

>  <PDB_ID>  (857) 
nan

>  <Standardized_SMILES>  (857) 
O=S1(=O)Nc2c(cc(F)c(F)c2Nc2ccc(I)cc2F)OC[C@H](O)[C@H](O)CC12CC2

>  <Name>  (857) 
nan

>  <Pocket>  (857) 
nan

>  <ATP_Site>  (857) 
nan

>  <Peripheral>  (857) 
nan

>  <Num_H_Atoms_ProtBoundConf>  (857) 
nan

>  <Num_Resolved_Atoms>  (857) 
nan

>  <Num_Not_Resolved_Atoms>  (857) 
nan

$$$$
CHEMBL607421
     RDKit          3D

  0  0  0  0  0  0  0  0  0  0999 V3000
M  V30 BEGIN CTAB
M  V30 COUNTS 46 48 0 0 0
M  V30 BEGIN ATOM
M  V30 1 C -0.936434 -4.872208 3.493750 0
M  V30 2 C 0.393943 -4.170839 3.242345 0
M  V30 3 C 0.216982 -3.369723 1.971042 0
M  V30 4 C 1.461841 -2.615601 1.593133 0
M  V30 5 C 1.907776 -1.633403 2.611632 0
M  V30 6 C 0.929792 -0.526103 2.907470 0
M  V30 7 N 0.648181 0.296718 1.749724 0
M  V30 8 C 1.436824 1.387125 1.502032 0
M  V30 9 N 2.568911 1.862598 2.259782 0
M  V30 10 C 1.044863 2.071483 0.372449 0
M  V30 11 C 1.620390 3.272258 -0.222179 0
M  V30 12 O 2.523543 2.986411 -1.066819 0
M  V30 13 O 2.595305 2.950914 -1.133407 0
M  V30 14 C 3.355398 3.877452 -1.892028 0
M  V30 15 C -0.040303 1.382831 -0.115827 0
M  V30 16 N -0.874635 1.513125 -1.162726 0
M  V30 17 C -1.874309 0.635366 -1.361344 0
M  V30 18 C -2.705348 0.797927 -2.437561 0
M  V30 19 C -3.758258 -0.069486 -2.704971 0
M  V30 20 C -3.927351 -1.104211 -1.833445 0
M  V30 21 C -3.103242 -1.298564 -0.732395 0
M  V30 22 C -2.061975 -0.417898 -0.491322 0
M  V30 23 N -1.236950 -0.550023 0.547260 0
M  V30 24 C -0.240240 0.326326 0.743865 0
M  V30 25 H -1.124906 -4.997459 4.583021 0
M  V30 26 H -1.801142 -4.264422 3.126040 0
M  V30 27 H -0.987673 -5.845830 2.960269 0
M  V30 28 H 1.150100 -4.965030 3.172195 0
M  V30 29 H 0.573442 -3.522660 4.127857 0
M  V30 30 H -0.077046 -4.078741 1.174156 0
M  V30 31 H -0.642499 -2.702372 2.156217 0
M  V30 32 H 2.257326 -3.344363 1.352796 0
M  V30 33 H 1.264222 -2.068942 0.650719 0
M  V30 34 H 2.811117 -1.113212 2.172535 0
M  V30 35 H 2.289199 -2.082901 3.545319 0
M  V30 36 H -0.011020 -0.983842 3.306528 0
M  V30 37 H 1.293443 0.117210 3.733906 0
M  V30 38 H 3.526711 1.929003 1.876557 0
M  V30 39 H 2.580733 2.190596 3.253238 0
M  V30 40 H 4.119623 4.409681 -1.285229 0
M  V30 41 H 2.749079 4.551489 -2.507576 0
M  V30 42 H 3.951808 3.270066 -2.631941 0
M  V30 43 H -2.560694 1.630057 -3.128822 0
M  V30 44 H -4.442211 0.019665 -3.545335 0
M  V30 45 H -4.721215 -1.800127 -1.992385 0
M  V30 46 H -3.254808 -2.126812 -0.052623 0
M  V30 END ATOM
M  V30 BEGIN BOND
M  V30 1 1 1 2
M  V30 2 1 2 3
M  V30 3 1 3 4
M  V30 4 1 4 5
M  V30 5 1 5 6
M  V30 6 1 6 7
M  V30 7 1 7 8
M  V30 8 1 8 9
M  V30 9 2 8 10
M  V30 10 1 10 11
M  V30 11 2 11 12
M  V30 12 1 11 13
M  V30 13 1 13 14
M  V30 14 1 10 15
M  V30 15 2 15 16
M  V30 16 1 16 17
M  V30 17 2 17 18
M  V30 18 1 18 19
M  V30 19 2 19 20
M  V30 20 1 20 21
M  V30 21 2 21 22
M  V30 22 1 22 23
M  V30 23 2 23 24
M  V30 24 1 24 7
M  V30 25 1 24 15
M  V30 26 1 22 17
M  V30 27 1 1 25
M  V30 28 1 1 26
M  V30 29 1 1 27
M  V30 30 1 2 28
M  V30 31 1 2 29
M  V30 32 1 3 30
M  V30 33 1 3 31
M  V30 34 1 4 32
M  V30 35 1 4 33
M  V30 36 1 5 34
M  V30 37 1 5 35
M  V30 38 1 6 36
M  V30 39 1 6 37
M  V30 40 1 9 38
M  V30 41 1 9 39
M  V30 42 1 14 40
M  V30 43 1 14 41
M  V30 44 1 14 42
M  V30 45 1 18 43
M  V30 46 1 19 44
M  V30 47 1 20 45
M  V30 48 1 21 46
M  V30 END BOND
M  V30 END CTAB
M  END
>  <Dataset>  (858) 
ChEMBL_Kinases

>  <Ligand_Instance>  (858) 
nan

>  <PDB_ID>  (858) 
nan

>  <Standardized_SMILES>  (858) 
CCCCCCn1c(N)c(C(=O)OC)c2nc3ccccc3nc21

>  <Name>  (858) 
nan

>  <Pocket>  (858) 
nan

>  <ATP_Site>  (858) 
nan

>  <Peripheral>  (858) 
nan

>  <Num_H_Atoms_ProtBoundConf>  (858) 
nan

>  <Num_Resolved_Atoms>  (858) 
nan

>  <Num_Not_Resolved_Atoms>  (858) 
nan

$$$$
CHEMBL489534
     RDKit          3D

  0  0  0  0  0  0  0  0  0  0999 V3000
M  V30 BEGIN CTAB
M  V30 COUNTS 43 45 0 0 0
M  V30 BEGIN ATOM
M  V30 1 C 2.283558 -4.069626 1.070008 0
M  V30 2 O 3.506369 -3.410721 1.164645 0
M  V30 3 C 3.747120 -2.069172 0.956943 0
M  V30 4 C 5.038636 -1.575152 1.094559 0
M  V30 5 C 5.254631 -0.226259 0.880770 0
M  V30 6 C 4.200293 0.598622 0.539017 0
M  V30 7 C 2.896553 0.135332 0.393706 0
M  V30 8 C 1.860341 1.083025 0.018104 0
M  V30 9 C 2.186888 1.830733 -1.105711 0
M  V30 10 N 1.292928 2.740241 -1.577156 0
M  V30 11 C 0.094353 2.911367 -0.951084 0
M  V30 12 N -0.235158 2.192982 0.140351 0
M  V30 13 C 0.637620 1.291311 0.617687 0
M  V30 14 N 0.349663 0.527330 1.775760 0
M  V30 15 C -0.888698 0.657273 2.474027 0
M  V30 16 C -2.094174 0.328492 1.654878 0
M  V30 17 C -2.940677 1.304473 1.150528 0
M  V30 18 C -4.058031 0.963523 0.392945 0
M  V30 19 C -4.321959 -0.379477 0.142829 0
M  V30 20 C -3.461442 -1.348762 0.656818 0
M  V30 21 C -2.335750 -1.015305 1.419474 0
M  V30 22 O -1.569187 -2.054997 1.867189 0
M  V30 23 C -1.834541 -3.416750 1.614926 0
M  V30 24 C 2.722019 -1.214878 0.614729 0
M  V30 25 H 1.786617 -3.987627 2.068055 0
M  V30 26 H 1.589782 -3.648373 0.342164 0
M  V30 27 H 2.473199 -5.153237 0.924596 0
M  V30 28 H 5.817992 -2.276699 1.364250 0
M  V30 29 H 6.258692 0.176337 0.984130 0
M  V30 30 H 4.434774 1.643749 0.385431 0
M  V30 31 H 3.136131 1.737450 -1.652218 0
M  V30 32 H -0.648132 3.616010 -1.282043 0
M  V30 33 H 0.997691 -0.165364 2.204007 0
M  V30 34 H -0.934948 1.739264 2.805877 0
M  V30 35 H -0.983143 0.093071 3.399025 0
M  V30 36 H -2.749868 2.337537 1.337130 0
M  V30 37 H -4.688301 1.758644 0.021054 0
M  V30 38 H -5.191117 -0.645707 -0.446154 0
M  V30 39 H -3.725174 -2.364238 0.425323 0
M  V30 40 H -1.541180 -3.604735 0.546514 0
M  V30 41 H -1.242177 -4.092323 2.235773 0
M  V30 42 H -2.885287 -3.704559 1.712483 0
M  V30 43 H 1.738060 -1.622185 0.507455 0
M  V30 END ATOM
M  V30 BEGIN BOND
M  V30 1 1 1 2
M  V30 2 1 2 3
M  V30 3 2 3 4
M  V30 4 1 4 5
M  V30 5 2 5 6
M  V30 6 1 6 7
M  V30 7 1 7 8
M  V30 8 2 8 9
M  V30 9 1 9 10
M  V30 10 2 10 11
M  V30 11 1 11 12
M  V30 12 2 12 13
M  V30 13 1 13 14
M  V30 14 1 14 15
M  V30 15 1 15 16
M  V30 16 2 16 17
M  V30 17 1 17 18
M  V30 18 2 18 19
M  V30 19 1 19 20
M  V30 20 2 20 21
M  V30 21 1 21 22
M  V30 22 1 22 23
M  V30 23 2 7 24
M  V30 24 1 24 3
M  V30 25 1 13 8
M  V30 26 1 21 16
M  V30 27 1 1 25
M  V30 28 1 1 26
M  V30 29 1 1 27
M  V30 30 1 4 28
M  V30 31 1 5 29
M  V30 32 1 6 30
M  V30 33 1 9 31
M  V30 34 1 11 32
M  V30 35 1 14 33
M  V30 36 1 15 34
M  V30 37 1 15 35
M  V30 38 1 17 36
M  V30 39 1 18 37
M  V30 40 1 19 38
M  V30 41 1 20 39
M  V30 42 1 23 40
M  V30 43 1 23 41
M  V30 44 1 23 42
M  V30 45 1 24 43
M  V30 END BOND
M  V30 END CTAB
M  END
>  <Dataset>  (859) 
ChEMBL_Kinases

>  <Ligand_Instance>  (859) 
nan

>  <PDB_ID>  (859) 
nan

>  <Standardized_SMILES>  (859) 
COc1cccc(-c2cncnc2NCc2ccccc2OC)c1

>  <Name>  (859) 
nan

>  <Pocket>  (859) 
nan

>  <ATP_Site>  (859) 
nan

>  <Peripheral>  (859) 
nan

>  <Num_H_Atoms_ProtBoundConf>  (859) 
nan

>  <Num_Resolved_Atoms>  (859) 
nan

>  <Num_Not_Resolved_Atoms>  (859) 
nan

$$$$
CHEMBL488698
     RDKit          3D

  0  0  0  0  0  0  0  0  0  0999 V3000
M  V30 BEGIN CTAB
M  V30 COUNTS 56 59 0 0 0
M  V30 BEGIN ATOM
M  V30 1 O -0.898714 -4.442939 0.358685 0
M  V30 2 C 0.067043 -3.690017 0.716395 0
M  V30 3 O 0.594089 -3.171117 1.892506 0
M  V30 4 C 1.911396 -2.692937 1.659607 0
M  V30 5 C 2.881895 -3.565464 2.532024 0
M  V30 6 O 4.181355 -3.130335 2.335976 0
M  V30 7 C 2.096027 -1.277811 2.062439 0
M  V30 8 O 1.295787 -0.298362 1.571039 0
M  V30 9 C 0.942289 0.320117 0.459107 0
M  V30 10 O 1.474634 -0.029073 -0.602828 0
M  V30 11 C -0.059458 1.409770 0.418327 0
M  V30 12 C 0.434739 2.543744 1.234536 0
M  V30 13 C 1.092763 2.551322 2.435441 0
M  V30 14 C 1.486550 3.714848 3.060947 0
M  V30 15 C 1.238800 4.953681 2.509302 0
M  V30 16 C 0.579350 4.989968 1.302661 0
M  V30 17 C 0.202486 3.821891 0.708112 0
M  V30 18 C -1.415599 0.976447 0.856659 0
M  V30 19 C -1.706974 0.042989 1.827828 0
M  V30 20 C -2.969807 -0.322988 2.197685 0
M  V30 21 C -4.049828 0.254237 1.585331 0
M  V30 22 C -3.829832 1.191836 0.609058 0
M  V30 23 C -2.545755 1.543133 0.254766 0
M  V30 24 C 2.269637 -2.986032 0.248474 0
M  V30 25 C 0.913739 -3.185667 -0.377181 0
M  V30 26 C 0.577244 -2.950225 -1.635201 0
M  V30 27 C -0.734648 -3.136782 -2.239042 0
M  V30 28 C -1.991553 -2.804062 -1.779140 0
M  V30 29 C -3.106324 -3.102888 -2.533357 0
M  V30 30 C -3.037379 -3.733255 -3.757570 0
M  V30 31 F -4.137857 -4.024998 -4.495823 0
M  V30 32 C -1.791554 -4.076999 -4.242023 0
M  V30 33 C -0.677546 -3.777173 -3.485302 0
M  V30 34 H 2.839481 -4.615055 2.177964 0
M  V30 35 H 2.624724 -3.451769 3.604241 0
M  V30 36 H 4.395422 -2.928259 1.392497 0
M  V30 37 H 2.141033 -1.178495 3.201759 0
M  V30 38 H 3.200673 -1.023158 1.824225 0
M  V30 39 H -0.184461 1.733235 -0.661290 0
M  V30 40 H 1.283163 1.582161 2.867002 0
M  V30 41 H 2.005172 3.613196 4.015801 0
M  V30 42 H 1.583980 5.808217 3.070868 0
M  V30 43 H 0.381131 5.946012 0.864932 0
M  V30 44 H -0.316526 3.936061 -0.247600 0
M  V30 45 H -0.891451 -0.421972 2.322005 0
M  V30 46 H -3.121859 -1.064580 2.969840 0
M  V30 47 H -5.044346 -0.051066 1.895518 0
M  V30 48 H -4.645144 1.670295 0.101880 0
M  V30 49 H -2.409032 2.291428 -0.524439 0
M  V30 50 H 2.861204 -2.208105 -0.214978 0
M  V30 51 H 2.778792 -3.995658 0.163311 0
M  V30 52 H 1.394947 -2.572693 -2.272685 0
M  V30 53 H -1.998308 -2.311993 -0.841078 0
M  V30 54 H -4.065705 -2.817781 -2.121060 0
M  V30 55 H -1.733875 -4.570691 -5.199440 0
M  V30 56 H 0.257493 -4.090055 -3.955868 0
M  V30 END ATOM
M  V30 BEGIN BOND
M  V30 1 2 1 2
M  V30 2 1 2 3
M  V30 3 1 3 4
M  V30 4 1 4 5
M  V30 5 1 5 6
M  V30 6 1 4 7
M  V30 7 1 7 8
M  V30 8 1 8 9
M  V30 9 2 9 10
M  V30 10 1 9 11
M  V30 11 1 11 12
M  V30 12 2 12 13
M  V30 13 1 13 14
M  V30 14 2 14 15
M  V30 15 1 15 16
M  V30 16 2 16 17
M  V30 17 1 11 18
M  V30 18 2 18 19
M  V30 19 1 19 20
M  V30 20 2 20 21
M  V30 21 1 21 22
M  V30 22 2 22 23
M  V30 23 1 4 24
M  V30 24 1 24 25
M  V30 25 2 25 26
M  V30 26 1 26 27
M  V30 27 2 27 28
M  V30 28 1 28 29
M  V30 29 2 29 30
M  V30 30 1 30 31
M  V30 31 1 30 32
M  V30 32 2 32 33
M  V30 33 1 25 2
M  V30 34 1 33 27
M  V30 35 1 17 12
M  V30 36 1 23 18
M  V30 37 1 5 34
M  V30 38 1 5 35
M  V30 39 1 6 36
M  V30 40 1 7 37
M  V30 41 1 7 38
M  V30 42 1 11 39
M  V30 43 1 13 40
M  V30 44 1 14 41
M  V30 45 1 15 42
M  V30 46 1 16 43
M  V30 47 1 17 44
M  V30 48 1 19 45
M  V30 49 1 20 46
M  V30 50 1 21 47
M  V30 51 1 22 48
M  V30 52 1 23 49
M  V30 53 1 24 50
M  V30 54 1 24 51
M  V30 55 1 26 52
M  V30 56 1 28 53
M  V30 57 1 29 54
M  V30 58 1 32 55
M  V30 59 1 33 56
M  V30 END BOND
M  V30 END CTAB
M  END
>  <Dataset>  (860) 
ChEMBL_Kinases

>  <Ligand_Instance>  (860) 
nan

>  <PDB_ID>  (860) 
nan

>  <Standardized_SMILES>  (860) 
O=C1OC(CO)(COC(=O)C(c2ccccc2)c2ccccc2)C/C1=C/c1ccc(F)cc1

>  <Name>  (860) 
nan

>  <Pocket>  (860) 
nan

>  <ATP_Site>  (860) 
nan

>  <Peripheral>  (860) 
nan

>  <Num_H_Atoms_ProtBoundConf>  (860) 
nan

>  <Num_Resolved_Atoms>  (860) 
nan

>  <Num_Not_Resolved_Atoms>  (860) 
nan

$$$$
CHEMBL607374
     RDKit          3D

  0  0  0  0  0  0  0  0  0  0999 V3000
M  V30 BEGIN CTAB
M  V30 COUNTS 60 65 0 0 0
M  V30 BEGIN ATOM
M  V30 1 C 0.601799 0.449714 4.972485 0
M  V30 2 C 1.964063 0.066068 4.455730 0
M  V30 3 N 3.119204 0.105571 5.158565 0
M  V30 4 N 4.134478 -0.306163 4.382462 0
M  V30 5 C 3.593002 -0.608365 3.167098 0
M  V30 6 C 4.171886 -1.074931 2.001728 0
M  V30 7 C 3.479024 -1.336776 0.836706 0
M  V30 8 C 2.121134 -1.099643 0.894933 0
M  V30 9 C 1.332596 -1.359401 -0.310768 0
M  V30 10 C 0.723659 -0.241461 -0.840307 0
M  V30 11 C -0.053392 -0.323123 -1.975671 0
M  V30 12 O -0.771832 0.529704 -2.739578 0
M  V30 13 C -1.001413 1.891373 -2.635364 0
M  V30 14 C -1.700394 2.371685 -1.409046 0 CFG=1
M  V30 15 N -1.866470 3.838449 -1.432336 0
M  V30 16 C -3.100396 1.816128 -1.351467 0
M  V30 17 C -3.187949 0.356755 -1.319172 0
M  V30 18 C -3.535451 -0.419089 -2.419541 0
M  V30 19 N -3.527349 -1.703812 -2.081618 0
M  V30 20 C -3.175869 -1.751816 -0.768521 0
M  V30 21 C -3.028135 -2.857321 0.042931 0
M  V30 22 C -2.661257 -2.734237 1.371227 0
M  V30 23 F -2.519717 -3.825641 2.155512 0
M  V30 24 C -2.455123 -1.439709 1.824777 0
M  V30 25 C -2.594232 -0.312972 1.040567 0
M  V30 26 C -2.956224 -0.491927 -0.256781 0
M  V30 27 C -0.172964 -1.607028 -2.538332 0
M  V30 28 N 0.426265 -2.724932 -2.022790 0
M  V30 29 C 1.186194 -2.598359 -0.898026 0
M  V30 30 C 1.895085 -3.671770 -0.213899 0
M  V30 31 C 1.555347 -3.964788 1.110007 0
M  V30 32 C 2.370751 -5.020358 1.513349 0
M  V30 33 O 3.141931 -5.337639 0.508384 0
M  V30 34 C 2.893531 -4.563866 -0.534763 0
M  V30 35 C 1.470344 -0.628336 2.039455 0
M  V30 36 C 2.226107 -0.385156 3.178063 0
M  V30 37 H -0.142382 -0.375697 4.799069 0
M  V30 38 H 0.252829 1.404511 4.526048 0
M  V30 39 H 0.675600 0.566052 6.074091 0
M  V30 40 H 5.151462 -0.388258 4.638653 0
M  V30 41 H 5.253124 -1.241073 2.026028 0
M  V30 42 H 3.969176 -1.701472 -0.054017 0
M  V30 43 H 0.768482 0.757377 -0.481315 0
M  V30 44 H -1.632851 2.172462 -3.534602 0
M  V30 45 H -0.049184 2.475096 -2.831053 0
M  V30 46 H -1.104221 2.169847 -0.526825 0
M  V30 47 H -2.531262 4.105235 -2.210933 0
M  V30 48 H -2.277164 4.175101 -0.553373 0
M  V30 49 H -3.655749 2.204011 -0.456032 0
M  V30 50 H -3.669505 2.236450 -2.221606 0
M  V30 51 H -3.778140 -0.026555 -3.412915 0
M  V30 52 H -3.752833 -2.478647 -2.732343 0
M  V30 53 H -3.203805 -3.848457 -0.373327 0
M  V30 54 H -2.168226 -1.344809 2.865003 0
M  V30 55 H -2.432467 0.688173 1.398902 0
M  V30 56 H -0.721940 -1.933828 -3.421321 0
M  V30 57 H 0.821515 -3.525713 1.787605 0
M  V30 58 H 2.364280 -5.500037 2.504462 0
M  V30 59 H 3.316544 -4.524135 -1.519851 0
M  V30 60 H 0.405158 -0.447429 2.068521 0
M  V30 END ATOM
M  V30 BEGIN BOND
M  V30 1 1 1 2
M  V30 2 2 2 3
M  V30 3 1 3 4
M  V30 4 1 4 5
M  V30 5 2 5 6
M  V30 6 1 6 7
M  V30 7 2 7 8
M  V30 8 1 8 9
M  V30 9 2 9 10
M  V30 10 1 10 11
M  V30 11 1 11 12
M  V30 12 1 12 13
M  V30 13 1 13 14
M  V30 14 1 14 15
M  V30 15 1 14 16
M  V30 16 1 16 17
M  V30 17 2 17 18
M  V30 18 1 18 19
M  V30 19 1 19 20
M  V30 20 2 20 21
M  V30 21 1 21 22
M  V30 22 1 22 23
M  V30 23 2 22 24
M  V30 24 1 24 25
M  V30 25 2 25 26
M  V30 26 2 11 27
M  V30 27 1 27 28
M  V30 28 2 28 29
M  V30 29 1 29 30
M  V30 30 1 30 31
M  V30 31 2 31 32
M  V30 32 1 32 33
M  V30 33 1 33 34
M  V30 34 1 8 35
M  V30 35 2 35 36
M  V30 36 1 36 2
M  V30 37 1 36 5
M  V30 38 1 29 9
M  V30 39 2 34 30
M  V30 40 1 26 17
M  V30 41 1 26 20
M  V30 42 1 1 37
M  V30 43 1 1 38
M  V30 44 1 1 39
M  V30 45 1 4 40
M  V30 46 1 6 41
M  V30 47 1 7 42
M  V30 48 1 10 43
M  V30 49 1 13 44
M  V30 50 1 13 45
M  V30 51 1 14 46 CFG=1
M  V30 52 1 15 47
M  V30 53 1 15 48
M  V30 54 1 16 49
M  V30 55 1 16 50
M  V30 56 1 18 51
M  V30 57 1 19 52
M  V30 58 1 21 53
M  V30 59 1 24 54
M  V30 60 1 25 55
M  V30 61 1 27 56
M  V30 62 1 31 57
M  V30 63 1 32 58
M  V30 64 1 34 59
M  V30 65 1 35 60
M  V30 END BOND
M  V30 END CTAB
M  END
>  <Dataset>  (861) 
ChEMBL_Kinases

>  <Ligand_Instance>  (861) 
nan

>  <PDB_ID>  (861) 
nan

>  <Standardized_SMILES>  (861) 
Cc1n[nH]c2ccc(-c3cc(OC[C@@H](N)Cc4c[nH]c5cc(F)ccc45)cnc3-c3ccoc3)cc12

>  <Name>  (861) 
nan

>  <Pocket>  (861) 
nan

>  <ATP_Site>  (861) 
nan

>  <Peripheral>  (861) 
nan

>  <Num_H_Atoms_ProtBoundConf>  (861) 
nan

>  <Num_Resolved_Atoms>  (861) 
nan

>  <Num_Not_Resolved_Atoms>  (861) 
nan

$$$$
CHEMBL3913027
     RDKit          3D

  0  0  0  0  0  0  0  0  0  0999 V3000
M  V30 BEGIN CTAB
M  V30 COUNTS 68 71 0 0 0
M  V30 BEGIN ATOM
M  V30 1 C 3.369575 0.272823 2.616010 0
M  V30 2 N 3.727549 -0.505113 1.449760 0
M  V30 3 C 4.953973 -0.830987 0.773412 0
M  V30 4 O 6.004025 -0.352153 1.274991 0
M  V30 5 C 4.869812 -1.691198 -0.435196 0 CFG=2
M  V30 6 C 5.478743 -1.031980 -1.656686 0
M  V30 7 C 4.788559 0.241081 -1.986676 0
M  V30 8 C 5.155981 1.461280 -1.462838 0
M  V30 9 C 4.531348 2.680122 -1.746357 0
M  V30 10 C 3.466606 2.669975 -2.616184 0
M  V30 11 C 3.042931 1.473183 -3.182830 0
M  V30 12 C 1.892773 1.524068 -4.123506 0
M  V30 13 F 1.512692 0.240124 -4.456187 0
M  V30 14 F 2.244982 2.256172 -5.244008 0
M  V30 15 F 0.855957 2.193491 -3.519166 0
M  V30 16 C 3.693561 0.282360 -2.871776 0
M  V30 17 N 3.515317 -2.063349 -0.744418 0
M  V30 18 C 2.672226 -3.181495 -0.872076 0
M  V30 19 O 3.139843 -4.323014 -0.676320 0
M  V30 20 C 1.270553 -3.002942 -1.226019 0
M  V30 21 C 0.513315 -4.146259 -1.319322 0
M  V30 22 C -0.831275 -4.062994 -1.625276 0
M  V30 23 C -1.431513 -2.853805 -1.838424 0
M  V30 24 C -2.871641 -2.566266 -2.166325 0
M  V30 25 N -3.660264 -2.543854 -0.939900 0
M  V30 26 C -3.659842 -1.546878 0.067077 0
M  V30 27 O -2.923405 -0.535651 -0.034491 0
M  V30 28 C -4.485884 -1.619746 1.262324 0
M  V30 29 C -5.442064 -2.533040 1.604219 0
M  V30 30 N -5.909009 -2.167675 2.800009 0
M  V30 31 N -5.328721 -1.087637 3.257060 0
M  V30 32 C -5.432716 -0.288943 4.458207 0
M  V30 33 C -5.671823 1.069929 4.396538 0
M  V30 34 C -5.756147 1.847505 5.521808 0
M  V30 35 C -5.589813 1.191515 6.741865 0
M  V30 36 C -5.353868 -0.154768 6.822400 0
M  V30 37 C -5.268223 -0.936518 5.682104 0
M  V30 38 C -4.425473 -0.719681 2.301512 0
M  V30 39 N -3.545014 0.431421 2.382087 0
M  V30 40 C -0.654308 -1.687690 -1.743358 0
M  V30 41 C 0.700928 -1.755487 -1.437512 0
M  V30 42 H 2.809542 1.205100 2.356702 0
M  V30 43 H 2.828091 -0.325877 3.373635 0
M  V30 44 H 4.337336 0.578690 3.105611 0
M  V30 45 H 2.807664 -0.886315 1.072187 0
M  V30 46 H 5.537178 -2.565089 -0.209212 0
M  V30 47 H 5.348302 -1.708146 -2.529418 0
M  V30 48 H 6.540941 -0.838238 -1.511965 0
M  V30 49 H 5.985033 1.543628 -0.772561 0
M  V30 50 H 4.867223 3.613335 -1.302422 0
M  V30 51 H 2.933901 3.570958 -2.879878 0
M  V30 52 H 3.341806 -0.619173 -3.329076 0
M  V30 53 H 3.131719 -1.107319 -0.906786 0
M  V30 54 H 0.950293 -5.121661 -1.157312 0
M  V30 55 H -1.467601 -4.930682 -1.709904 0
M  V30 56 H -3.316118 -3.325701 -2.818117 0
M  V30 57 H -2.982745 -1.587969 -2.663802 0
M  V30 58 H -4.332614 -3.334059 -0.723881 0
M  V30 59 H -5.766670 -3.385115 1.032104 0
M  V30 60 H -5.790852 1.503293 3.393927 0
M  V30 61 H -5.942197 2.902739 5.502548 0
M  V30 62 H -5.630044 1.680365 7.690696 0
M  V30 63 H -5.221943 -0.688331 7.755013 0
M  V30 64 H -5.086158 -1.998983 5.664399 0
M  V30 65 H -2.582586 0.050698 2.593155 0
M  V30 66 H -3.502842 1.468089 2.309094 0
M  V30 67 H -1.028399 -0.671944 -1.910185 0
M  V30 68 H 1.254270 -0.849078 -1.376312 0
M  V30 END ATOM
M  V30 BEGIN BOND
M  V30 1 1 1 2
M  V30 2 1 2 3
M  V30 3 2 3 4
M  V30 4 1 3 5
M  V30 5 1 5 6
M  V30 6 1 6 7
M  V30 7 2 7 8
M  V30 8 1 8 9
M  V30 9 2 9 10
M  V30 10 1 10 11
M  V30 11 1 11 12
M  V30 12 1 12 13
M  V30 13 1 12 14
M  V30 14 1 12 15
M  V30 15 2 11 16
M  V30 16 1 5 17
M  V30 17 1 17 18
M  V30 18 2 18 19
M  V30 19 1 18 20
M  V30 20 2 20 21
M  V30 21 1 21 22
M  V30 22 2 22 23
M  V30 23 1 23 24
M  V30 24 1 24 25
M  V30 25 1 25 26
M  V30 26 2 26 27
M  V30 27 1 26 28
M  V30 28 1 28 29
M  V30 29 2 29 30
M  V30 30 1 30 31
M  V30 31 1 31 32
M  V30 32 2 32 33
M  V30 33 1 33 34
M  V30 34 2 34 35
M  V30 35 1 35 36
M  V30 36 2 36 37
M  V30 37 1 31 38
M  V30 38 1 38 39
M  V30 39 1 23 40
M  V30 40 2 40 41
M  V30 41 1 16 7
M  V30 42 1 41 20
M  V30 43 2 38 28
M  V30 44 1 37 32
M  V30 45 1 1 42
M  V30 46 1 1 43
M  V30 47 1 1 44
M  V30 48 1 2 45
M  V30 49 1 5 46 CFG=1
M  V30 50 1 6 47
M  V30 51 1 6 48
M  V30 52 1 8 49
M  V30 53 1 9 50
M  V30 54 1 10 51
M  V30 55 1 16 52
M  V30 56 1 17 53
M  V30 57 1 21 54
M  V30 58 1 22 55
M  V30 59 1 24 56
M  V30 60 1 24 57
M  V30 61 1 25 58
M  V30 62 1 29 59
M  V30 63 1 33 60
M  V30 64 1 34 61
M  V30 65 1 35 62
M  V30 66 1 36 63
M  V30 67 1 37 64
M  V30 68 1 39 65
M  V30 69 1 39 66
M  V30 70 1 40 67
M  V30 71 1 41 68
M  V30 END BOND
M  V30 END CTAB
M  END
>  <Dataset>  (862) 
ChEMBL_Kinases

>  <Ligand_Instance>  (862) 
nan

>  <PDB_ID>  (862) 
nan

>  <Standardized_SMILES>  (862) 
CNC(=O)[C@H](Cc1cccc(C(F)(F)F)c1)NC(=O)c1ccc(CNC(=O)c2cnn(-c3ccccc3)c2N)cc1

>  <Name>  (862) 
nan

>  <Pocket>  (862) 
nan

>  <ATP_Site>  (862) 
nan

>  <Peripheral>  (862) 
nan

>  <Num_H_Atoms_ProtBoundConf>  (862) 
nan

>  <Num_Resolved_Atoms>  (862) 
nan

>  <Num_Not_Resolved_Atoms>  (862) 
nan

$$$$
CHEMBL599799
     RDKit          3D

  0  0  0  0  0  0  0  0  0  0999 V3000
M  V30 BEGIN CTAB
M  V30 COUNTS 58 61 0 0 0
M  V30 BEGIN ATOM
M  V30 1 C 4.526140 -2.602688 4.317809 0
M  V30 2 N 3.366813 -1.870134 3.840837 0
M  V30 3 C 2.339380 -2.266955 4.792517 0
M  V30 4 C 3.029413 -0.966261 2.791580 0
M  V30 5 O 1.820289 -0.655059 2.898338 0
M  V30 6 C 3.841481 -0.435753 1.743089 0
M  V30 7 O 4.957644 -0.995595 1.994615 0
M  V30 8 C 3.867502 0.423154 0.603951 0
M  V30 9 C 5.012686 0.636377 -0.173984 0
M  V30 10 N 4.644760 1.486614 -1.131068 0
M  V30 11 C 3.360514 1.860086 -1.063462 0
M  V30 12 C 2.618053 2.709424 -1.856415 0
M  V30 13 C 1.289191 2.919852 -1.555050 0
M  V30 14 Cl 0.371607 3.996425 -2.570374 0
M  V30 15 C 0.774587 2.260220 -0.464710 0
M  V30 16 C -0.633169 2.467206 -0.124574 0
M  V30 17 O -1.313147 3.249346 0.586700 0
M  V30 18 N -1.480871 1.520890 -0.778472 0
M  V30 19 C -2.941234 1.477848 -0.632306 0
M  V30 20 C -3.411017 0.087549 -0.211428 0
M  V30 21 C -2.171291 -0.702220 0.150064 0
M  V30 22 C -2.504414 -1.954773 0.915332 0
M  V30 23 C -3.382478 -2.870748 0.144103 0
M  V30 24 C -2.734865 -3.812914 -0.656812 0
M  V30 25 C -3.477279 -4.702820 -1.406613 0
M  V30 26 C -4.869532 -4.663428 -1.366383 0
M  V30 27 F -5.542804 -5.563263 -2.124926 0
M  V30 28 C -5.487271 -3.711713 -0.557529 0
M  V30 29 C -4.760498 -2.813879 0.199059 0
M  V30 30 C -1.409576 -0.927876 -1.112371 0
M  V30 31 C -1.099128 0.445857 -1.687648 0
M  V30 32 C 1.558280 1.424147 0.292892 0
M  V30 33 C 2.882575 1.183028 0.033810 0
M  V30 34 H 4.303456 -3.697942 4.245562 0
M  V30 35 H 5.400153 -2.321736 3.730883 0
M  V30 36 H 4.731074 -2.405509 5.401189 0
M  V30 37 H 2.132980 -3.359329 4.677008 0
M  V30 38 H 2.594716 -2.004433 5.842885 0
M  V30 39 H 1.408731 -1.736434 4.516639 0
M  V30 40 H 6.039448 0.238592 -0.097723 0
M  V30 41 H 5.306187 1.832058 -1.872415 0
M  V30 42 H 3.080164 3.195806 -2.696308 0
M  V30 43 H -3.306400 2.181229 0.133928 0
M  V30 44 H -3.399317 1.683389 -1.620793 0
M  V30 45 H -3.875460 -0.455429 -1.078462 0
M  V30 46 H -4.071252 0.119792 0.659405 0
M  V30 47 H -1.569174 -0.039917 0.799245 0
M  V30 48 H -1.561686 -2.434279 1.249108 0
M  V30 49 H -2.995862 -1.603083 1.858716 0
M  V30 50 H -1.665021 -3.851901 -0.695107 0
M  V30 51 H -2.911249 -5.420930 -2.017421 0
M  V30 52 H -6.575371 -3.697046 -0.539727 0
M  V30 53 H -5.240051 -2.076459 0.825783 0
M  V30 54 H -0.492469 -1.541779 -0.996879 0
M  V30 55 H -2.110939 -1.417563 -1.841685 0
M  V30 56 H -0.011544 0.552025 -1.900121 0
M  V30 57 H -1.608511 0.643183 -2.645258 0
M  V30 58 H 1.099665 0.947899 1.118246 0
M  V30 END ATOM
M  V30 BEGIN BOND
M  V30 1 1 1 2
M  V30 2 1 2 3
M  V30 3 1 2 4
M  V30 4 2 4 5
M  V30 5 1 4 6
M  V30 6 2 6 7
M  V30 7 1 6 8
M  V30 8 2 8 9
M  V30 9 1 9 10
M  V30 10 1 10 11
M  V30 11 2 11 12
M  V30 12 1 12 13
M  V30 13 1 13 14
M  V30 14 2 13 15
M  V30 15 1 15 16
M  V30 16 2 16 17
M  V30 17 1 16 18
M  V30 18 1 18 19
M  V30 19 1 19 20
M  V30 20 1 20 21
M  V30 21 1 21 22
M  V30 22 1 22 23
M  V30 23 2 23 24
M  V30 24 1 24 25
M  V30 25 2 25 26
M  V30 26 1 26 27
M  V30 27 1 26 28
M  V30 28 2 28 29
M  V30 29 1 21 30
M  V30 30 1 30 31
M  V30 31 1 15 32
M  V30 32 2 32 33
M  V30 33 1 33 8
M  V30 34 1 33 11
M  V30 35 1 31 18
M  V30 36 1 29 23
M  V30 37 1 1 34
M  V30 38 1 1 35
M  V30 39 1 1 36
M  V30 40 1 3 37
M  V30 41 1 3 38
M  V30 42 1 3 39
M  V30 43 1 9 40
M  V30 44 1 10 41
M  V30 45 1 12 42
M  V30 46 1 19 43
M  V30 47 1 19 44
M  V30 48 1 20 45
M  V30 49 1 20 46
M  V30 50 1 21 47
M  V30 51 1 22 48
M  V30 52 1 22 49
M  V30 53 1 24 50
M  V30 54 1 25 51
M  V30 55 1 28 52
M  V30 56 1 29 53
M  V30 57 1 30 54
M  V30 58 1 30 55
M  V30 59 1 31 56
M  V30 60 1 31 57
M  V30 61 1 32 58
M  V30 END BOND
M  V30 END CTAB
M  END
>  <Dataset>  (863) 
ChEMBL_Kinases

>  <Ligand_Instance>  (863) 
nan

>  <PDB_ID>  (863) 
nan

>  <Standardized_SMILES>  (863) 
CN(C)C(=O)C(=O)c1c[nH]c2cc(Cl)c(C(=O)N3CCC(Cc4ccc(F)cc4)CC3)cc12

>  <Name>  (863) 
nan

>  <Pocket>  (863) 
nan

>  <ATP_Site>  (863) 
nan

>  <Peripheral>  (863) 
nan

>  <Num_H_Atoms_ProtBoundConf>  (863) 
nan

>  <Num_Resolved_Atoms>  (863) 
nan

>  <Num_Not_Resolved_Atoms>  (863) 
nan

$$$$
CHEMBL599448
     RDKit          3D

  0  0  0  0  0  0  0  0  0  0999 V3000
M  V30 BEGIN CTAB
M  V30 COUNTS 49 52 0 0 0
M  V30 BEGIN ATOM
M  V30 1 N 2.052966 -3.368748 3.424023 0
M  V30 2 C 1.073557 -2.573498 2.710953 0
M  V30 3 C 1.532068 -2.516058 1.307863 0
M  V30 4 O 1.974259 -3.626207 0.859015 0
M  V30 5 N 1.506102 -1.342732 0.480048 0
M  V30 6 C 1.941974 -1.282301 -0.899405 0
M  V30 7 C 2.205379 0.114374 -1.290481 0
M  V30 8 C 1.145903 0.872077 -1.756501 0
M  V30 9 C 1.254054 2.191125 -2.171892 0
M  V30 10 C 2.494637 2.819809 -2.129610 0
M  V30 11 Cl 2.622815 4.473850 -2.649999 0
M  V30 12 C 3.563285 2.070627 -1.665616 0
M  V30 13 C 3.439559 0.752205 -1.252418 0
M  V30 14 C 0.882278 -1.266349 3.360811 0
M  V30 15 C -0.436707 -0.605956 3.049408 0
M  V30 16 N -1.222011 -1.315574 2.061761 0
M  V30 17 C -1.789215 -1.021182 0.769519 0
M  V30 18 C -1.561135 -1.781842 -0.344232 0
M  V30 19 C -2.152053 -1.431219 -1.543799 0
M  V30 20 N -2.941905 -0.350662 -1.611433 0
M  V30 21 C -3.186482 0.420043 -0.538429 0
M  V30 22 N -3.924171 1.518540 -0.352721 0
M  V30 23 C -3.839687 1.904386 0.941571 0
M  V30 24 C -3.010110 0.988410 1.548354 0
M  V30 25 C -2.598240 0.063891 0.642714 0
M  V30 26 C -1.451675 -2.663501 2.539590 0
M  V30 27 C -0.187908 -3.431540 2.733226 0
M  V30 28 H 2.794545 -2.756928 3.830855 0
M  V30 29 H 1.621063 -3.922000 4.177636 0
M  V30 30 H 1.150123 -0.460734 0.919994 0
M  V30 31 H 1.108980 -1.674718 -1.550536 0
M  V30 32 H 2.827344 -1.901430 -1.045477 0
M  V30 33 H 0.147349 0.438046 -1.811997 0
M  V30 34 H 0.370642 2.714532 -2.526241 0
M  V30 35 H 4.548850 2.547142 -1.625620 0
M  V30 36 H 4.261146 0.162649 -0.894219 0
M  V30 37 H 0.919597 -1.432777 4.478054 0
M  V30 38 H 1.730533 -0.591709 3.126882 0
M  V30 39 H -0.249663 0.426691 2.704675 0
M  V30 40 H -1.049360 -0.481752 3.985955 0
M  V30 41 H -0.922088 -2.657378 -0.284377 0
M  V30 42 H -2.023180 -1.983941 -2.459958 0
M  V30 43 H -4.496590 2.036811 -1.073359 0
M  V30 44 H -4.330379 2.749814 1.360429 0
M  V30 45 H -2.766135 1.058569 2.595444 0
M  V30 46 H -2.049626 -2.578100 3.495471 0
M  V30 47 H -2.094840 -3.247874 1.851586 0
M  V30 48 H -0.244010 -3.908742 3.757802 0
M  V30 49 H -0.048937 -4.255593 2.010279 0
M  V30 END ATOM
M  V30 BEGIN BOND
M  V30 1 1 1 2
M  V30 2 1 2 3
M  V30 3 2 3 4
M  V30 4 1 3 5
M  V30 5 1 5 6
M  V30 6 1 6 7
M  V30 7 2 7 8
M  V30 8 1 8 9
M  V30 9 2 9 10
M  V30 10 1 10 11
M  V30 11 1 10 12
M  V30 12 2 12 13
M  V30 13 1 2 14
M  V30 14 1 14 15
M  V30 15 1 15 16
M  V30 16 1 16 17
M  V30 17 2 17 18
M  V30 18 1 18 19
M  V30 19 2 19 20
M  V30 20 1 20 21
M  V30 21 1 21 22
M  V30 22 1 22 23
M  V30 23 2 23 24
M  V30 24 1 24 25
M  V30 25 1 16 26
M  V30 26 1 26 27
M  V30 27 1 27 2
M  V30 28 1 13 7
M  V30 29 1 25 17
M  V30 30 2 25 21
M  V30 31 1 1 28
M  V30 32 1 1 29
M  V30 33 1 5 30
M  V30 34 1 6 31
M  V30 35 1 6 32
M  V30 36 1 8 33
M  V30 37 1 9 34
M  V30 38 1 12 35
M  V30 39 1 13 36
M  V30 40 1 14 37
M  V30 41 1 14 38
M  V30 42 1 15 39
M  V30 43 1 15 40
M  V30 44 1 18 41
M  V30 45 1 19 42
M  V30 46 1 22 43
M  V30 47 1 23 44
M  V30 48 1 24 45
M  V30 49 1 26 46
M  V30 50 1 26 47
M  V30 51 1 27 48
M  V30 52 1 27 49
M  V30 END BOND
M  V30 END CTAB
M  END
>  <Dataset>  (864) 
ChEMBL_Kinases

>  <Ligand_Instance>  (864) 
nan

>  <PDB_ID>  (864) 
nan

>  <Standardized_SMILES>  (864) 
NC1(C(=O)NCc2ccc(Cl)cc2)CCN(c2ccnc3[nH]ccc23)CC1

>  <Name>  (864) 
nan

>  <Pocket>  (864) 
nan

>  <ATP_Site>  (864) 
nan

>  <Peripheral>  (864) 
nan

>  <Num_H_Atoms_ProtBoundConf>  (864) 
nan

>  <Num_Resolved_Atoms>  (864) 
nan

>  <Num_Not_Resolved_Atoms>  (864) 
nan

$$$$
CHEMBL488572
     RDKit          3D

  0  0  0  0  0  0  0  0  0  0999 V3000
M  V30 BEGIN CTAB
M  V30 COUNTS 48 52 0 0 0
M  V30 BEGIN ATOM
M  V30 1 O 6.285126 -2.507478 -0.240930 0
M  V30 2 C 5.666459 -1.418839 -0.130736 0
M  V30 3 N 6.107595 -0.104755 -0.460365 0
M  V30 4 C 5.072795 0.817516 -0.168129 0
M  V30 5 O 5.316069 2.007229 -0.405777 0
M  V30 6 C 3.933211 0.115511 0.360014 0
M  V30 7 C 4.314028 -1.203569 0.370132 0
M  V30 8 C 3.437210 -2.192712 0.830474 0
M  V30 9 C 2.187062 -1.811976 1.271664 0
M  V30 10 C 1.851727 -0.493918 1.243953 0
M  V30 11 C 2.694500 0.472054 0.799665 0
M  V30 12 C 2.122254 1.683422 0.877053 0
M  V30 13 C 2.383656 2.987554 0.618542 0
M  V30 14 C 1.520227 4.037534 0.828721 0
M  V30 15 O 1.786278 5.364913 0.565588 0
M  V30 16 C 0.254086 3.768376 1.354250 0
M  V30 17 C -0.061214 2.454878 1.634883 0
M  V30 18 C 0.865710 1.462574 1.393038 0
M  V30 19 N 0.703793 0.125468 1.616708 0
M  V30 20 C -0.468199 -0.544142 2.153733 0
M  V30 21 C -1.402144 -0.943645 1.036775 0
M  V30 22 C -2.608043 -1.634864 1.619016 0
M  V30 23 O -2.683037 -1.783815 2.883850 0
M  V30 24 N -3.607041 -2.086915 0.703585 0
M  V30 25 C -3.643013 -1.980055 -0.758415 0
M  V30 26 C -4.158584 -3.319200 -1.239954 0
M  V30 27 O -3.919237 -4.334339 -0.311163 0
M  V30 28 C -4.684464 -4.205147 0.822552 0
M  V30 29 C -4.774481 -2.758197 1.293428 0
M  V30 30 H 7.086014 0.025397 -0.857017 0
M  V30 31 H 3.708427 -3.237946 0.850379 0
M  V30 32 H 1.506933 -2.577972 1.628539 0
M  V30 33 H 3.314189 3.299201 0.218640 0
M  V30 34 H 2.284679 5.927631 1.231499 0
M  V30 35 H -0.482686 4.528430 1.549948 0
M  V30 36 H -1.020605 2.239871 2.034381 0
M  V30 37 H -0.121365 -1.493218 2.630735 0
M  V30 38 H -0.984041 0.033664 2.945325 0
M  V30 39 H -1.790310 0.000178 0.600888 0
M  V30 40 H -0.915099 -1.621325 0.335370 0
M  V30 41 H -4.333224 -1.196356 -1.089839 0
M  V30 42 H -2.612437 -1.780587 -1.123914 0
M  V30 43 H -5.280242 -3.233260 -1.277888 0
M  V30 44 H -3.739413 -3.530314 -2.222093 0
M  V30 45 H -5.698581 -4.582126 0.622006 0
M  V30 46 H -4.245513 -4.846593 1.616164 0
M  V30 47 H -5.681148 -2.326332 0.849661 0
M  V30 48 H -4.743882 -2.769019 2.389790 0
M  V30 END ATOM
M  V30 BEGIN BOND
M  V30 1 2 1 2
M  V30 2 1 2 3
M  V30 3 1 3 4
M  V30 4 2 4 5
M  V30 5 1 4 6
M  V30 6 2 6 7
M  V30 7 1 7 8
M  V30 8 2 8 9
M  V30 9 1 9 10
M  V30 10 2 10 11
M  V30 11 1 11 12
M  V30 12 2 12 13
M  V30 13 1 13 14
M  V30 14 1 14 15
M  V30 15 2 14 16
M  V30 16 1 16 17
M  V30 17 2 17 18
M  V30 18 1 18 19
M  V30 19 1 19 20
M  V30 20 1 20 21
M  V30 21 1 21 22
M  V30 22 2 22 23
M  V30 23 1 22 24
M  V30 24 1 24 25
M  V30 25 1 25 26
M  V30 26 1 26 27
M  V30 27 1 27 28
M  V30 28 1 28 29
M  V30 29 1 7 2
M  V30 30 1 19 10
M  V30 31 1 29 24
M  V30 32 1 11 6
M  V30 33 1 18 12
M  V30 34 1 3 30
M  V30 35 1 8 31
M  V30 36 1 9 32
M  V30 37 1 13 33
M  V30 38 1 15 34
M  V30 39 1 16 35
M  V30 40 1 17 36
M  V30 41 1 20 37
M  V30 42 1 20 38
M  V30 43 1 21 39
M  V30 44 1 21 40
M  V30 45 1 25 41
M  V30 46 1 25 42
M  V30 47 1 26 43
M  V30 48 1 26 44
M  V30 49 1 28 45
M  V30 50 1 28 46
M  V30 51 1 29 47
M  V30 52 1 29 48
M  V30 END BOND
M  V30 END CTAB
M  END
>  <Dataset>  (865) 
ChEMBL_Kinases

>  <Ligand_Instance>  (865) 
nan

>  <PDB_ID>  (865) 
nan

>  <Standardized_SMILES>  (865) 
O=C1NC(=O)c2c1ccc1c2c2cc(O)ccc2n1CCC(=O)N1CCOCC1

>  <Name>  (865) 
nan

>  <Pocket>  (865) 
nan

>  <ATP_Site>  (865) 
nan

>  <Peripheral>  (865) 
nan

>  <Num_H_Atoms_ProtBoundConf>  (865) 
nan

>  <Num_Resolved_Atoms>  (865) 
nan

>  <Num_Not_Resolved_Atoms>  (865) 
nan

$$$$
CHEMBL489435
     RDKit          3D

  0  0  0  0  0  0  0  0  0  0999 V3000
M  V30 BEGIN CTAB
M  V30 COUNTS 46 50 0 0 0
M  V30 BEGIN ATOM
M  V30 1 C 0.956918 -4.659178 5.925701 0
M  V30 2 C 1.313714 -5.418527 5.042049 0
M  V30 3 C 1.753693 -6.340620 3.969057 0
M  V30 4 O 2.434384 -5.645869 2.939756 0
M  V30 5 C 1.870940 -4.641827 2.197480 0
M  V30 6 C 2.645747 -4.048636 1.223064 0
M  V30 7 C 2.123072 -3.033586 0.450582 0
M  V30 8 C 0.840194 -2.542574 0.574215 0
M  V30 9 C 0.033689 -1.565239 -0.021133 0
M  V30 10 C 0.518319 -0.742857 -1.111115 0
M  V30 11 C 0.523396 0.578779 -1.353695 0
M  V30 12 C 0.046499 1.746049 -0.634867 0
M  V30 13 C 0.896869 2.770414 -0.252852 0
M  V30 14 N 0.227341 3.764484 0.379493 0
M  V30 15 C 0.780581 4.983675 0.915760 0
M  V30 16 C -1.069896 3.428556 0.431196 0
M  V30 17 C -2.233865 4.019607 0.925893 0
M  V30 18 C -3.478361 3.390600 0.798603 0
M  V30 19 C -3.555607 2.159171 0.170599 0
M  V30 20 Br -5.260496 1.286416 -0.011475 0
M  V30 21 C -2.394247 1.595620 -0.308371 0
M  V30 22 C -1.171701 2.202396 -0.187467 0
M  V30 23 C 1.151261 0.826744 -2.668658 0
M  V30 24 O 1.355508 1.930670 -3.274978 0
M  V30 25 N 1.545032 -0.423313 -3.249903 0
M  V30 26 C 1.150403 -1.382402 -2.284279 0
M  V30 27 O 1.394932 -2.602828 -2.573710 0
M  V30 28 C -1.132716 -1.708722 0.689224 0
M  V30 29 O -1.076549 -2.642189 1.603927 0
M  V30 30 C 0.116444 -3.183186 1.572013 0
M  V30 31 C 0.578356 -4.201060 2.377409 0
M  V30 32 H 0.634772 -4.003126 6.694786 0
M  V30 33 H 2.381449 -7.117433 4.413164 0
M  V30 34 H 0.808387 -6.764444 3.546950 0
M  V30 35 H 3.657271 -4.383218 1.073349 0
M  V30 36 H 2.773596 -2.607828 -0.276650 0
M  V30 37 H 1.977877 2.812186 -0.419988 0
M  V30 38 H 0.996211 5.736880 0.148630 0
M  V30 39 H 1.742876 4.761926 1.457702 0
M  V30 40 H 0.100719 5.406983 1.688320 0
M  V30 41 H -2.162337 4.991646 1.419112 0
M  V30 42 H -4.362457 3.888530 1.196422 0
M  V30 43 H -2.496155 0.650600 -0.806972 0
M  V30 44 H 2.013622 -0.526451 -4.180385 0
M  V30 45 H -2.018614 -1.139166 0.542800 0
M  V30 46 H -0.042776 -4.654124 3.137145 0
M  V30 END ATOM
M  V30 BEGIN BOND
M  V30 1 3 1 2
M  V30 2 1 2 3
M  V30 3 1 3 4
M  V30 4 1 4 5
M  V30 5 2 5 6
M  V30 6 1 6 7
M  V30 7 2 7 8
M  V30 8 1 8 9
M  V30 9 1 9 10
M  V30 10 2 10 11
M  V30 11 1 11 12
M  V30 12 2 12 13
M  V30 13 1 13 14
M  V30 14 1 14 15
M  V30 15 1 14 16
M  V30 16 2 16 17
M  V30 17 1 17 18
M  V30 18 2 18 19
M  V30 19 1 19 20
M  V30 20 1 19 21
M  V30 21 2 21 22
M  V30 22 1 11 23
M  V30 23 2 23 24
M  V30 24 1 23 25
M  V30 25 1 25 26
M  V30 26 2 26 27
M  V30 27 2 9 28
M  V30 28 1 28 29
M  V30 29 1 29 30
M  V30 30 2 30 31
M  V30 31 1 31 5
M  V30 32 1 30 8
M  V30 33 1 26 10
M  V30 34 1 22 12
M  V30 35 1 22 16
M  V30 36 1 1 32
M  V30 37 1 3 33
M  V30 38 1 3 34
M  V30 39 1 6 35
M  V30 40 1 7 36
M  V30 41 1 13 37
M  V30 42 1 15 38
M  V30 43 1 15 39
M  V30 44 1 15 40
M  V30 45 1 17 41
M  V30 46 1 18 42
M  V30 47 1 21 43
M  V30 48 1 25 44
M  V30 49 1 28 45
M  V30 50 1 31 46
M  V30 END BOND
M  V30 END CTAB
M  END
>  <Dataset>  (866) 
ChEMBL_Kinases

>  <Ligand_Instance>  (866) 
nan

>  <PDB_ID>  (866) 
nan

>  <Standardized_SMILES>  (866) 
C#CCOc1ccc2c(C3=C(c4cn(C)c5ccc(Br)cc45)C(=O)NC3=O)coc2c1

>  <Name>  (866) 
nan

>  <Pocket>  (866) 
nan

>  <ATP_Site>  (866) 
nan

>  <Peripheral>  (866) 
nan

>  <Num_H_Atoms_ProtBoundConf>  (866) 
nan

>  <Num_Resolved_Atoms>  (866) 
nan

>  <Num_Not_Resolved_Atoms>  (866) 
nan

$$$$
CHEMBL605198
     RDKit          3D

  0  0  0  0  0  0  0  0  0  0999 V3000
M  V30 BEGIN CTAB
M  V30 COUNTS 62 66 0 0 0
M  V30 BEGIN ATOM
M  V30 1 C 2.421246 -1.702948 7.107413 0
M  V30 2 C 1.929053 -0.557489 6.303550 0
M  V30 3 C 2.608502 0.638949 6.323401 0
M  V30 4 C 2.170208 1.716792 5.584249 0
M  V30 5 C 1.048550 1.698154 4.782798 0
M  V30 6 C 0.675797 2.916362 4.107633 0
M  V30 7 N 1.181781 4.103459 4.466723 0
M  V30 8 C 0.679140 5.072606 3.690347 0
M  V30 9 C 0.937950 6.539361 3.704480 0
M  V30 10 F -0.191783 7.250691 3.964669 0
M  V30 11 F 1.487535 6.950578 2.488669 0
M  V30 12 F 1.928213 6.817415 4.645794 0
M  V30 13 N -0.133435 4.458122 2.858831 0
M  V30 14 C -0.173270 3.104492 3.072194 0
M  V30 15 C -0.904034 2.268203 2.189384 0
M  V30 16 O -1.994215 2.774379 1.719609 0
M  V30 17 N -0.749126 0.990728 1.664309 0
M  V30 18 C -1.491931 0.171655 0.789386 0
M  V30 19 C -2.678088 0.473178 0.185050 0
M  V30 20 C -3.395832 -0.335263 -0.668006 0
M  V30 21 C -2.852811 -1.573869 -0.932674 0
M  V30 22 C -3.591874 -2.485063 -1.843795 0
M  V30 23 C -1.658395 -1.955912 -0.362871 0
M  V30 24 N -1.112860 -3.240391 -0.646282 0
M  V30 25 C -0.689043 -3.878668 -1.846514 0
M  V30 26 C -0.259907 -5.187460 -1.808768 0
M  V30 27 C 0.133567 -5.729720 -3.006119 0
M  V30 28 C 0.125436 -5.054232 -4.225259 0
M  V30 29 N 0.520089 -5.625931 -5.376730 0
M  V30 30 C 0.501968 -4.947423 -6.547465 0
M  V30 31 N 0.083482 -3.669413 -6.585872 0
M  V30 32 C 0.011120 -2.824264 -7.770051 0
M  V30 33 C -0.318949 -3.071253 -5.439845 0
M  V30 34 O -0.720189 -1.881505 -5.411626 0
M  V30 35 C -0.312143 -3.738478 -4.226980 0
M  V30 36 C -0.712323 -3.174702 -3.032185 0
M  V30 37 C -1.016316 -1.084822 0.473109 0
M  V30 38 C 0.419449 0.479077 4.810053 0
M  V30 39 C 0.800489 -0.633327 5.520966 0
M  V30 40 H 3.187278 -2.261628 6.568866 0
M  V30 41 H 1.560385 -2.398747 7.282215 0
M  V30 42 H 2.877315 -1.381240 8.064206 0
M  V30 43 H 3.479263 0.701189 6.925161 0
M  V30 44 H 2.802757 2.613820 5.687002 0
M  V30 45 H 1.877415 4.367866 5.228272 0
M  V30 46 H 0.162379 0.582531 2.008680 0
M  V30 47 H -3.143766 1.429822 0.360238 0
M  V30 48 H -4.326636 -0.043737 -1.115796 0
M  V30 49 H -4.687050 -2.496658 -1.594343 0
M  V30 50 H -3.255426 -3.526025 -1.673463 0
M  V30 51 H -3.486493 -2.231843 -2.912204 0
M  V30 52 H -1.045055 -3.749793 0.269969 0
M  V30 53 H -0.227404 -5.773016 -0.898239 0
M  V30 54 H 0.481036 -6.742115 -3.066868 0
M  V30 55 H 0.811278 -5.375217 -7.486077 0
M  V30 56 H 0.303958 -1.788184 -7.508585 0
M  V30 57 H 0.548626 -3.239912 -8.635410 0
M  V30 58 H -1.078755 -2.784649 -8.022161 0
M  V30 59 H -1.030703 -2.155030 -3.132806 0
M  V30 60 H -0.072571 -1.453737 0.890610 0
M  V30 61 H -0.484865 0.361090 4.246327 0
M  V30 62 H 0.238800 -1.549094 5.476543 0
M  V30 END ATOM
M  V30 BEGIN BOND
M  V30 1 1 1 2
M  V30 2 2 2 3
M  V30 3 1 3 4
M  V30 4 2 4 5
M  V30 5 1 5 6
M  V30 6 1 6 7
M  V30 7 1 7 8
M  V30 8 1 8 9
M  V30 9 1 9 10
M  V30 10 1 9 11
M  V30 11 1 9 12
M  V30 12 2 8 13
M  V30 13 1 13 14
M  V30 14 1 14 15
M  V30 15 2 15 16
M  V30 16 1 15 17
M  V30 17 1 17 18
M  V30 18 2 18 19
M  V30 19 1 19 20
M  V30 20 2 20 21
M  V30 21 1 21 22
M  V30 22 1 21 23
M  V30 23 1 23 24
M  V30 24 1 24 25
M  V30 25 2 25 26
M  V30 26 1 26 27
M  V30 27 2 27 28
M  V30 28 1 28 29
M  V30 29 2 29 30
M  V30 30 1 30 31
M  V30 31 1 31 32
M  V30 32 1 31 33
M  V30 33 2 33 34
M  V30 34 1 33 35
M  V30 35 2 35 36
M  V30 36 2 23 37
M  V30 37 1 5 38
M  V30 38 2 38 39
M  V30 39 1 39 2
M  V30 40 2 14 6
M  V30 41 1 37 18
M  V30 42 1 36 25
M  V30 43 1 35 28
M  V30 44 1 1 40
M  V30 45 1 1 41
M  V30 46 1 1 42
M  V30 47 1 3 43
M  V30 48 1 4 44
M  V30 49 1 7 45
M  V30 50 1 17 46
M  V30 51 1 19 47
M  V30 52 1 20 48
M  V30 53 1 22 49
M  V30 54 1 22 50
M  V30 55 1 22 51
M  V30 56 1 24 52
M  V30 57 1 26 53
M  V30 58 1 27 54
M  V30 59 1 30 55
M  V30 60 1 32 56
M  V30 61 1 32 57
M  V30 62 1 32 58
M  V30 63 1 36 59
M  V30 64 1 37 60
M  V30 65 1 38 61
M  V30 66 1 39 62
M  V30 END BOND
M  V30 END CTAB
M  END
>  <Dataset>  (867) 
ChEMBL_Kinases

>  <Ligand_Instance>  (867) 
nan

>  <PDB_ID>  (867) 
nan

>  <Standardized_SMILES>  (867) 
Cc1ccc(-c2[nH]c(C(F)(F)F)nc2C(=O)Nc2ccc(C)c(Nc3ccc4ncn(C)c(=O)c4c3)c2)cc1

>  <Name>  (867) 
nan

>  <Pocket>  (867) 
nan

>  <ATP_Site>  (867) 
nan

>  <Peripheral>  (867) 
nan

>  <Num_H_Atoms_ProtBoundConf>  (867) 
nan

>  <Num_Resolved_Atoms>  (867) 
nan

>  <Num_Not_Resolved_Atoms>  (867) 
nan

$$$$
CHEMBL488705
     RDKit          3D

  0  0  0  0  0  0  0  0  0  0999 V3000
M  V30 BEGIN CTAB
M  V30 COUNTS 53 54 0 0 0
M  V30 BEGIN ATOM
M  V30 1 C 0.708989 0.107927 6.759735 0
M  V30 2 C 1.348274 -0.496305 5.532811 0
M  V30 3 C 2.124682 0.585429 4.816966 0
M  V30 4 C 2.762350 -0.029807 3.586150 0
M  V30 5 C 3.552328 0.989518 2.823960 0
M  V30 6 C 4.204372 0.427061 1.613819 0
M  V30 7 C 3.325254 -0.151645 0.604004 0
M  V30 8 O 2.810569 -1.225104 0.954084 0
M  V30 9 O 3.100680 0.410898 -0.564885 0
M  V30 10 C 2.371994 0.182069 -1.707079 0
M  V30 11 C 0.905419 0.203801 -1.476170 0
M  V30 12 C 0.404045 1.483132 -0.874957 0
M  V30 13 O 0.640286 2.578416 -1.699975 0
M  V30 14 C 0.462590 -1.012975 -0.719473 0
M  V30 15 C -0.877145 -1.307143 -1.353680 0
M  V30 16 C -1.650505 -2.341468 -0.991973 0
M  V30 17 C -2.915541 -2.601260 -1.611384 0
M  V30 18 C -3.967870 -2.894920 -0.731909 0
M  V30 19 C -5.249346 -3.188887 -1.150544 0
M  V30 20 C -5.506278 -3.193693 -2.506026 0
M  V30 21 N -6.820648 -3.492934 -2.987735 0 CHG=1 VAL=4
M  V30 22 O -7.727890 -3.746735 -2.168026 0
M  V30 23 O -7.049246 -3.491808 -4.345284 0 CHG=-1 VAL=1
M  V30 24 C -4.507200 -2.911580 -3.433913 0
M  V30 25 C -3.258188 -2.629782 -2.922052 0
M  V30 26 C -1.131194 -0.278583 -2.346298 0
M  V30 27 O -2.341931 0.037059 -2.582555 0
M  V30 28 O 0.189495 0.040227 -2.736910 0
M  V30 29 H 1.466309 0.680465 7.352571 0
M  V30 30 H 0.267237 -0.660008 7.426569 0
M  V30 31 H -0.074975 0.836920 6.476629 0
M  V30 32 H 2.002691 -1.318597 5.889633 0
M  V30 33 H 0.569655 -0.954644 4.914404 0
M  V30 34 H 2.953886 0.890745 5.489979 0
M  V30 35 H 1.452678 1.411265 4.576112 0
M  V30 36 H 1.947462 -0.447572 2.952402 0
M  V30 37 H 3.415142 -0.842149 3.898881 0
M  V30 38 H 2.971324 1.902090 2.582830 0
M  V30 39 H 4.347997 1.350079 3.528452 0
M  V30 40 H 4.841473 1.194290 1.125692 0
M  V30 41 H 4.936758 -0.380439 1.908989 0
M  V30 42 H 2.662005 0.965379 -2.460373 0
M  V30 43 H 2.593294 -0.823758 -2.175754 0
M  V30 44 H 0.995734 1.678022 0.062464 0
M  V30 45 H -0.675141 1.461434 -0.660837 0
M  V30 46 H 0.022190 3.320393 -1.556828 0
M  V30 47 H 1.057278 -1.902427 -0.918110 0
M  V30 48 H 0.268240 -0.738107 0.315032 0
M  V30 49 H -1.339051 -3.040412 -0.194661 0
M  V30 50 H -3.823267 -2.905664 0.347783 0
M  V30 51 H -6.038755 -3.411151 -0.450244 0
M  V30 52 H -4.669852 -2.906817 -4.509592 0
M  V30 53 H -2.472592 -2.424225 -3.635122 0
M  V30 END ATOM
M  V30 BEGIN BOND
M  V30 1 1 1 2
M  V30 2 1 2 3
M  V30 3 1 3 4
M  V30 4 1 4 5
M  V30 5 1 5 6
M  V30 6 1 6 7
M  V30 7 2 7 8
M  V30 8 1 7 9
M  V30 9 1 9 10
M  V30 10 1 10 11
M  V30 11 1 11 12
M  V30 12 1 12 13
M  V30 13 1 11 14
M  V30 14 1 14 15
M  V30 15 2 15 16
M  V30 16 1 16 17
M  V30 17 2 17 18
M  V30 18 1 18 19
M  V30 19 2 19 20
M  V30 20 1 20 21
M  V30 21 2 21 22
M  V30 22 1 21 23
M  V30 23 1 20 24
M  V30 24 2 24 25
M  V30 25 1 15 26
M  V30 26 2 26 27
M  V30 27 1 26 28
M  V30 28 1 28 11
M  V30 29 1 25 17
M  V30 30 1 1 29
M  V30 31 1 1 30
M  V30 32 1 1 31
M  V30 33 1 2 32
M  V30 34 1 2 33
M  V30 35 1 3 34
M  V30 36 1 3 35
M  V30 37 1 4 36
M  V30 38 1 4 37
M  V30 39 1 5 38
M  V30 40 1 5 39
M  V30 41 1 6 40
M  V30 42 1 6 41
M  V30 43 1 10 42
M  V30 44 1 10 43
M  V30 45 1 12 44
M  V30 46 1 12 45
M  V30 47 1 13 46
M  V30 48 1 14 47
M  V30 49 1 14 48
M  V30 50 1 16 49
M  V30 51 1 18 50
M  V30 52 1 19 51
M  V30 53 1 24 52
M  V30 54 1 25 53
M  V30 END BOND
M  V30 END CTAB
M  END
>  <Dataset>  (868) 
ChEMBL_Kinases

>  <Ligand_Instance>  (868) 
nan

>  <PDB_ID>  (868) 
nan

>  <Standardized_SMILES>  (868) 
CCCCCCC(=O)OCC1(CO)C/C(=C/c2ccc([N+](=O)[O-])cc2)C(=O)O1

>  <Name>  (868) 
nan

>  <Pocket>  (868) 
nan

>  <ATP_Site>  (868) 
nan

>  <Peripheral>  (868) 
nan

>  <Num_H_Atoms_ProtBoundConf>  (868) 
nan

>  <Num_Resolved_Atoms>  (868) 
nan

>  <Num_Not_Resolved_Atoms>  (868) 
nan

$$$$
CHEMBL489812
     RDKit          3D

  0  0  0  0  0  0  0  0  0  0999 V3000
M  V30 BEGIN CTAB
M  V30 COUNTS 50 54 0 0 0
M  V30 BEGIN ATOM
M  V30 1 C 3.418308 -4.344716 1.723907 0
M  V30 2 N 4.758449 -4.316565 1.121333 0
M  V30 3 C 5.604591 -5.426949 1.581419 0
M  V30 4 C 5.175896 -3.295006 0.182424 0
M  V30 5 O 6.363920 -3.441682 -0.218574 0
M  V30 6 C 4.107557 -2.322266 -0.080445 0
M  V30 7 C 3.914528 -1.456865 0.973109 0
M  V30 8 C 2.914352 -0.473943 0.915994 0
M  V30 9 C 2.168963 -0.466809 -0.269958 0
M  V30 10 C 1.128277 0.583259 -0.259860 0
M  V30 11 C 1.342486 1.779650 0.389091 0
M  V30 12 C 0.283564 2.665053 0.364334 0
M  V30 13 C -0.942846 2.423996 -0.257393 0
M  V30 14 O -1.966420 3.389318 -0.230499 0
M  V30 15 C -3.265956 3.026078 -0.649146 0
M  V30 16 C -3.897252 3.613585 -1.704470 0
M  V30 17 N -5.113628 3.338021 -2.168956 0
M  V30 18 C -5.831417 2.388815 -1.565294 0
M  V30 19 C -5.210996 1.788100 -0.499731 0
M  V30 20 S -5.858115 0.414474 0.634151 0
M  V30 21 C -4.345974 0.337672 1.684159 0
M  V30 22 C -4.097208 -0.501119 2.802070 0
M  V30 23 N -2.912409 -0.983900 3.131830 0
M  V30 24 N -3.092676 -1.712804 4.233148 0
M  V30 25 N -4.368715 -1.697397 4.601479 0
M  V30 26 N -4.989211 -0.940640 3.706321 0
M  V30 27 C -3.495008 1.308560 1.132751 0
M  V30 28 C -3.914216 2.032843 0.049356 0
M  V30 29 C -1.047839 1.195652 -0.876399 0
M  V30 30 C -0.044465 0.250228 -0.903495 0
M  V30 31 C 2.360017 -1.330203 -1.327312 0
M  V30 32 C 3.351864 -2.281166 -1.233337 0
M  V30 33 H 3.520965 -3.848678 2.694035 0
M  V30 34 H 2.699438 -3.844472 1.026606 0
M  V30 35 H 3.094491 -5.386358 1.875310 0
M  V30 36 H 5.164943 -6.408939 1.267179 0
M  V30 37 H 6.636619 -5.326520 1.209756 0
M  V30 38 H 5.607020 -5.387735 2.697982 0
M  V30 39 H 4.503286 -1.469717 1.898880 0
M  V30 40 H 2.756364 0.198690 1.731667 0
M  V30 41 H 2.263271 2.000017 0.875218 0
M  V30 42 H 0.361379 3.635050 0.852518 0
M  V30 43 H -3.360996 4.407851 -2.253276 0
M  V30 44 H -6.816584 1.988685 -1.741231 0
M  V30 45 H -4.539463 -2.258204 5.458512 0
M  V30 46 H -2.538454 1.427814 1.604230 0
M  V30 47 H -2.000449 0.990100 -1.368082 0
M  V30 48 H -0.258147 -0.662104 -1.422187 0
M  V30 49 H 1.739532 -1.249194 -2.205819 0
M  V30 50 H 3.569887 -2.990995 -2.014041 0
M  V30 END ATOM
M  V30 BEGIN BOND
M  V30 1 1 1 2
M  V30 2 1 2 3
M  V30 3 1 2 4
M  V30 4 2 4 5
M  V30 5 1 4 6
M  V30 6 2 6 7
M  V30 7 1 7 8
M  V30 8 2 8 9
M  V30 9 1 9 10
M  V30 10 2 10 11
M  V30 11 1 11 12
M  V30 12 2 12 13
M  V30 13 1 13 14
M  V30 14 1 14 15
M  V30 15 2 15 16
M  V30 16 1 16 17
M  V30 17 2 17 18
M  V30 18 1 18 19
M  V30 19 1 19 20
M  V30 20 1 20 21
M  V30 21 1 21 22
M  V30 22 1 22 23
M  V30 23 2 23 24
M  V30 24 1 24 25
M  V30 25 1 25 26
M  V30 26 2 21 27
M  V30 27 1 27 28
M  V30 28 1 13 29
M  V30 29 2 29 30
M  V30 30 1 9 31
M  V30 31 2 31 32
M  V30 32 1 32 6
M  V30 33 1 30 10
M  V30 34 1 28 15
M  V30 35 2 28 19
M  V30 36 2 26 22
M  V30 37 1 1 33
M  V30 38 1 1 34
M  V30 39 1 1 35
M  V30 40 1 3 36
M  V30 41 1 3 37
M  V30 42 1 3 38
M  V30 43 1 7 39
M  V30 44 1 8 40
M  V30 45 1 11 41
M  V30 46 1 12 42
M  V30 47 1 16 43
M  V30 48 1 18 44
M  V30 49 1 25 45
M  V30 50 1 27 46
M  V30 51 1 29 47
M  V30 52 1 30 48
M  V30 53 1 31 49
M  V30 54 1 32 50
M  V30 END BOND
M  V30 END CTAB
M  END
>  <Dataset>  (869) 
ChEMBL_Kinases

>  <Ligand_Instance>  (869) 
nan

>  <PDB_ID>  (869) 
nan

>  <Standardized_SMILES>  (869) 
CN(C)C(=O)c1ccc(-c2ccc(Oc3cncc4sc(-c5nn[nH]n5)cc34)cc2)cc1

>  <Name>  (869) 
nan

>  <Pocket>  (869) 
nan

>  <ATP_Site>  (869) 
nan

>  <Peripheral>  (869) 
nan

>  <Num_H_Atoms_ProtBoundConf>  (869) 
nan

>  <Num_Resolved_Atoms>  (869) 
nan

>  <Num_Not_Resolved_Atoms>  (869) 
nan

$$$$
CHEMBL489128
     RDKit          3D

  0  0  0  0  0  0  0  0  0  0999 V3000
M  V30 BEGIN CTAB
M  V30 COUNTS 53 57 0 0 0
M  V30 BEGIN ATOM
M  V30 1 C 0.909740 -4.980592 3.780287 0
M  V30 2 N 2.083024 -4.846352 2.901319 0
M  V30 3 C 2.683890 -3.591231 3.208821 0
M  V30 4 C 3.524277 -2.996734 2.134586 0
M  V30 5 C 2.983288 -3.100530 0.745539 0
M  V30 6 C 1.998934 -2.070395 0.380224 0
M  V30 7 C 2.293615 -1.284399 -0.743208 0
M  V30 8 C 1.443182 -0.266279 -1.192929 0
M  V30 9 C 0.262954 0.000116 -0.529269 0
M  V30 10 C -0.779944 0.892056 -0.677232 0
M  V30 11 C -0.886108 1.902576 -1.722053 0
M  V30 12 C -1.796610 2.052782 -2.744199 0
M  V30 13 C -1.660749 3.124440 -3.610228 0
M  V30 14 N -0.664462 4.022284 -3.479942 0
M  V30 15 C 0.238270 3.899530 -2.490152 0
M  V30 16 C 0.142028 2.845415 -1.603196 0
M  V30 17 C -1.694486 0.661827 0.329099 0
M  V30 18 C -2.959796 1.326476 0.616400 0
M  V30 19 C -4.140582 1.373779 -0.081358 0
M  V30 20 C -5.201176 2.093128 0.424492 0
M  V30 21 C -5.149158 2.782830 1.613021 0
M  V30 22 F -6.264942 3.460045 2.008837 0
M  V30 23 C -3.964531 2.745664 2.330162 0
M  V30 24 C -2.899780 2.027610 1.829137 0
M  V30 25 N -1.247818 -0.360932 1.111021 0
M  V30 26 C -0.059829 -0.754033 0.580852 0
M  V30 27 C 0.810161 -1.742806 0.982226 0
M  V30 28 C 2.530768 -4.516142 0.505523 0
M  V30 29 C 1.618884 -5.021505 1.558340 0
M  V30 30 H 1.189862 -5.535816 4.699281 0
M  V30 31 H 0.056122 -5.459884 3.233411 0
M  V30 32 H 0.524075 -3.979907 4.086610 0
M  V30 33 H 1.960077 -2.866522 3.674025 0
M  V30 34 H 3.394016 -3.800694 4.072715 0
M  V30 35 H 3.774300 -1.955751 2.426494 0
M  V30 36 H 4.491717 -3.580918 2.130141 0
M  V30 37 H 3.889398 -2.937707 0.069110 0
M  V30 38 H 3.190887 -1.400853 -1.345335 0
M  V30 39 H 1.687490 0.327658 -2.059353 0
M  V30 40 H -2.531641 1.281488 -2.741244 0
M  V30 41 H -2.439819 3.127758 -4.369225 0
M  V30 42 H 1.007546 4.670186 -2.462169 0
M  V30 43 H 0.929362 2.867573 -0.860968 0
M  V30 44 H -4.089983 0.804840 -0.997639 0
M  V30 45 H -6.082149 2.047397 -0.230503 0
M  V30 46 H -3.936357 3.288146 3.256775 0
M  V30 47 H -2.019273 2.077414 2.489277 0
M  V30 48 H -1.721703 -0.775873 1.963708 0
M  V30 49 H 0.546858 -2.314670 1.846304 0
M  V30 50 H 3.471929 -5.137989 0.579548 0
M  V30 51 H 2.059541 -4.646435 -0.489675 0
M  V30 52 H 1.506362 -6.144124 1.427398 0
M  V30 53 H 0.574403 -4.647927 1.502799 0
M  V30 END ATOM
M  V30 BEGIN BOND
M  V30 1 1 1 2
M  V30 2 1 2 3
M  V30 3 1 3 4
M  V30 4 1 4 5
M  V30 5 1 5 6
M  V30 6 2 6 7
M  V30 7 1 7 8
M  V30 8 2 8 9
M  V30 9 1 9 10
M  V30 10 1 10 11
M  V30 11 2 11 12
M  V30 12 1 12 13
M  V30 13 2 13 14
M  V30 14 1 14 15
M  V30 15 2 15 16
M  V30 16 2 10 17
M  V30 17 1 17 18
M  V30 18 2 18 19
M  V30 19 1 19 20
M  V30 20 2 20 21
M  V30 21 1 21 22
M  V30 22 1 21 23
M  V30 23 2 23 24
M  V30 24 1 17 25
M  V30 25 1 25 26
M  V30 26 2 26 27
M  V30 27 1 5 28
M  V30 28 1 28 29
M  V30 29 1 29 2
M  V30 30 1 27 6
M  V30 31 1 26 9
M  V30 32 1 16 11
M  V30 33 1 24 18
M  V30 34 1 1 30
M  V30 35 1 1 31
M  V30 36 1 1 32
M  V30 37 1 3 33
M  V30 38 1 3 34
M  V30 39 1 4 35
M  V30 40 1 4 36
M  V30 41 1 5 37
M  V30 42 1 7 38
M  V30 43 1 8 39
M  V30 44 1 12 40
M  V30 45 1 13 41
M  V30 46 1 15 42
M  V30 47 1 16 43
M  V30 48 1 19 44
M  V30 49 1 20 45
M  V30 50 1 23 46
M  V30 51 1 24 47
M  V30 52 1 25 48
M  V30 53 1 27 49
M  V30 54 1 28 50
M  V30 55 1 28 51
M  V30 56 1 29 52
M  V30 57 1 29 53
M  V30 END BOND
M  V30 END CTAB
M  END
>  <Dataset>  (870) 
ChEMBL_Kinases

>  <Ligand_Instance>  (870) 
nan

>  <PDB_ID>  (870) 
nan

>  <Standardized_SMILES>  (870) 
CN1CCC(c2ccc3c(-c4ccncc4)c(-c4ccc(F)cc4)[nH]c3c2)CC1

>  <Name>  (870) 
nan

>  <Pocket>  (870) 
nan

>  <ATP_Site>  (870) 
nan

>  <Peripheral>  (870) 
nan

>  <Num_H_Atoms_ProtBoundConf>  (870) 
nan

>  <Num_Resolved_Atoms>  (870) 
nan

>  <Num_Not_Resolved_Atoms>  (870) 
nan

$$$$
CHEMBL4877595
     RDKit          3D

  0  0  0  0  0  0  0  0  0  0999 V3000
M  V30 BEGIN CTAB
M  V30 COUNTS 46 47 0 0 0
M  V30 BEGIN ATOM
M  V30 1 C 0.089764 -4.608710 3.198496 0
M  V30 2 C -0.032859 -3.327804 2.392504 0
M  V30 3 O -1.122257 -3.360067 1.509871 0
M  V30 4 C -1.350863 -2.244503 0.707446 0
M  V30 5 C -0.538167 -1.122833 0.762341 0
M  V30 6 C -0.757029 -0.011680 -0.029584 0
M  V30 7 N 0.065384 1.149303 0.011797 0
M  V30 8 C 1.211830 1.414233 -0.752481 0
M  V30 9 O 1.739007 0.659160 -1.636404 0
M  V30 10 C 1.973828 2.672117 -0.603681 0 CFG=2
M  V30 11 N 3.106200 2.685704 -1.506892 0
M  V30 12 C 2.311808 3.047389 0.794254 0
M  V30 13 C 3.146293 2.071015 1.555351 0
M  V30 14 C 3.352093 2.684872 2.948848 0
M  V30 15 C 2.527744 0.738467 1.789638 0
M  V30 16 C -1.818321 0.000973 -0.913733 0
M  V30 17 C -2.655039 -1.097909 -1.001024 0
M  V30 18 C -2.399318 -2.186841 -0.190838 0
M  V30 19 C -3.280955 -3.344669 -0.282695 0
M  V30 20 C -4.382706 -3.508731 -1.103289 0
M  V30 21 N -4.941384 -4.734514 -0.890764 0
M  V30 22 C -4.159090 -5.282096 0.057240 0
M  V30 23 O -3.180550 -4.462299 0.415202 0
M  V30 24 H -0.253629 -5.494812 2.638368 0
M  V30 25 H -0.483199 -4.495604 4.153478 0
M  V30 26 H 1.147390 -4.784041 3.500306 0
M  V30 27 H 0.949142 -3.171110 1.897330 0
M  V30 28 H -0.159730 -2.500199 3.126546 0
M  V30 29 H 0.306205 -1.099462 1.447400 0
M  V30 30 H -0.256160 1.864635 0.705669 0
M  V30 31 H 1.297648 3.481152 -0.985249 0
M  V30 32 H 2.873306 2.061381 -2.307688 0
M  V30 33 H 3.388115 3.619831 -1.831404 0
M  V30 34 H 1.363302 3.306036 1.308697 0
M  V30 35 H 2.872001 4.003862 0.740570 0
M  V30 36 H 4.138179 1.984277 1.087265 0
M  V30 37 H 4.243839 2.240553 3.452898 0
M  V30 38 H 2.490841 2.355424 3.599446 0
M  V30 39 H 3.400795 3.786243 2.909596 0
M  V30 40 H 3.192164 0.219878 2.542648 0
M  V30 41 H 1.568106 0.869316 2.356536 0
M  V30 42 H 2.470488 0.060112 0.943217 0
M  V30 43 H -2.012810 0.873794 -1.554449 0
M  V30 44 H -3.465437 -1.046732 -1.699023 0
M  V30 45 H -4.680462 -2.720114 -1.783303 0
M  V30 46 H -4.407211 -6.291468 0.407446 0
M  V30 END ATOM
M  V30 BEGIN BOND
M  V30 1 1 1 2
M  V30 2 1 2 3
M  V30 3 1 3 4
M  V30 4 2 4 5
M  V30 5 1 5 6
M  V30 6 1 6 7
M  V30 7 1 7 8
M  V30 8 2 8 9
M  V30 9 1 8 10
M  V30 10 1 10 11
M  V30 11 1 10 12
M  V30 12 1 12 13
M  V30 13 1 13 14
M  V30 14 1 13 15
M  V30 15 2 6 16
M  V30 16 1 16 17
M  V30 17 2 17 18
M  V30 18 1 18 19
M  V30 19 2 19 20
M  V30 20 1 20 21
M  V30 21 2 21 22
M  V30 22 1 22 23
M  V30 23 1 18 4
M  V30 24 1 23 19
M  V30 25 1 1 24
M  V30 26 1 1 25
M  V30 27 1 1 26
M  V30 28 1 2 27
M  V30 29 1 2 28
M  V30 30 1 5 29
M  V30 31 1 7 30
M  V30 32 1 10 31 CFG=3
M  V30 33 1 11 32
M  V30 34 1 11 33
M  V30 35 1 12 34
M  V30 36 1 12 35
M  V30 37 1 13 36
M  V30 38 1 14 37
M  V30 39 1 14 38
M  V30 40 1 14 39
M  V30 41 1 15 40
M  V30 42 1 15 41
M  V30 43 1 15 42
M  V30 44 1 16 43
M  V30 45 1 17 44
M  V30 46 1 20 45
M  V30 47 1 22 46
M  V30 END BOND
M  V30 END CTAB
M  END
>  <Dataset>  (871) 
ChEMBL_Kinases

>  <Ligand_Instance>  (871) 
nan

>  <PDB_ID>  (871) 
nan

>  <Standardized_SMILES>  (871) 
CCOc1cc(NC(=O)[C@H](N)CC(C)C)ccc1-c1cnco1

>  <Name>  (871) 
nan

>  <Pocket>  (871) 
nan

>  <ATP_Site>  (871) 
nan

>  <Peripheral>  (871) 
nan

>  <Num_H_Atoms_ProtBoundConf>  (871) 
nan

>  <Num_Resolved_Atoms>  (871) 
nan

>  <Num_Not_Resolved_Atoms>  (871) 
nan

$$$$
CHEMBL489058
     RDKit          3D

  0  0  0  0  0  0  0  0  0  0999 V3000
M  V30 BEGIN CTAB
M  V30 COUNTS 71 75 0 0 0
M  V30 BEGIN ATOM
M  V30 1 C 0.272469 -2.351662 1.440196 0
M  V30 2 C 0.985461 -3.680722 1.239804 0
M  V30 3 N 0.618752 -4.199360 -0.028308 0
M  V30 4 C 1.203976 -5.453250 -0.395414 0
M  V30 5 C 1.300407 -5.484508 -1.925210 0
M  V30 6 N 0.363178 -4.541311 -2.436863 0
M  V30 7 C 0.427915 -4.246566 -3.820741 0
M  V30 8 C 1.709730 -3.480593 -4.103354 0
M  V30 9 C 1.612955 -2.241331 -3.265105 0
M  V30 10 C 2.461067 -1.905649 -2.338585 0
M  V30 11 C 2.351874 -0.697988 -1.532582 0
M  V30 12 C 1.328885 0.210127 -1.662097 0
M  V30 13 C 1.231925 1.352378 -0.896295 0
M  V30 14 C 2.203533 1.624163 0.062269 0
M  V30 15 C 2.166810 2.756604 0.865615 0
M  V30 16 N 1.052018 3.607512 0.626436 0
M  V30 17 C -0.111514 3.361116 1.402162 0
M  V30 18 C -0.179574 2.354950 2.348516 0
M  V30 19 C -1.302492 2.105653 3.109714 0
M  V30 20 C -2.445225 2.892026 2.939588 0
M  V30 21 S -3.804320 2.439578 4.003137 0
M  V30 22 C -4.862707 1.214103 3.261625 0
M  V30 23 N -4.516102 -0.076720 3.511476 0
M  V30 24 C -5.377754 -0.902545 2.908150 0
M  V30 25 C -6.276659 -0.055808 2.271189 0
M  V30 26 N -5.953888 1.217400 2.492988 0
M  V30 27 C -6.520883 2.484204 2.087753 0
M  V30 28 C -2.407818 3.903231 2.003000 0
M  V30 29 Cl -3.871046 4.827271 1.861664 0
M  V30 30 C -1.271024 4.129743 1.255888 0
M  V30 31 C 3.167913 2.959093 1.793721 0
M  V30 32 C 3.060085 4.153999 2.586745 0
M  V30 33 N 2.992242 5.113453 3.228662 0
M  V30 34 C 4.197906 2.052574 1.929768 0
M  V30 35 N 4.219396 0.953035 1.138866 0
M  V30 36 C 3.260333 0.729409 0.227904 0
M  V30 37 C 3.302047 -0.406800 -0.576432 0
M  V30 38 C -0.919725 -4.574953 -1.827831 0
M  V30 39 C -0.772033 -4.090312 -0.379169 0
M  V30 40 H -0.779728 -2.531979 1.685553 0
M  V30 41 H 0.800882 -1.753655 2.214705 0
M  V30 42 H 0.300868 -1.735782 0.514984 0
M  V30 43 H 2.088293 -3.468182 1.209905 0
M  V30 44 H 0.774797 -4.339953 2.087229 0
M  V30 45 H 2.236938 -5.468877 -0.018285 0
M  V30 46 H 0.628365 -6.330304 -0.047771 0
M  V30 47 H 1.019188 -6.525386 -2.249626 0
M  V30 48 H 2.314586 -5.218354 -2.243006 0
M  V30 49 H -0.450361 -3.738198 -4.230389 0
M  V30 50 H 0.455295 -5.249432 -4.348156 0
M  V30 51 H 2.622373 -4.007126 -3.819079 0
M  V30 52 H 1.699799 -3.225541 -5.187162 0
M  V30 53 H 0.772602 -1.631528 -3.486658 0
M  V30 54 H 3.283136 -2.574414 -2.175987 0
M  V30 55 H 0.559405 0.058696 -2.374306 0
M  V30 56 H 0.419869 2.045530 -1.019368 0
M  V30 57 H 1.015252 4.384210 -0.058236 0
M  V30 58 H 0.722775 1.749509 2.468498 0
M  V30 59 H -1.237244 1.285861 3.823240 0
M  V30 60 H -5.417803 -1.988753 2.884925 0
M  V30 61 H -7.147317 -0.312416 1.659193 0
M  V30 62 H -7.610158 2.331750 1.830599 0
M  V30 63 H -6.014945 2.849562 1.168795 0
M  V30 64 H -6.524082 3.196683 2.923654 0
M  V30 65 H -1.307638 4.933365 0.543223 0
M  V30 66 H 4.942213 2.295561 2.687607 0
M  V30 67 H 4.123121 -1.093137 -0.441101 0
M  V30 68 H -1.431080 -5.553971 -1.855404 0
M  V30 69 H -1.615489 -3.848592 -2.297707 0
M  V30 70 H -1.438489 -4.689518 0.282019 0
M  V30 71 H -1.066262 -3.026603 -0.271136 0
M  V30 END ATOM
M  V30 BEGIN BOND
M  V30 1 1 1 2
M  V30 2 1 2 3
M  V30 3 1 3 4
M  V30 4 1 4 5
M  V30 5 1 5 6
M  V30 6 1 6 7
M  V30 7 1 7 8
M  V30 8 1 8 9
M  V30 9 2 9 10
M  V30 10 1 10 11
M  V30 11 2 11 12
M  V30 12 1 12 13
M  V30 13 2 13 14
M  V30 14 1 14 15
M  V30 15 1 15 16
M  V30 16 1 16 17
M  V30 17 2 17 18
M  V30 18 1 18 19
M  V30 19 2 19 20
M  V30 20 1 20 21
M  V30 21 1 21 22
M  V30 22 2 22 23
M  V30 23 1 23 24
M  V30 24 2 24 25
M  V30 25 1 25 26
M  V30 26 1 26 27
M  V30 27 1 20 28
M  V30 28 1 28 29
M  V30 29 2 28 30
M  V30 30 2 15 31
M  V30 31 1 31 32
M  V30 32 3 32 33
M  V30 33 1 31 34
M  V30 34 2 34 35
M  V30 35 1 35 36
M  V30 36 2 36 37
M  V30 37 1 6 38
M  V30 38 1 38 39
M  V30 39 1 39 3
M  V30 40 1 37 11
M  V30 41 1 36 14
M  V30 42 1 30 17
M  V30 43 1 26 22
M  V30 44 1 1 40
M  V30 45 1 1 41
M  V30 46 1 1 42
M  V30 47 1 2 43
M  V30 48 1 2 44
M  V30 49 1 4 45
M  V30 50 1 4 46
M  V30 51 1 5 47
M  V30 52 1 5 48
M  V30 53 1 7 49
M  V30 54 1 7 50
M  V30 55 1 8 51
M  V30 56 1 8 52
M  V30 57 1 9 53
M  V30 58 1 10 54
M  V30 59 1 12 55
M  V30 60 1 13 56
M  V30 61 1 16 57
M  V30 62 1 18 58
M  V30 63 1 19 59
M  V30 64 1 24 60
M  V30 65 1 25 61
M  V30 66 1 27 62
M  V30 67 1 27 63
M  V30 68 1 27 64
M  V30 69 1 30 65
M  V30 70 1 34 66
M  V30 71 1 37 67
M  V30 72 1 38 68
M  V30 73 1 38 69
M  V30 74 1 39 70
M  V30 75 1 39 71
M  V30 END BOND
M  V30 END CTAB
M  END
>  <Dataset>  (872) 
ChEMBL_Kinases

>  <Ligand_Instance>  (872) 
nan

>  <PDB_ID>  (872) 
nan

>  <Standardized_SMILES>  (872) 
CCN1CCN(CC/C=C/c2ccc3c(Nc4ccc(Sc5nccn5C)c(Cl)c4)c(C#N)cnc3c2)CC1

>  <Name>  (872) 
nan

>  <Pocket>  (872) 
nan

>  <ATP_Site>  (872) 
nan

>  <Peripheral>  (872) 
nan

>  <Num_H_Atoms_ProtBoundConf>  (872) 
nan

>  <Num_Resolved_Atoms>  (872) 
nan

>  <Num_Not_Resolved_Atoms>  (872) 
nan

$$$$
CHEMBL605978
     RDKit          3D

  0  0  0  0  0  0  0  0  0  0999 V3000
M  V30 BEGIN CTAB
M  V30 COUNTS 62 65 0 0 0
M  V30 BEGIN ATOM
M  V30 1 C 2.902877 -3.277131 1.700608 0
M  V30 2 O 1.652743 -2.646752 1.505924 0
M  V30 3 C 1.528496 -1.286135 1.761492 0
M  V30 4 C 2.616309 -0.559070 2.199497 0
M  V30 5 C 2.370087 0.782969 2.419357 0
M  V30 6 N 3.261819 1.701335 2.845191 0
M  V30 7 C 2.679383 2.919602 2.950750 0
M  V30 8 C 1.358069 2.785770 2.578405 0
M  V30 9 C 0.313831 3.807405 2.522985 0
M  V30 10 O -0.840954 3.481103 2.153276 0
M  V30 11 C 0.695374 5.156920 2.908585 0
M  V30 12 O 1.758708 5.703254 3.300025 0
M  V30 13 N -0.194605 6.262912 2.913996 0
M  V30 14 C 0.363314 7.541208 3.332823 0
M  V30 15 C -1.574368 6.069863 2.513074 0
M  V30 16 C 1.183121 1.452965 2.251794 0
M  V30 17 C 0.132050 0.675656 1.812422 0
M  V30 18 C 0.308220 -0.672324 1.572577 0
M  V30 19 C -0.820566 -1.448140 1.113052 0
M  V30 20 O -1.280286 -1.797398 2.253258 0
M  V30 21 N -1.627781 -1.985628 0.080475 0
M  V30 22 C -2.748592 -2.781191 0.573328 0
M  V30 23 C -2.756509 -4.010304 -0.332194 0
M  V30 24 C -3.124939 -3.584507 -1.712089 0
M  V30 25 C -2.789899 -4.663627 -2.710774 0
M  V30 26 C -1.357702 -5.030486 -2.752223 0
M  V30 27 C -0.908747 -6.061230 -1.940700 0
M  V30 28 C 0.419216 -6.468644 -1.915774 0
M  V30 29 C 1.354792 -5.845788 -2.717177 0
M  V30 30 F 2.658180 -6.213347 -2.719165 0
M  V30 31 C 0.945361 -4.816767 -3.537217 0
M  V30 32 C -0.382099 -4.445336 -3.529740 0
M  V30 33 C -2.554525 -2.290901 -2.153973 0
M  V30 34 C -1.389060 -1.781349 -1.334481 0
M  V30 35 H 3.353161 -3.067715 2.694510 0
M  V30 36 H 3.623709 -2.863246 0.947370 0
M  V30 37 H 2.797278 -4.340867 1.482825 0
M  V30 38 H 3.592534 -0.991453 2.362498 0
M  V30 39 H 4.277278 1.574414 3.086297 0
M  V30 40 H 3.163501 3.834125 3.269312 0
M  V30 41 H 1.431229 7.628272 3.095306 0
M  V30 42 H 0.307899 7.535090 4.455785 0
M  V30 43 H -0.172647 8.408825 2.883850 0
M  V30 44 H -2.125151 7.027363 2.466660 0
M  V30 45 H -2.059622 5.449776 3.286940 0
M  V30 46 H -1.646215 5.604226 1.502129 0
M  V30 47 H -0.824425 1.200579 1.672275 0
M  V30 48 H -3.718234 -2.269855 0.360638 0
M  V30 49 H -2.697239 -3.036205 1.625199 0
M  V30 50 H -3.543938 -4.682705 0.059323 0
M  V30 51 H -1.794096 -4.531582 -0.226573 0
M  V30 52 H -4.259594 -3.516565 -1.718792 0
M  V30 53 H -3.112915 -4.360483 -3.751764 0
M  V30 54 H -3.412334 -5.591634 -2.528477 0
M  V30 55 H -1.518501 -6.647091 -1.264443 0
M  V30 56 H 0.814221 -7.262326 -1.304886 0
M  V30 57 H 1.651024 -4.289590 -4.194692 0
M  V30 58 H -0.686331 -3.638374 -4.182350 0
M  V30 59 H -2.336977 -2.210813 -3.238880 0
M  V30 60 H -3.354584 -1.498988 -1.997554 0
M  V30 61 H -1.247473 -0.687469 -1.466387 0
M  V30 62 H -0.454060 -2.272853 -1.599800 0
M  V30 END ATOM
M  V30 BEGIN BOND
M  V30 1 1 1 2
M  V30 2 1 2 3
M  V30 3 2 3 4
M  V30 4 1 4 5
M  V30 5 1 5 6
M  V30 6 1 6 7
M  V30 7 2 7 8
M  V30 8 1 8 9
M  V30 9 2 9 10
M  V30 10 1 9 11
M  V30 11 2 11 12
M  V30 12 1 11 13
M  V30 13 1 13 14
M  V30 14 1 13 15
M  V30 15 1 8 16
M  V30 16 1 16 17
M  V30 17 2 17 18
M  V30 18 1 18 19
M  V30 19 2 19 20
M  V30 20 1 19 21
M  V30 21 1 21 22
M  V30 22 1 22 23
M  V30 23 1 23 24
M  V30 24 1 24 25
M  V30 25 1 25 26
M  V30 26 2 26 27
M  V30 27 1 27 28
M  V30 28 2 28 29
M  V30 29 1 29 30
M  V30 30 1 29 31
M  V30 31 2 31 32
M  V30 32 1 24 33
M  V30 33 1 33 34
M  V30 34 1 18 3
M  V30 35 1 34 21
M  V30 36 2 16 5
M  V30 37 1 32 26
M  V30 38 1 1 35
M  V30 39 1 1 36
M  V30 40 1 1 37
M  V30 41 1 4 38
M  V30 42 1 6 39
M  V30 43 1 7 40
M  V30 44 1 14 41
M  V30 45 1 14 42
M  V30 46 1 14 43
M  V30 47 1 15 44
M  V30 48 1 15 45
M  V30 49 1 15 46
M  V30 50 1 17 47
M  V30 51 1 22 48
M  V30 52 1 22 49
M  V30 53 1 23 50
M  V30 54 1 23 51
M  V30 55 1 24 52
M  V30 56 1 25 53
M  V30 57 1 25 54
M  V30 58 1 27 55
M  V30 59 1 28 56
M  V30 60 1 31 57
M  V30 61 1 32 58
M  V30 62 1 33 59
M  V30 63 1 33 60
M  V30 64 1 34 61
M  V30 65 1 34 62
M  V30 END BOND
M  V30 END CTAB
M  END
>  <Dataset>  (873) 
ChEMBL_Kinases

>  <Ligand_Instance>  (873) 
nan

>  <PDB_ID>  (873) 
nan

>  <Standardized_SMILES>  (873) 
COc1cc2[nH]cc(C(=O)C(=O)N(C)C)c2cc1C(=O)N1CCC(Cc2ccc(F)cc2)CC1

>  <Name>  (873) 
nan

>  <Pocket>  (873) 
nan

>  <ATP_Site>  (873) 
nan

>  <Peripheral>  (873) 
nan

>  <Num_H_Atoms_ProtBoundConf>  (873) 
nan

>  <Num_Resolved_Atoms>  (873) 
nan

>  <Num_Not_Resolved_Atoms>  (873) 
nan

$$$$
CHEMBL489043
     RDKit          3D

  0  0  0  0  0  0  0  0  0  0999 V3000
M  V30 BEGIN CTAB
M  V30 COUNTS 44 48 0 0 0
M  V30 BEGIN ATOM
M  V30 1 C 3.339912 -0.930544 5.413289 0
M  V30 2 O 2.942386 -0.509976 4.102951 0
M  V30 3 C 2.554939 -1.434482 3.159503 0
M  V30 4 C 2.482200 -2.807272 3.280079 0
M  V30 5 C 2.076331 -3.628926 2.249981 0
M  V30 6 C 1.713518 -3.090906 1.014513 0
M  V30 7 C 1.797170 -1.735451 0.932118 0
M  V30 8 C 1.496223 -0.972335 -0.170247 0
M  V30 9 C 1.066362 -1.172163 -1.541085 0
M  V30 10 C 0.077260 -0.499594 -2.171161 0
M  V30 11 C -0.607298 0.511813 -1.355713 0
M  V30 12 C -0.807593 1.845682 -1.522474 0
M  V30 13 N -1.530684 2.320905 -0.497245 0
M  V30 14 C -1.942264 3.699987 -0.326154 0
M  V30 15 C -1.840612 1.339201 0.384065 0
M  V30 16 C -2.556859 1.301378 1.567533 0
M  V30 17 Br -3.315299 2.917327 2.235405 0
M  V30 18 C -2.728776 0.120691 2.265437 0
M  V30 19 C -2.165382 -1.026367 1.749868 0
M  V30 20 Br -2.404278 -2.669645 2.708434 0
M  V30 21 C -1.466494 -0.947762 0.580818 0
M  V30 22 C -1.260463 0.212617 -0.161161 0
M  V30 23 C -0.048167 -0.982783 -3.538724 0
M  V30 24 O -0.929132 -0.452252 -4.254356 0
M  V30 25 N 0.919668 -2.001636 -3.735839 0
M  V30 26 C 1.610267 -2.121122 -2.504252 0
M  V30 27 O 2.562986 -2.935875 -2.272835 0
M  V30 28 C 1.733305 0.349849 0.227378 0
M  V30 29 O 2.144173 0.375187 1.470761 0
M  V30 30 C 2.203699 -0.863959 1.953028 0
M  V30 31 H 2.688632 -1.736304 5.777032 0
M  V30 32 H 4.416256 -1.185537 5.438971 0
M  V30 33 H 3.220809 -0.072391 6.138698 0
M  V30 34 H 2.777243 -3.145154 4.267138 0
M  V30 35 H 2.039480 -4.694451 2.412293 0
M  V30 36 H 1.388702 -3.697387 0.184186 0
M  V30 37 H -0.396038 2.353033 -2.396203 0
M  V30 38 H -1.654960 4.307886 -1.222996 0
M  V30 39 H -3.041922 3.816868 -0.225833 0
M  V30 40 H -1.496813 4.139452 0.607980 0
M  V30 41 H -3.286980 0.079368 3.191231 0
M  V30 42 H -1.087081 -1.906103 0.260467 0
M  V30 43 H 1.024440 -2.501462 -4.642972 0
M  V30 44 H 1.689018 1.359774 -0.156321 0
M  V30 END ATOM
M  V30 BEGIN BOND
M  V30 1 1 1 2
M  V30 2 1 2 3
M  V30 3 2 3 4
M  V30 4 1 4 5
M  V30 5 2 5 6
M  V30 6 1 6 7
M  V30 7 1 7 8
M  V30 8 1 8 9
M  V30 9 2 9 10
M  V30 10 1 10 11
M  V30 11 2 11 12
M  V30 12 1 12 13
M  V30 13 1 13 14
M  V30 14 1 13 15
M  V30 15 2 15 16
M  V30 16 1 16 17
M  V30 17 1 16 18
M  V30 18 2 18 19
M  V30 19 1 19 20
M  V30 20 1 19 21
M  V30 21 2 21 22
M  V30 22 1 10 23
M  V30 23 2 23 24
M  V30 24 1 23 25
M  V30 25 1 25 26
M  V30 26 2 26 27
M  V30 27 2 8 28
M  V30 28 1 28 29
M  V30 29 1 29 30
M  V30 30 1 30 3
M  V30 31 2 30 7
M  V30 32 1 26 9
M  V30 33 1 22 11
M  V30 34 1 22 15
M  V30 35 1 1 31
M  V30 36 1 1 32
M  V30 37 1 1 33
M  V30 38 1 4 34
M  V30 39 1 5 35
M  V30 40 1 6 36
M  V30 41 1 12 37
M  V30 42 1 14 38
M  V30 43 1 14 39
M  V30 44 1 14 40
M  V30 45 1 18 41
M  V30 46 1 21 42
M  V30 47 1 25 43
M  V30 48 1 28 44
M  V30 END BOND
M  V30 END CTAB
M  END
>  <Dataset>  (874) 
ChEMBL_Kinases

>  <Ligand_Instance>  (874) 
nan

>  <PDB_ID>  (874) 
nan

>  <Standardized_SMILES>  (874) 
COc1cccc2c(C3=C(c4cn(C)c5c(Br)cc(Br)cc45)C(=O)NC3=O)coc12

>  <Name>  (874) 
nan

>  <Pocket>  (874) 
nan

>  <ATP_Site>  (874) 
nan

>  <Peripheral>  (874) 
nan

>  <Num_H_Atoms_ProtBoundConf>  (874) 
nan

>  <Num_Resolved_Atoms>  (874) 
nan

>  <Num_Not_Resolved_Atoms>  (874) 
nan

$$$$
CHEMBL3913242
     RDKit          3D

  0  0  0  0  0  0  0  0  0  0999 V3000
M  V30 BEGIN CTAB
M  V30 COUNTS 51 54 0 0 0
M  V30 BEGIN ATOM
M  V30 1 C 0.589653 -1.908589 5.367524 0
M  V30 2 C 1.685182 -2.836399 4.878752 0
M  V30 3 C 1.706942 -2.912357 3.393551 0
M  V30 4 C 0.948228 -3.862220 2.699785 0
M  V30 5 C 0.973280 -3.928728 1.323294 0
M  V30 6 C 1.759852 -3.046248 0.579459 0
M  V30 7 N 1.633482 -3.286828 -0.811847 0
M  V30 8 C 1.455755 -2.400924 -1.693322 0
M  V30 9 S 1.365297 -0.729920 -1.063194 0
M  V30 10 C 0.845422 0.023152 -2.610381 0
M  V30 11 C 0.438205 1.259192 -2.785734 0
M  V30 12 C 0.386039 2.140027 -1.624552 0
M  V30 13 C 0.826701 3.468157 -1.562525 0
M  V30 14 C 0.667285 4.150870 -0.363469 0
M  V30 15 N 0.121177 3.641186 0.756229 0
M  V30 16 C -0.318999 2.367175 0.747675 0
M  V30 17 N -0.926911 1.706338 1.880086 0
M  V30 18 C -2.330828 1.500058 1.910967 0
M  V30 19 C -2.620507 0.240083 1.445340 0
M  V30 20 C -3.919966 -0.254558 1.347756 0
M  V30 21 C -4.972024 0.579078 1.744327 0
M  V30 22 C -4.629738 1.831524 2.203138 0
M  V30 23 N -3.359717 2.288602 2.289158 0
M  V30 24 C -0.168720 1.687617 -0.423814 0
M  V30 25 C 0.974459 -1.043114 -3.592033 0
M  V30 26 O 0.794329 -0.783039 -4.831836 0
M  V30 27 N 1.297299 -2.324587 -3.100647 0
M  V30 28 C 1.468183 -3.500213 -3.929477 0
M  V30 29 C 2.504200 -2.113891 1.264836 0
M  V30 30 C 2.487348 -2.037810 2.635635 0
M  V30 31 H -0.203696 -1.843603 4.588471 0
M  V30 32 H 0.111737 -2.337346 6.290739 0
M  V30 33 H 1.010690 -0.934941 5.668901 0
M  V30 34 H 1.433059 -3.860295 5.259045 0
M  V30 35 H 2.660223 -2.524482 5.294351 0
M  V30 36 H 0.364561 -4.511683 3.343728 0
M  V30 37 H 0.335331 -4.714888 0.946745 0
M  V30 38 H 0.154859 1.596215 -3.764971 0
M  V30 39 H 1.258651 3.849278 -2.462088 0
M  V30 40 H 1.022678 5.190654 -0.351555 0
M  V30 41 H -0.164453 1.453307 2.575187 0
M  V30 42 H -1.937491 -0.551592 1.094500 0
M  V30 43 H -4.244726 -1.220483 0.998833 0
M  V30 44 H -6.010673 0.349919 1.729326 0
M  V30 45 H -5.312818 2.608319 2.552071 0
M  V30 46 H -0.544269 0.673615 -0.417778 0
M  V30 47 H 2.436684 -3.460003 -4.484950 0
M  V30 48 H 1.426841 -4.415234 -3.312463 0
M  V30 49 H 0.606109 -3.613345 -4.647584 0
M  V30 50 H 3.081106 -1.479427 0.638552 0
M  V30 51 H 3.082391 -1.294328 3.110917 0
M  V30 END ATOM
M  V30 BEGIN BOND
M  V30 1 1 1 2
M  V30 2 1 2 3
M  V30 3 2 3 4
M  V30 4 1 4 5
M  V30 5 2 5 6
M  V30 6 1 6 7
M  V30 7 2 7 8
M  V30 8 1 8 9
M  V30 9 1 9 10
M  V30 10 2 10 11
M  V30 11 1 11 12
M  V30 12 2 12 13
M  V30 13 1 13 14
M  V30 14 2 14 15
M  V30 15 1 15 16
M  V30 16 1 16 17
M  V30 17 1 17 18
M  V30 18 2 18 19
M  V30 19 1 19 20
M  V30 20 2 20 21
M  V30 21 1 21 22
M  V30 22 2 22 23
M  V30 23 2 16 24
M  V30 24 1 10 25
M  V30 25 2 25 26
M  V30 26 1 25 27
M  V30 27 1 27 28
M  V30 28 1 6 29
M  V30 29 2 29 30
M  V30 30 1 30 3
M  V30 31 1 27 8
M  V30 32 1 24 12
M  V30 33 1 23 18
M  V30 34 1 1 31
M  V30 35 1 1 32
M  V30 36 1 1 33
M  V30 37 1 2 34
M  V30 38 1 2 35
M  V30 39 1 4 36
M  V30 40 1 5 37
M  V30 41 1 11 38
M  V30 42 1 13 39
M  V30 43 1 14 40
M  V30 44 1 17 41
M  V30 45 1 19 42
M  V30 46 1 20 43
M  V30 47 1 21 44
M  V30 48 1 22 45
M  V30 49 1 24 46
M  V30 50 1 28 47
M  V30 51 1 28 48
M  V30 52 1 28 49
M  V30 53 1 29 50
M  V30 54 1 30 51
M  V30 END BOND
M  V30 END CTAB
M  END
>  <Dataset>  (875) 
ChEMBL_Kinases

>  <Ligand_Instance>  (875) 
nan

>  <PDB_ID>  (875) 
nan

>  <Standardized_SMILES>  (875) 
CCc1ccc(/N=C2\S/C(=C\c3ccnc(Nc4ccccn4)c3)C(=O)N2C)cc1

>  <Name>  (875) 
nan

>  <Pocket>  (875) 
nan

>  <ATP_Site>  (875) 
nan

>  <Peripheral>  (875) 
nan

>  <Num_H_Atoms_ProtBoundConf>  (875) 
nan

>  <Num_Resolved_Atoms>  (875) 
nan

>  <Num_Not_Resolved_Atoms>  (875) 
nan

$$$$
CHEMBL3912759
     RDKit          3D

  0  0  0  0  0  0  0  0  0  0999 V3000
M  V30 BEGIN CTAB
M  V30 COUNTS 50 52 0 0 0
M  V30 BEGIN ATOM
M  V30 1 C 4.237599 -5.671145 0.837083 0
M  V30 2 O 4.445161 -4.303317 1.084850 0
M  V30 3 C 3.824510 -3.280229 0.381751 0
M  V30 4 C 4.104659 -1.960673 0.712724 0
M  V30 5 C 3.529679 -0.887747 0.062496 0
M  V30 6 N 3.825486 0.442297 0.411650 0
M  V30 7 S 3.126527 1.778649 -0.379661 0
M  V30 8 O 3.526577 1.739926 -1.832231 0
M  V30 9 O 3.706887 3.064499 0.162075 0
M  V30 10 C 1.381043 1.850332 -0.233428 0
M  V30 11 C 0.892828 2.537179 0.859547 0
M  V30 12 C -0.466912 2.654981 1.068833 0
M  V30 13 C -1.379359 2.093489 0.197830 0
M  V30 14 N -2.788555 2.175976 0.345956 0
M  V30 15 S -3.707925 1.916003 1.789432 0
M  V30 16 O -5.122605 2.351323 1.603499 0
M  V30 17 O -3.127214 2.883857 2.815172 0
M  V30 18 C -3.555417 0.322950 2.430314 0
M  V30 19 C -2.762086 -0.353894 3.318937 0
M  V30 20 C -1.677607 0.398198 3.996819 0
M  V30 21 N -3.203037 -1.623690 3.351995 0
M  V30 22 O -4.201714 -1.786655 2.558365 0
M  V30 23 C -4.468023 -0.627417 1.961578 0
M  V30 24 C -5.590140 -0.599528 1.002015 0
M  V30 25 C -0.875355 1.397701 -0.909396 0
M  V30 26 C 0.483762 1.273905 -1.128104 0
M  V30 27 N 2.664054 -1.169886 -0.931133 0
M  V30 28 C 2.367268 -2.452729 -1.280879 0
M  V30 29 O 1.469314 -2.751100 -2.311889 0
M  V30 30 C 1.154578 -4.067775 -2.682571 0
M  V30 31 N 2.945899 -3.477504 -0.625966 0
M  V30 32 H 5.180663 -6.117477 0.430991 0
M  V30 33 H 3.418648 -5.777273 0.085695 0
M  V30 34 H 3.933829 -6.229747 1.744420 0
M  V30 35 H 4.798792 -1.709290 1.509314 0
M  V30 36 H 4.515982 0.604550 1.203837 0
M  V30 37 H 1.462913 3.038231 1.640259 0
M  V30 38 H -0.957857 3.165381 1.884041 0
M  V30 39 H -3.288956 2.422653 -0.536450 0
M  V30 40 H -1.016965 0.813525 3.226693 0
M  V30 41 H -1.037568 -0.271415 4.611555 0
M  V30 42 H -2.087801 1.177668 4.643627 0
M  V30 43 H -5.677251 0.363977 0.462437 0
M  V30 44 H -6.527970 -0.940912 1.472346 0
M  V30 45 H -5.362686 -1.382881 0.221221 0
M  V30 46 H -1.504942 0.923398 -1.647728 0
M  V30 47 H 0.910835 0.746378 -1.968502 0
M  V30 48 H 1.379376 -4.807651 -1.865943 0
M  V30 49 H 1.865981 -4.338423 -3.507059 0
M  V30 50 H 0.136618 -4.190107 -3.079152 0
M  V30 END ATOM
M  V30 BEGIN BOND
M  V30 1 1 1 2
M  V30 2 1 2 3
M  V30 3 2 3 4
M  V30 4 1 4 5
M  V30 5 1 5 6
M  V30 6 1 6 7
M  V30 7 2 7 8
M  V30 8 2 7 9
M  V30 9 1 7 10
M  V30 10 2 10 11
M  V30 11 1 11 12
M  V30 12 2 12 13
M  V30 13 1 13 14
M  V30 14 1 14 15
M  V30 15 2 15 16
M  V30 16 2 15 17
M  V30 17 1 15 18
M  V30 18 1 18 19
M  V30 19 1 19 20
M  V30 20 2 19 21
M  V30 21 1 21 22
M  V30 22 1 22 23
M  V30 23 1 23 24
M  V30 24 1 13 25
M  V30 25 2 25 26
M  V30 26 2 5 27
M  V30 27 1 27 28
M  V30 28 1 28 29
M  V30 29 1 29 30
M  V30 30 2 28 31
M  V30 31 1 31 3
M  V30 32 1 26 10
M  V30 33 2 23 18
M  V30 34 1 1 32
M  V30 35 1 1 33
M  V30 36 1 1 34
M  V30 37 1 4 35
M  V30 38 1 6 36
M  V30 39 1 11 37
M  V30 40 1 12 38
M  V30 41 1 14 39
M  V30 42 1 20 40
M  V30 43 1 20 41
M  V30 44 1 20 42
M  V30 45 1 24 43
M  V30 46 1 24 44
M  V30 47 1 24 45
M  V30 48 1 25 46
M  V30 49 1 26 47
M  V30 50 1 30 48
M  V30 51 1 30 49
M  V30 52 1 30 50
M  V30 END BOND
M  V30 END CTAB
M  END
>  <Dataset>  (876) 
ChEMBL_Kinases

>  <Ligand_Instance>  (876) 
nan

>  <PDB_ID>  (876) 
nan

>  <Standardized_SMILES>  (876) 
COc1cc(NS(=O)(=O)c2ccc(NS(=O)(=O)c3c(C)noc3C)cc2)nc(OC)n1

>  <Name>  (876) 
nan

>  <Pocket>  (876) 
nan

>  <ATP_Site>  (876) 
nan

>  <Peripheral>  (876) 
nan

>  <Num_H_Atoms_ProtBoundConf>  (876) 
nan

>  <Num_Resolved_Atoms>  (876) 
nan

>  <Num_Not_Resolved_Atoms>  (876) 
nan

$$$$
CHEMBL3912858
     RDKit          3D

  0  0  0  0  0  0  0  0  0  0999 V3000
M  V30 BEGIN CTAB
M  V30 COUNTS 41 44 0 0 0
M  V30 BEGIN ATOM
M  V30 1 O 2.633444 -6.826581 2.558173 0
M  V30 2 C 3.217332 -5.909787 1.669435 0
M  V30 3 C 3.702996 -6.301259 0.440811 0
M  V30 4 C 4.248052 -5.295562 -0.325256 0
M  V30 5 C 4.315640 -3.979817 0.084834 0
M  V30 6 C 3.817479 -3.621219 1.326844 0
M  V30 7 O 3.937410 -2.286439 1.630499 0
M  V30 8 C 2.907359 -1.417571 1.282224 0
M  V30 9 C 1.800497 -1.070608 2.053186 0
M  V30 10 C 0.862909 -0.196438 1.573537 0
M  V30 11 C 0.998560 0.350530 0.328350 0
M  V30 12 C 0.166887 1.233561 -0.307320 0
M  V30 13 C -1.067370 1.919136 -0.030419 0
M  V30 14 C -1.923488 1.996708 0.939383 0
M  V30 15 C -3.156778 2.758938 1.065106 0
M  V30 16 C -3.887006 2.653363 2.227139 0
M  V30 17 C -5.050533 3.341666 2.406038 0
M  V30 18 C -5.538173 4.173092 1.420696 0
M  V30 19 C -4.841990 4.311728 0.238658 0
M  V30 20 C -3.676419 3.591457 0.119524 0
M  V30 21 N 0.789253 1.428478 -1.502246 0
M  V30 22 N 1.888711 0.718806 -1.555396 0
M  V30 23 C 2.091067 0.008560 -0.433565 0
M  V30 24 C 3.053455 -0.868910 0.020059 0
M  V30 25 C 3.259231 -4.608733 2.129500 0
M  V30 26 H 2.032952 -7.558438 2.169286 0
M  V30 27 H 3.650232 -7.326848 0.121385 0
M  V30 28 H 4.639409 -5.579375 -1.301757 0
M  V30 29 H 4.766047 -3.262190 -0.596309 0
M  V30 30 H 1.759882 -1.533165 3.009326 0
M  V30 31 H 0.043777 0.032838 2.197811 0
M  V30 32 H -1.485642 2.590163 -0.793926 0
M  V30 33 H -1.632997 1.376911 1.770340 0
M  V30 34 H -3.545652 2.011460 3.033657 0
M  V30 35 H -5.614119 3.248853 3.325054 0
M  V30 36 H -6.463793 4.704197 1.595214 0
M  V30 37 H -5.231902 4.958441 -0.513906 0
M  V30 38 H -3.153725 3.720622 -0.816895 0
M  V30 39 H 2.508488 0.734894 -2.397801 0
M  V30 40 H 3.847608 -1.034658 -0.695502 0
M  V30 41 H 2.883745 -4.282853 3.089310 0
M  V30 END ATOM
M  V30 BEGIN BOND
M  V30 1 1 1 2
M  V30 2 2 2 3
M  V30 3 1 3 4
M  V30 4 2 4 5
M  V30 5 1 5 6
M  V30 6 1 6 7
M  V30 7 1 7 8
M  V30 8 2 8 9
M  V30 9 1 9 10
M  V30 10 2 10 11
M  V30 11 1 11 12
M  V30 12 1 12 13
M  V30 13 2 13 14
M  V30 14 1 14 15
M  V30 15 2 15 16
M  V30 16 1 16 17
M  V30 17 2 17 18
M  V30 18 1 18 19
M  V30 19 2 19 20
M  V30 20 2 12 21
M  V30 21 1 21 22
M  V30 22 1 22 23
M  V30 23 2 23 24
M  V30 24 2 6 25
M  V30 25 1 25 2
M  V30 26 1 24 8
M  V30 27 1 23 11
M  V30 28 1 20 15
M  V30 29 1 1 26
M  V30 30 1 3 27
M  V30 31 1 4 28
M  V30 32 1 5 29
M  V30 33 1 9 30
M  V30 34 1 10 31
M  V30 35 1 13 32
M  V30 36 1 14 33
M  V30 37 1 16 34
M  V30 38 1 17 35
M  V30 39 1 18 36
M  V30 40 1 19 37
M  V30 41 1 20 38
M  V30 42 1 22 39
M  V30 43 1 24 40
M  V30 44 1 25 41
M  V30 END BOND
M  V30 END CTAB
M  END
>  <Dataset>  (877) 
ChEMBL_Kinases

>  <Ligand_Instance>  (877) 
nan

>  <PDB_ID>  (877) 
nan

>  <Standardized_SMILES>  (877) 
Oc1cccc(Oc2ccc3c(/C=C/c4ccccc4)n[nH]c3c2)c1

>  <Name>  (877) 
nan

>  <Pocket>  (877) 
nan

>  <ATP_Site>  (877) 
nan

>  <Peripheral>  (877) 
nan

>  <Num_H_Atoms_ProtBoundConf>  (877) 
nan

>  <Num_Resolved_Atoms>  (877) 
nan

>  <Num_Not_Resolved_Atoms>  (877) 
nan

$$$$
CHEMBL488899
     RDKit          3D

  0  0  0  0  0  0  0  0  0  0999 V3000
M  V30 BEGIN CTAB
M  V30 COUNTS 50 55 0 0 0
M  V30 BEGIN ATOM
M  V30 1 O 3.551267 0.280288 4.285303 0
M  V30 2 C 3.322315 -0.361204 3.231899 0
M  V30 3 N 4.108624 -1.449962 2.707726 0
M  V30 4 C 3.501042 -1.887984 1.505723 0
M  V30 5 O 4.062118 -2.826920 0.928229 0
M  V30 6 C 2.327246 -1.104424 1.230792 0
M  V30 7 C 2.257711 -0.213739 2.274271 0
M  V30 8 C 1.226547 0.705022 2.331585 0
M  V30 9 C 0.968113 1.745855 3.317146 0
M  V30 10 C 1.822254 2.716692 3.796680 0
M  V30 11 C 1.419352 3.626662 4.749621 0
M  V30 12 C 0.138820 3.599528 5.261307 0
M  V30 13 C -0.767468 2.655292 4.825864 0
M  V30 14 C -0.317710 1.766488 3.871906 0
M  V30 15 C 0.261943 0.709978 1.315227 0
M  V30 16 C 0.344310 -0.191292 0.272621 0
M  V30 17 C 1.385357 -1.090230 0.249318 0
M  V30 18 C 1.266111 -1.872540 -0.858339 0
M  V30 19 C 1.890945 -2.903692 -1.489142 0
M  V30 20 C 1.494798 -3.503724 -2.661935 0
M  V30 21 O 2.180828 -4.556962 -3.255520 0
M  V30 22 C 0.336882 -3.020616 -3.283959 0
M  V30 23 C -0.331706 -1.980821 -2.688746 0
M  V30 24 C 0.131063 -1.418720 -1.492872 0
M  V30 25 N -0.445581 -0.399826 -0.826570 0
M  V30 26 C -1.624872 0.334382 -1.156470 0
M  V30 27 C -2.894652 -0.209121 -0.608219 0
M  V30 28 N -3.222351 -1.533746 -1.020314 0
M  V30 29 C -2.947329 -2.752410 -0.515988 0
M  V30 30 C -3.510499 -3.744598 -1.311547 0
M  V30 31 N -4.150186 -3.141024 -2.332878 0
M  V30 32 C -3.952324 -1.826914 -2.119024 0
M  V30 33 H 4.976775 -1.776054 3.229398 0
M  V30 34 H 2.811344 2.707146 3.362369 0
M  V30 35 H 2.118271 4.362866 5.092328 0
M  V30 36 H -0.128925 4.336801 6.008889 0
M  V30 37 H -1.770157 2.610066 5.205614 0
M  V30 38 H -1.054376 1.033316 3.547554 0
M  V30 39 H -0.582952 1.384753 1.265567 0
M  V30 40 H 2.774840 -3.327279 -1.083590 0
M  V30 41 H 3.095520 -4.308861 -3.649202 0
M  V30 42 H -0.037814 -3.436093 -4.202494 0
M  V30 43 H -1.223788 -1.617279 -3.178822 0
M  V30 44 H -1.524872 1.393936 -0.848424 0
M  V30 45 H -1.704416 0.354307 -2.281484 0
M  V30 46 H -3.710819 0.502629 -0.826519 0
M  V30 47 H -2.816563 -0.218836 0.515788 0
M  V30 48 H -2.355035 -2.881948 0.400485 0
M  V30 49 H -3.421917 -4.819850 -1.102680 0
M  V30 50 H -4.376563 -1.090775 -2.819207 0
M  V30 END ATOM
M  V30 BEGIN BOND
M  V30 1 2 1 2
M  V30 2 1 2 3
M  V30 3 1 3 4
M  V30 4 2 4 5
M  V30 5 1 4 6
M  V30 6 2 6 7
M  V30 7 1 7 8
M  V30 8 1 8 9
M  V30 9 2 9 10
M  V30 10 1 10 11
M  V30 11 2 11 12
M  V30 12 1 12 13
M  V30 13 2 13 14
M  V30 14 2 8 15
M  V30 15 1 15 16
M  V30 16 2 16 17
M  V30 17 1 17 18
M  V30 18 2 18 19
M  V30 19 1 19 20
M  V30 20 1 20 21
M  V30 21 2 20 22
M  V30 22 1 22 23
M  V30 23 2 23 24
M  V30 24 1 24 25
M  V30 25 1 25 26
M  V30 26 1 26 27
M  V30 27 1 27 28
M  V30 28 1 28 29
M  V30 29 2 29 30
M  V30 30 1 30 31
M  V30 31 2 31 32
M  V30 32 1 7 2
M  V30 33 1 14 9
M  V30 34 1 25 16
M  V30 35 1 32 28
M  V30 36 1 17 6
M  V30 37 1 24 18
M  V30 38 1 3 33
M  V30 39 1 10 34
M  V30 40 1 11 35
M  V30 41 1 12 36
M  V30 42 1 13 37
M  V30 43 1 14 38
M  V30 44 1 15 39
M  V30 45 1 19 40
M  V30 46 1 21 41
M  V30 47 1 22 42
M  V30 48 1 23 43
M  V30 49 1 26 44
M  V30 50 1 26 45
M  V30 51 1 27 46
M  V30 52 1 27 47
M  V30 53 1 29 48
M  V30 54 1 30 49
M  V30 55 1 32 50
M  V30 END BOND
M  V30 END CTAB
M  END
>  <Dataset>  (878) 
ChEMBL_Kinases

>  <Ligand_Instance>  (878) 
nan

>  <PDB_ID>  (878) 
nan

>  <Standardized_SMILES>  (878) 
O=C1NC(=O)c2c1c(-c1ccccc1)cc1c2c2cc(O)ccc2n1CCn1ccnc1

>  <Name>  (878) 
nan

>  <Pocket>  (878) 
nan

>  <ATP_Site>  (878) 
nan

>  <Peripheral>  (878) 
nan

>  <Num_H_Atoms_ProtBoundConf>  (878) 
nan

>  <Num_Resolved_Atoms>  (878) 
nan

>  <Num_Not_Resolved_Atoms>  (878) 
nan

$$$$
CHEMBL599792
     RDKit          3D

  0  0  0  0  0  0  0  0  0  0999 V3000
M  V30 BEGIN CTAB
M  V30 COUNTS 62 64 0 0 0
M  V30 BEGIN ATOM
M  V30 1 C -0.270853 -3.253352 8.242792 0
M  V30 2 O 0.168619 -1.907338 8.242301 0
M  V30 3 C 0.583653 -1.383906 7.022219 0
M  V30 4 C 0.556391 -2.171050 5.871262 0
M  V30 5 C 0.970281 -1.661536 4.634754 0
M  V30 6 C 1.414842 -0.358803 4.542157 0
M  V30 7 C 1.843313 0.153268 3.245341 0
M  V30 8 O 1.778128 -0.665490 2.293799 0
M  V30 9 N 2.304257 1.465341 3.032055 0
M  V30 10 C 2.745449 2.049275 1.791510 0
M  V30 11 C 1.612378 2.387046 0.898244 0
M  V30 12 C 1.076161 3.637627 1.038825 0
M  V30 13 C 0.014014 4.066153 0.251523 0
M  V30 14 C -0.492889 3.179615 -0.691743 0
M  V30 15 C 0.033165 1.915471 -0.848953 0
M  V30 16 C -0.560098 1.063187 -1.864384 0
M  V30 17 O -1.487445 1.537169 -2.570619 0
M  V30 18 N -0.106655 -0.268128 -2.055130 0
M  V30 19 C -0.513411 -1.283306 -2.964586 0
M  V30 20 C -1.521936 -2.152150 -2.649186 0
M  V30 21 C -1.999521 -3.187559 -3.459523 0
M  V30 22 C -1.380933 -3.340428 -4.707169 0
M  V30 23 C -1.916126 -4.434989 -5.518738 0
M  V30 24 N -2.973996 -4.103725 -6.409439 0
M  V30 25 C -4.154801 -3.559323 -5.823911 0
M  V30 26 C -2.579143 -3.321763 -7.556901 0
M  V30 27 C -0.358570 -2.486470 -5.068053 0
M  V30 28 C 0.067745 -1.479496 -4.218077 0
M  V30 29 C 1.086418 1.530108 -0.047680 0
M  V30 30 C 1.437072 0.408893 5.686407 0
M  V30 31 C 1.028936 -0.082491 6.923885 0
M  V30 32 O 1.036764 0.650638 8.085912 0
M  V30 33 C 1.440585 1.977923 8.237751 0
M  V30 34 H -1.063855 -3.392499 7.480303 0
M  V30 35 H 0.586749 -3.912709 7.917074 0
M  V30 36 H -0.635720 -3.560472 9.242619 0
M  V30 37 H 0.214247 -3.197228 5.902707 0
M  V30 38 H 0.924989 -2.325507 3.778513 0
M  V30 39 H 2.342207 2.113439 3.844766 0
M  V30 40 H 3.444055 2.887332 1.931642 0
M  V30 41 H 3.333709 1.255450 1.250693 0
M  V30 42 H 1.459556 4.337703 1.768130 0
M  V30 43 H -0.402307 5.068459 0.376766 0
M  V30 44 H -1.315897 3.538773 -1.288088 0
M  V30 45 H 0.654624 -0.704714 -1.496049 0
M  V30 46 H -1.984554 -2.016695 -1.682260 0
M  V30 47 H -2.800946 -3.817476 -3.116609 0
M  V30 48 H -2.186952 -5.306015 -4.894957 0
M  V30 49 H -1.064385 -4.797005 -6.158465 0
M  V30 50 H -4.570958 -4.168007 -5.009508 0
M  V30 51 H -4.029527 -2.489399 -5.486588 0
M  V30 52 H -4.968593 -3.503766 -6.593355 0
M  V30 53 H -1.833077 -3.906683 -8.165939 0
M  V30 54 H -2.182136 -2.334201 -7.241564 0
M  V30 55 H -3.493647 -3.141608 -8.167868 0
M  V30 56 H 0.092275 -2.636150 -6.036693 0
M  V30 57 H 0.878689 -0.807225 -4.511594 0
M  V30 58 H 1.516265 0.544962 -0.153228 0
M  V30 59 H 1.772424 1.423377 5.670013 0
M  V30 60 H 0.530272 2.622718 8.223664 0
M  V30 61 H 1.901519 2.171128 9.239458 0
M  V30 62 H 2.197999 2.311365 7.473481 0
M  V30 END ATOM
M  V30 BEGIN BOND
M  V30 1 1 1 2
M  V30 2 1 2 3
M  V30 3 2 3 4
M  V30 4 1 4 5
M  V30 5 2 5 6
M  V30 6 1 6 7
M  V30 7 2 7 8
M  V30 8 1 7 9
M  V30 9 1 9 10
M  V30 10 1 10 11
M  V30 11 2 11 12
M  V30 12 1 12 13
M  V30 13 2 13 14
M  V30 14 1 14 15
M  V30 15 1 15 16
M  V30 16 2 16 17
M  V30 17 1 16 18
M  V30 18 1 18 19
M  V30 19 2 19 20
M  V30 20 1 20 21
M  V30 21 2 21 22
M  V30 22 1 22 23
M  V30 23 1 23 24
M  V30 24 1 24 25
M  V30 25 1 24 26
M  V30 26 1 22 27
M  V30 27 2 27 28
M  V30 28 2 15 29
M  V30 29 1 6 30
M  V30 30 2 30 31
M  V30 31 1 31 32
M  V30 32 1 32 33
M  V30 33 1 31 3
M  V30 34 1 29 11
M  V30 35 1 28 19
M  V30 36 1 1 34
M  V30 37 1 1 35
M  V30 38 1 1 36
M  V30 39 1 4 37
M  V30 40 1 5 38
M  V30 41 1 9 39
M  V30 42 1 10 40
M  V30 43 1 10 41
M  V30 44 1 12 42
M  V30 45 1 13 43
M  V30 46 1 14 44
M  V30 47 1 18 45
M  V30 48 1 20 46
M  V30 49 1 21 47
M  V30 50 1 23 48
M  V30 51 1 23 49
M  V30 52 1 25 50
M  V30 53 1 25 51
M  V30 54 1 25 52
M  V30 55 1 26 53
M  V30 56 1 26 54
M  V30 57 1 26 55
M  V30 58 1 27 56
M  V30 59 1 28 57
M  V30 60 1 29 58
M  V30 61 1 30 59
M  V30 62 1 33 60
M  V30 63 1 33 61
M  V30 64 1 33 62
M  V30 END BOND
M  V30 END CTAB
M  END
>  <Dataset>  (879) 
ChEMBL_Kinases

>  <Ligand_Instance>  (879) 
nan

>  <PDB_ID>  (879) 
nan

>  <Standardized_SMILES>  (879) 
COc1ccc(C(=O)NCc2cccc(C(=O)Nc3ccc(CN(C)C)cc3)c2)cc1OC

>  <Name>  (879) 
nan

>  <Pocket>  (879) 
nan

>  <ATP_Site>  (879) 
nan

>  <Peripheral>  (879) 
nan

>  <Num_H_Atoms_ProtBoundConf>  (879) 
nan

>  <Num_Resolved_Atoms>  (879) 
nan

>  <Num_Not_Resolved_Atoms>  (879) 
nan

$$$$
CHEMBL605528
     RDKit          3D

  0  0  0  0  0  0  0  0  0  0999 V3000
M  V30 BEGIN CTAB
M  V30 COUNTS 60 65 0 0 0
M  V30 BEGIN ATOM
M  V30 1 C 1.271317 0.513467 5.304638 0
M  V30 2 C 2.451240 0.280743 4.428433 0
M  V30 3 N 3.719535 0.615438 4.731645 0
M  V30 4 N 4.511116 0.267360 3.731944 0
M  V30 5 C 3.822428 -0.307700 2.727294 0
M  V30 6 C 4.075405 -0.851087 1.483655 0
M  V30 7 C 3.012738 -1.362655 0.735398 0
M  V30 8 C 1.700173 -1.333353 1.223525 0
M  V30 9 C 0.807325 -1.926008 0.233485 0
M  V30 10 C 0.683574 -1.141526 -0.892662 0
M  V30 11 C -0.116249 -1.521287 -1.949280 0
M  V30 12 O -0.500535 -1.071068 -3.172970 0
M  V30 13 C -0.118959 0.116300 -3.781228 0
M  V30 14 C -0.498713 1.387635 -3.100322 0 CFG=1
M  V30 15 N -0.015472 2.551509 -3.875011 0
M  V30 16 C -1.982016 1.554048 -2.966827 0
M  V30 17 C -2.643597 0.491317 -2.183084 0
M  V30 18 C -3.384466 -0.575392 -2.649726 0
M  V30 19 N -3.789478 -1.288371 -1.561426 0
M  V30 20 C -3.343812 -0.729741 -0.424410 0
M  V30 21 C -3.546442 -1.160443 0.865535 0
M  V30 22 C -2.969519 -0.394377 1.872332 0
M  V30 23 C -2.238381 0.733726 1.548051 0
M  V30 24 F -1.695101 1.444472 2.585556 0
M  V30 25 C -2.059974 1.129822 0.242763 0
M  V30 26 C -2.615741 0.397482 -0.783290 0
M  V30 27 C -0.776435 -2.755369 -1.773410 0
M  V30 28 N -0.658196 -3.541974 -0.656161 0
M  V30 29 C 0.145852 -3.125509 0.369160 0
M  V30 30 C 0.321380 -3.897158 1.596088 0
M  V30 31 C -0.171410 -3.660932 2.888030 0
M  V30 32 C 0.301062 -4.697147 3.672656 0
M  V30 33 O 1.027606 -5.521355 2.957838 0
M  V30 34 C 1.066120 -5.078548 1.705230 0
M  V30 35 C 1.464899 -0.796768 2.446943 0
M  V30 36 C 2.518743 -0.294672 3.178008 0
M  V30 37 H 0.363193 0.022641 4.910446 0
M  V30 38 H 1.140775 1.591726 5.430829 0
M  V30 39 H 1.462480 0.000607 6.288322 0
M  V30 40 H 5.550900 0.404707 3.686995 0
M  V30 41 H 5.101539 -0.849664 1.154856 0
M  V30 42 H 3.366243 -1.760223 -0.227199 0
M  V30 43 H 1.145968 -0.201409 -1.124955 0
M  V30 44 H -0.566420 0.139853 -4.825678 0
M  V30 45 H 0.996652 0.061339 -3.961926 0
M  V30 46 H -0.058350 1.514557 -2.118336 0
M  V30 47 H -0.667868 2.655190 -4.706837 0
M  V30 48 H -0.205703 3.395280 -3.286446 0
M  V30 49 H -2.194124 2.510069 -2.419150 0
M  V30 50 H -2.438831 1.677827 -3.961917 0
M  V30 51 H -3.572743 -0.757185 -3.689378 0
M  V30 52 H -4.374510 -2.152346 -1.712588 0
M  V30 53 H -4.115508 -2.036743 1.118084 0
M  V30 54 H -3.132642 -0.737241 2.884645 0
M  V30 55 H -1.479058 2.026310 -0.002265 0
M  V30 56 H -1.456903 -3.299665 -2.422642 0
M  V30 57 H -0.795762 -2.821862 3.160479 0
M  V30 58 H 0.103302 -4.825880 4.748510 0
M  V30 59 H 1.579080 -5.526942 0.868295 0
M  V30 60 H 0.428947 -0.826788 2.714323 0
M  V30 END ATOM
M  V30 BEGIN BOND
M  V30 1 1 1 2
M  V30 2 2 2 3
M  V30 3 1 3 4
M  V30 4 1 4 5
M  V30 5 2 5 6
M  V30 6 1 6 7
M  V30 7 2 7 8
M  V30 8 1 8 9
M  V30 9 2 9 10
M  V30 10 1 10 11
M  V30 11 1 11 12
M  V30 12 1 12 13
M  V30 13 1 13 14
M  V30 14 1 14 15
M  V30 15 1 14 16
M  V30 16 1 16 17
M  V30 17 2 17 18
M  V30 18 1 18 19
M  V30 19 1 19 20
M  V30 20 2 20 21
M  V30 21 1 21 22
M  V30 22 2 22 23
M  V30 23 1 23 24
M  V30 24 1 23 25
M  V30 25 2 25 26
M  V30 26 2 11 27
M  V30 27 1 27 28
M  V30 28 2 28 29
M  V30 29 1 29 30
M  V30 30 1 30 31
M  V30 31 2 31 32
M  V30 32 1 32 33
M  V30 33 1 33 34
M  V30 34 1 8 35
M  V30 35 2 35 36
M  V30 36 1 36 2
M  V30 37 1 36 5
M  V30 38 1 29 9
M  V30 39 2 34 30
M  V30 40 1 26 17
M  V30 41 1 26 20
M  V30 42 1 1 37
M  V30 43 1 1 38
M  V30 44 1 1 39
M  V30 45 1 4 40
M  V30 46 1 6 41
M  V30 47 1 7 42
M  V30 48 1 10 43
M  V30 49 1 13 44
M  V30 50 1 13 45
M  V30 51 1 14 46 CFG=1
M  V30 52 1 15 47
M  V30 53 1 15 48
M  V30 54 1 16 49
M  V30 55 1 16 50
M  V30 56 1 18 51
M  V30 57 1 19 52
M  V30 58 1 21 53
M  V30 59 1 22 54
M  V30 60 1 25 55
M  V30 61 1 27 56
M  V30 62 1 31 57
M  V30 63 1 32 58
M  V30 64 1 34 59
M  V30 65 1 35 60
M  V30 END BOND
M  V30 END CTAB
M  END
>  <Dataset>  (880) 
ChEMBL_Kinases

>  <Ligand_Instance>  (880) 
nan

>  <PDB_ID>  (880) 
nan

>  <Standardized_SMILES>  (880) 
Cc1n[nH]c2ccc(-c3cc(OC[C@@H](N)Cc4c[nH]c5ccc(F)cc45)cnc3-c3ccoc3)cc12

>  <Name>  (880) 
nan

>  <Pocket>  (880) 
nan

>  <ATP_Site>  (880) 
nan

>  <Peripheral>  (880) 
nan

>  <Num_H_Atoms_ProtBoundConf>  (880) 
nan

>  <Num_Resolved_Atoms>  (880) 
nan

>  <Num_Not_Resolved_Atoms>  (880) 
nan

$$$$
CHEMBL3912368
     RDKit          3D

  0  0  0  0  0  0  0  0  0  0999 V3000
M  V30 BEGIN CTAB
M  V30 COUNTS 40 43 0 0 0
M  V30 BEGIN ATOM
M  V30 1 N 1.301694 -8.571327 1.397411 0
M  V30 2 C 1.820408 -7.261011 1.572630 0
M  V30 3 O 2.817757 -7.624618 2.222189 0
M  V30 4 C 1.219489 -6.040802 1.072632 0
M  V30 5 C 1.865135 -4.857121 1.341145 0
M  V30 6 C 1.241437 -3.723050 0.836140 0
M  V30 7 N 1.598675 -2.419097 0.914981 0
M  V30 8 C 0.660712 -1.677919 0.259578 0
M  V30 9 C 0.685992 -0.223419 0.118759 0
M  V30 10 C 1.704469 0.535649 0.661235 0
M  V30 11 C 1.684204 1.908042 0.501319 0
M  V30 12 C 0.646179 2.527609 -0.201312 0
M  V30 13 O 0.524359 3.892805 -0.422774 0
M  V30 14 C -0.124784 4.773357 0.397256 0
M  V30 15 C -0.179649 6.118977 0.067085 0
M  V30 16 C -0.818216 7.055756 0.851766 0
M  V30 17 C -1.440558 6.679062 2.021821 0
M  V30 18 Cl -2.219477 7.952191 2.937935 0
M  V30 19 C -1.403943 5.352973 2.376658 0
M  V30 20 Cl -2.205501 4.904377 3.872803 0
M  V30 21 C -0.757337 4.420858 1.576937 0
M  V30 22 C -0.367785 1.753405 -0.739319 0
M  V30 23 C -0.344036 0.381298 -0.577297 0
M  V30 24 N -0.273686 -2.537672 -0.221199 0
M  V30 25 C 0.063243 -3.808797 0.122403 0
M  V30 26 C -0.538640 -5.050355 -0.113031 0
M  V30 27 C 0.046121 -6.219837 0.371946 0
M  V30 28 Cl -0.673505 -7.771172 0.097452 0
M  V30 29 H 1.300118 -9.391885 0.754623 0
M  V30 30 H 0.691888 -9.293739 1.835624 0
M  V30 31 H 2.787134 -4.850549 1.906266 0
M  V30 32 H 2.519721 0.073147 1.210518 0
M  V30 33 H 2.451920 2.566309 0.900851 0
M  V30 34 H 0.316749 6.412929 -0.863799 0
M  V30 35 H -0.781142 8.083477 0.466196 0
M  V30 36 H -0.753540 3.403097 1.890538 0
M  V30 37 H -1.186155 2.186605 -1.287257 0
M  V30 38 H -1.140900 -0.202794 -1.002839 0
M  V30 39 H -1.089048 -2.231973 -0.754464 0
M  V30 40 H -1.446023 -5.073233 -0.667575 0
M  V30 END ATOM
M  V30 BEGIN BOND
M  V30 1 1 1 2
M  V30 2 2 2 3
M  V30 3 1 2 4
M  V30 4 2 4 5
M  V30 5 1 5 6
M  V30 6 1 6 7
M  V30 7 2 7 8
M  V30 8 1 8 9
M  V30 9 2 9 10
M  V30 10 1 10 11
M  V30 11 2 11 12
M  V30 12 1 12 13
M  V30 13 1 13 14
M  V30 14 2 14 15
M  V30 15 1 15 16
M  V30 16 2 16 17
M  V30 17 1 17 18
M  V30 18 1 17 19
M  V30 19 1 19 20
M  V30 20 2 19 21
M  V30 21 1 12 22
M  V30 22 2 22 23
M  V30 23 1 8 24
M  V30 24 1 24 25
M  V30 25 1 25 26
M  V30 26 2 26 27
M  V30 27 1 27 28
M  V30 28 1 27 4
M  V30 29 2 25 6
M  V30 30 1 23 9
M  V30 31 1 21 14
M  V30 32 1 1 29
M  V30 33 1 1 30
M  V30 34 1 5 31
M  V30 35 1 10 32
M  V30 36 1 11 33
M  V30 37 1 15 34
M  V30 38 1 16 35
M  V30 39 1 21 36
M  V30 40 1 22 37
M  V30 41 1 23 38
M  V30 42 1 24 39
M  V30 43 1 26 40
M  V30 END BOND
M  V30 END CTAB
M  END
>  <Dataset>  (881) 
ChEMBL_Kinases

>  <Ligand_Instance>  (881) 
nan

>  <PDB_ID>  (881) 
nan

>  <Standardized_SMILES>  (881) 
NC(=O)c1cc2nc(-c3ccc(Oc4ccc(Cl)c(Cl)c4)cc3)[nH]c2cc1Cl

>  <Name>  (881) 
nan

>  <Pocket>  (881) 
nan

>  <ATP_Site>  (881) 
nan

>  <Peripheral>  (881) 
nan

>  <Num_H_Atoms_ProtBoundConf>  (881) 
nan

>  <Num_Resolved_Atoms>  (881) 
nan

>  <Num_Not_Resolved_Atoms>  (881) 
nan

$$$$
CHEMBL488871
     RDKit          3D

  0  0  0  0  0  0  0  0  0  0999 V3000
M  V30 BEGIN CTAB
M  V30 COUNTS 59 61 0 0 0
M  V30 BEGIN ATOM
M  V30 1 C -0.066305 2.034363 3.325085 0
M  V30 2 C 1.205704 2.199352 4.082029 0
M  V30 3 C 2.398365 1.491111 3.530008 0
M  V30 4 C 2.810534 1.904535 2.163820 0
M  V30 5 C 4.031899 1.146095 1.676930 0
M  V30 6 C 3.882272 -0.326823 1.613641 0
M  V30 7 C 2.794795 -0.825281 0.702434 0
M  V30 8 C 1.770707 2.019971 1.152906 0
M  V30 9 O 1.573252 3.134819 0.558469 0
M  V30 10 O 0.760916 1.512455 0.398298 0
M  V30 11 C 0.080718 2.316417 -0.539926 0
M  V30 12 C -0.965937 1.428473 -1.206125 0
M  V30 13 C -1.727138 2.231945 -2.231924 0
M  V30 14 O -2.411604 3.242378 -1.558690 0
M  V30 15 C -1.947695 0.843919 -0.231227 0
M  V30 16 C -1.861423 -0.604964 -0.449866 0
M  V30 17 C -2.572686 -1.636440 -0.057957 0
M  V30 18 C -2.434599 -3.048377 -0.304893 0
M  V30 19 C -3.532841 -3.786311 -0.631360 0
M  V30 20 C -3.656616 -5.157781 -0.891631 0
M  V30 21 C -2.382644 -5.742067 -0.763181 0
M  V30 22 C -2.307298 -7.124637 -0.987059 0
M  V30 23 C -1.069243 -7.773067 -0.873667 0
M  V30 24 C 0.062510 -7.026370 -0.539689 0
M  V30 25 C -0.008046 -5.667369 -0.319420 0
M  V30 26 C -1.237160 -5.059329 -0.438220 0
M  V30 27 N -1.281869 -3.734867 -0.216632 0
M  V30 28 C -0.721846 -0.828967 -1.324010 0
M  V30 29 O -0.152581 -1.890939 -1.673605 0
M  V30 30 O -0.249483 0.377877 -1.806979 0
M  V30 31 H -0.222107 2.836885 2.582571 0
M  V30 32 H -0.156151 1.008262 2.898517 0
M  V30 33 H -0.971118 2.138620 4.009068 0
M  V30 34 H 1.024486 1.805182 5.128467 0
M  V30 35 H 1.445153 3.291701 4.199070 0
M  V30 36 H 2.151419 0.405928 3.522817 0
M  V30 37 H 3.258758 1.703803 4.209419 0
M  V30 38 H 3.211090 2.974880 2.304292 0
M  V30 39 H 4.921881 1.444249 2.242449 0
M  V30 40 H 4.219059 1.510352 0.631016 0
M  V30 41 H 3.740712 -0.808705 2.604865 0
M  V30 42 H 4.845937 -0.782863 1.236574 0
M  V30 43 H 1.808222 -0.860275 1.200338 0
M  V30 44 H 2.732837 -0.259058 -0.224941 0
M  V30 45 H 2.997537 -1.890591 0.379940 0
M  V30 46 H 0.834275 2.591972 -1.328249 0
M  V30 47 H -0.441149 3.178623 -0.131404 0
M  V30 48 H -2.426480 1.561341 -2.768494 0
M  V30 49 H -1.039329 2.660524 -3.003423 0
M  V30 50 H -2.605183 4.001728 -2.153181 0
M  V30 51 H -1.585720 1.028310 0.805751 0
M  V30 52 H -2.959319 1.272675 -0.394765 0
M  V30 53 H -3.438218 -1.392049 0.581501 0
M  V30 54 H -4.491851 -3.247319 -0.711613 0
M  V30 55 H -4.551501 -5.670308 -1.143537 0
M  V30 56 H -3.212321 -7.694986 -1.248615 0
M  V30 57 H -1.081691 -8.838387 -1.058989 0
M  V30 58 H 1.009961 -7.551273 -0.457321 0
M  V30 59 H 0.865023 -5.084281 -0.060131 0
M  V30 END ATOM
M  V30 BEGIN BOND
M  V30 1 1 1 2
M  V30 2 1 2 3
M  V30 3 1 3 4
M  V30 4 1 4 5
M  V30 5 1 5 6
M  V30 6 1 6 7
M  V30 7 1 4 8
M  V30 8 2 8 9
M  V30 9 1 8 10
M  V30 10 1 10 11
M  V30 11 1 11 12
M  V30 12 1 12 13
M  V30 13 1 13 14
M  V30 14 1 12 15
M  V30 15 1 15 16
M  V30 16 2 16 17
M  V30 17 1 17 18
M  V30 18 2 18 19
M  V30 19 1 19 20
M  V30 20 2 20 21
M  V30 21 1 21 22
M  V30 22 2 22 23
M  V30 23 1 23 24
M  V30 24 2 24 25
M  V30 25 1 25 26
M  V30 26 2 26 27
M  V30 27 1 16 28
M  V30 28 2 28 29
M  V30 29 1 28 30
M  V30 30 1 30 12
M  V30 31 1 27 18
M  V30 32 1 26 21
M  V30 33 1 1 31
M  V30 34 1 1 32
M  V30 35 1 1 33
M  V30 36 1 2 34
M  V30 37 1 2 35
M  V30 38 1 3 36
M  V30 39 1 3 37
M  V30 40 1 4 38
M  V30 41 1 5 39
M  V30 42 1 5 40
M  V30 43 1 6 41
M  V30 44 1 6 42
M  V30 45 1 7 43
M  V30 46 1 7 44
M  V30 47 1 7 45
M  V30 48 1 11 46
M  V30 49 1 11 47
M  V30 50 1 13 48
M  V30 51 1 13 49
M  V30 52 1 14 50
M  V30 53 1 15 51
M  V30 54 1 15 52
M  V30 55 1 17 53
M  V30 56 1 19 54
M  V30 57 1 20 55
M  V30 58 1 22 56
M  V30 59 1 23 57
M  V30 60 1 24 58
M  V30 61 1 25 59
M  V30 END BOND
M  V30 END CTAB
M  END
>  <Dataset>  (882) 
ChEMBL_Kinases

>  <Ligand_Instance>  (882) 
nan

>  <PDB_ID>  (882) 
nan

>  <Standardized_SMILES>  (882) 
CCCC(CCC)C(=O)OCC1(CO)C/C(=C/c2ccc3ccccc3n2)C(=O)O1

>  <Name>  (882) 
nan

>  <Pocket>  (882) 
nan

>  <ATP_Site>  (882) 
nan

>  <Peripheral>  (882) 
nan

>  <Num_H_Atoms_ProtBoundConf>  (882) 
nan

>  <Num_Resolved_Atoms>  (882) 
nan

>  <Num_Not_Resolved_Atoms>  (882) 
nan

$$$$
CHEMBL605726
     RDKit          3D

  0  0  0  0  0  0  0  0  0  0999 V3000
M  V30 BEGIN CTAB
M  V30 COUNTS 44 48 0 0 0
M  V30 BEGIN ATOM
M  V30 1 C 1.282028 -2.723023 -2.166574 0
M  V30 2 N 0.916320 -2.704187 -0.754923 0
M  V30 3 C 0.682341 -1.545671 -0.102182 0
M  V30 4 C 0.735993 -0.192397 -0.605488 0
M  V30 5 C -0.343935 0.654534 -0.655726 0
M  V30 6 C -0.284593 1.958398 -1.142493 0
M  V30 7 C 0.930169 2.444525 -1.607554 0
M  V30 8 N 1.038237 3.697110 -2.087313 0
M  V30 9 C 2.236435 4.112520 -2.522799 0
M  V30 10 C 3.365077 3.304008 -2.498073 0
M  V30 11 N 3.222955 2.044185 -2.007593 0
M  V30 12 C 2.041310 1.609102 -1.568910 0
M  V30 13 C 1.940457 0.307455 -1.073079 0
M  V30 14 C 0.359721 -1.836383 1.210233 0
M  V30 15 C 0.017575 -0.994372 2.350846 0
M  V30 16 C 0.777157 -0.048328 2.983635 0
M  V30 17 C 0.270747 0.652420 4.058597 0
M  V30 18 C -1.023779 0.407716 4.517621 0
M  V30 19 N -1.743042 0.944157 5.528556 0
M  V30 20 C -2.969768 0.351401 5.557839 0
M  V30 21 C -3.030544 -0.580548 4.544619 0
M  V30 22 C -1.822572 -0.553621 3.889879 0
M  V30 23 C -1.281094 -1.239787 2.811420 0
M  V30 24 C 0.412448 -3.210682 1.306279 0
M  V30 25 O 0.207660 -3.980180 2.267124 0
M  V30 26 N 0.754190 -3.707675 0.091877 0
M  V30 27 C 0.943640 -5.083159 -0.341070 0
M  V30 28 H 0.779180 -1.896467 -2.720641 0
M  V30 29 H 2.368357 -2.647592 -2.326150 0
M  V30 30 H 0.841156 -3.682445 -2.567209 0
M  V30 31 H -1.289365 0.297583 -0.301534 0
M  V30 32 H -1.156624 2.610589 -1.171570 0
M  V30 33 H 2.412765 5.113365 -2.927535 0
M  V30 34 H 4.327077 3.640990 -2.848963 0
M  V30 35 H 2.836314 -0.320436 -1.058489 0
M  V30 36 H 1.763107 0.069976 2.557514 0
M  V30 37 H 0.916305 1.383551 4.514436 0
M  V30 38 H -1.368658 1.701324 6.167445 0
M  V30 39 H -3.767720 0.576470 6.263349 0
M  V30 40 H -3.857457 -1.235198 4.277593 0
M  V30 41 H -1.970417 -1.973629 2.377321 0
M  V30 42 H 1.760259 -5.171032 -1.081125 0
M  V30 43 H 1.134998 -5.725440 0.555589 0
M  V30 44 H 0.033473 -5.499945 -0.817196 0
M  V30 END ATOM
M  V30 BEGIN BOND
M  V30 1 1 1 2
M  V30 2 1 2 3
M  V30 3 1 3 4
M  V30 4 2 4 5
M  V30 5 1 5 6
M  V30 6 2 6 7
M  V30 7 1 7 8
M  V30 8 2 8 9
M  V30 9 1 9 10
M  V30 10 2 10 11
M  V30 11 1 11 12
M  V30 12 2 12 13
M  V30 13 2 3 14
M  V30 14 1 14 15
M  V30 15 2 15 16
M  V30 16 1 16 17
M  V30 17 2 17 18
M  V30 18 1 18 19
M  V30 19 1 19 20
M  V30 20 2 20 21
M  V30 21 1 21 22
M  V30 22 2 22 23
M  V30 23 1 14 24
M  V30 24 2 24 25
M  V30 25 1 24 26
M  V30 26 1 26 27
M  V30 27 1 26 2
M  V30 28 1 13 4
M  V30 29 1 23 15
M  V30 30 1 12 7
M  V30 31 1 22 18
M  V30 32 1 1 28
M  V30 33 1 1 29
M  V30 34 1 1 30
M  V30 35 1 5 31
M  V30 36 1 6 32
M  V30 37 1 9 33
M  V30 38 1 10 34
M  V30 39 1 13 35
M  V30 40 1 16 36
M  V30 41 1 17 37
M  V30 42 1 19 38
M  V30 43 1 20 39
M  V30 44 1 21 40
M  V30 45 1 23 41
M  V30 46 1 27 42
M  V30 47 1 27 43
M  V30 48 1 27 44
M  V30 END BOND
M  V30 END CTAB
M  END
>  <Dataset>  (883) 
ChEMBL_Kinases

>  <Ligand_Instance>  (883) 
nan

>  <PDB_ID>  (883) 
nan

>  <Standardized_SMILES>  (883) 
Cn1c(-c2ccc3nccnc3c2)c(-c2ccc3[nH]ccc3c2)c(=O)n1C

>  <Name>  (883) 
nan

>  <Pocket>  (883) 
nan

>  <ATP_Site>  (883) 
nan

>  <Peripheral>  (883) 
nan

>  <Num_H_Atoms_ProtBoundConf>  (883) 
nan

>  <Num_Resolved_Atoms>  (883) 
nan

>  <Num_Not_Resolved_Atoms>  (883) 
nan

$$$$
CHEMBL488870
     RDKit          3D

  0  0  0  0  0  0  0  0  0  0999 V3000
M  V30 BEGIN CTAB
M  V30 COUNTS 52 54 0 0 0
M  V30 BEGIN ATOM
M  V30 1 C -2.155289 -4.058526 -2.055384 0
M  V30 2 C -1.588046 -3.090303 -1.051733 0
M  V30 3 C -0.602757 -3.737505 -0.113889 0
M  V30 4 C -0.115350 -2.699475 0.816701 0
M  V30 5 O -0.065637 -2.441322 2.040814 0
M  V30 6 O 0.538196 -1.535022 0.369260 0
M  V30 7 C 0.988469 -0.570917 1.300585 0
M  V30 8 C 1.636862 0.615130 0.642408 0
M  V30 9 C 2.857513 0.285540 -0.149733 0
M  V30 10 O 3.850786 -0.368672 0.568814 0
M  V30 11 C 1.922508 1.679762 1.711204 0
M  V30 12 C 0.536532 2.213342 1.883270 0
M  V30 13 C -0.073488 2.843562 2.849231 0
M  V30 14 C -1.424998 3.354659 2.986851 0
M  V30 15 C -2.081740 2.959153 4.149599 0
M  V30 16 C -3.353074 3.345286 4.495404 0
M  V30 17 C -4.001363 4.183147 3.612639 0
M  V30 18 F -5.266129 4.594881 3.909178 0
M  V30 19 C -3.414558 4.618270 2.440085 0
M  V30 20 Br -4.279634 5.776481 1.208488 0
M  V30 21 C -2.134765 4.180826 2.172380 0
M  V30 22 C -0.215169 1.850009 0.662743 0
M  V30 23 O -1.463035 2.009961 0.434763 0
M  V30 24 O 0.714214 1.279891 -0.222835 0
M  V30 25 C 0.550871 -4.324957 -0.837280 0
M  V30 26 C 0.790052 -5.668425 -0.665028 0
M  V30 27 C 1.864286 -6.251068 -1.329338 0
M  V30 28 C 2.663174 -5.495761 -2.137586 0
M  V30 29 C 2.394394 -4.130496 -2.293538 0
M  V30 30 C 1.335641 -3.528082 -1.645970 0
M  V30 31 H -2.698582 -4.904184 -1.584154 0
M  V30 32 H -1.451416 -4.349395 -2.844208 0
M  V30 33 H -2.967713 -3.480350 -2.586035 0
M  V30 34 H -2.412179 -2.661808 -0.476608 0
M  V30 35 H -1.072289 -2.296676 -1.621054 0
M  V30 36 H -1.123798 -4.511806 0.466659 0
M  V30 37 H 0.120924 -0.246456 1.887431 0
M  V30 38 H 1.700891 -1.018302 2.030894 0
M  V30 39 H 2.541792 -0.412444 -0.952153 0
M  V30 40 H 3.231929 1.224882 -0.609053 0
M  V30 41 H 4.708275 -0.131678 0.123262 0
M  V30 42 H 2.333057 1.190176 2.592193 0
M  V30 43 H 2.573759 2.429198 1.237941 0
M  V30 44 H 0.561936 3.014400 3.717745 0
M  V30 45 H -1.614376 2.297344 4.876291 0
M  V30 46 H -3.841995 3.030616 5.393127 0
M  V30 47 H -1.659246 4.518854 1.284362 0
M  V30 48 H 0.227520 -6.346962 -0.055827 0
M  V30 49 H 2.101692 -7.312363 -1.229715 0
M  V30 50 H 3.523761 -5.837358 -2.701558 0
M  V30 51 H 3.016156 -3.503533 -2.932058 0
M  V30 52 H 1.155773 -2.478065 -1.785895 0
M  V30 END ATOM
M  V30 BEGIN BOND
M  V30 1 1 1 2
M  V30 2 1 2 3
M  V30 3 1 3 4
M  V30 4 2 4 5
M  V30 5 1 4 6
M  V30 6 1 6 7
M  V30 7 1 7 8
M  V30 8 1 8 9
M  V30 9 1 9 10
M  V30 10 1 8 11
M  V30 11 1 11 12
M  V30 12 2 12 13
M  V30 13 1 13 14
M  V30 14 2 14 15
M  V30 15 1 15 16
M  V30 16 2 16 17
M  V30 17 1 17 18
M  V30 18 1 17 19
M  V30 19 1 19 20
M  V30 20 2 19 21
M  V30 21 1 12 22
M  V30 22 2 22 23
M  V30 23 1 22 24
M  V30 24 1 3 25
M  V30 25 2 25 26
M  V30 26 1 26 27
M  V30 27 2 27 28
M  V30 28 1 28 29
M  V30 29 2 29 30
M  V30 30 1 24 8
M  V30 31 1 30 25
M  V30 32 1 21 14
M  V30 33 1 1 31
M  V30 34 1 1 32
M  V30 35 1 1 33
M  V30 36 1 2 34
M  V30 37 1 2 35
M  V30 38 1 3 36
M  V30 39 1 7 37
M  V30 40 1 7 38
M  V30 41 1 9 39
M  V30 42 1 9 40
M  V30 43 1 10 41
M  V30 44 1 11 42
M  V30 45 1 11 43
M  V30 46 1 13 44
M  V30 47 1 15 45
M  V30 48 1 16 46
M  V30 49 1 21 47
M  V30 50 1 26 48
M  V30 51 1 27 49
M  V30 52 1 28 50
M  V30 53 1 29 51
M  V30 54 1 30 52
M  V30 END BOND
M  V30 END CTAB
M  END
>  <Dataset>  (884) 
ChEMBL_Kinases

>  <Ligand_Instance>  (884) 
nan

>  <PDB_ID>  (884) 
nan

>  <Standardized_SMILES>  (884) 
CCC(C(=O)OCC1(CO)C/C(=C/c2ccc(F)c(Br)c2)C(=O)O1)c1ccccc1

>  <Name>  (884) 
nan

>  <Pocket>  (884) 
nan

>  <ATP_Site>  (884) 
nan

>  <Peripheral>  (884) 
nan

>  <Num_H_Atoms_ProtBoundConf>  (884) 
nan

>  <Num_Resolved_Atoms>  (884) 
nan

>  <Num_Not_Resolved_Atoms>  (884) 
nan

$$$$
CHEMBL488858
     RDKit          3D

  0  0  0  0  0  0  0  0  0  0999 V3000
M  V30 BEGIN CTAB
M  V30 COUNTS 60 61 0 0 0
M  V30 BEGIN ATOM
M  V30 1 C 1.775028 -2.166799 6.878332 0
M  V30 2 C 1.448208 -1.702367 5.477605 0
M  V30 3 C 2.083966 -0.339882 5.286500 0
M  V30 4 C 1.854675 0.233408 3.941999 0
M  V30 5 C 2.382189 -0.451047 2.751785 0
M  V30 6 C 3.852106 -0.557799 2.686445 0
M  V30 7 C 4.590126 -1.287517 3.746994 0
M  V30 8 C 1.848940 0.303918 1.549037 0
M  V30 9 O 2.340723 0.936154 0.568279 0
M  V30 10 O 0.460936 0.354649 1.429818 0
M  V30 11 C -0.171271 1.015802 0.371440 0
M  V30 12 C -1.679565 0.960255 0.413080 0
M  V30 13 C -2.206637 1.622732 1.655483 0
M  V30 14 O -1.741446 1.080473 2.829112 0
M  V30 15 C -2.164104 -0.477589 0.283907 0
M  V30 16 C -2.237941 -0.610873 -1.183679 0
M  V30 17 C -2.033886 -1.573526 -2.063746 0
M  V30 18 C -2.136382 -1.603913 -3.535433 0
M  V30 19 C -3.071207 -2.691026 -4.022730 0
M  V30 20 C -3.098672 -2.655494 -5.515974 0
M  V30 21 C -2.210191 -1.621718 -6.138639 0
M  V30 22 C -0.819347 -1.622574 -5.590814 0
M  V30 23 C -0.763488 -1.981630 -4.120464 0
M  V30 24 C -2.649614 0.707349 -1.652770 0
M  V30 25 O -3.249625 0.976228 -2.737973 0
M  V30 26 O -2.261704 1.644331 -0.680758 0
M  V30 27 H 1.858413 -3.271284 6.903001 0
M  V30 28 H 2.770533 -1.752774 7.152984 0
M  V30 29 H 1.025555 -1.795782 7.618463 0
M  V30 30 H 0.342493 -1.523783 5.388077 0
M  V30 31 H 1.761491 -2.455655 4.766853 0
M  V30 32 H 3.119250 -0.305465 5.626508 0
M  V30 33 H 1.492905 0.328967 6.002382 0
M  V30 34 H 2.324660 1.273445 3.970784 0
M  V30 35 H 0.754064 0.502194 3.825399 0
M  V30 36 H 1.974349 -1.489614 2.620679 0
M  V30 37 H 4.182868 -0.988330 1.698971 0
M  V30 38 H 4.313467 0.494539 2.663562 0
M  V30 39 H 5.109308 -0.587547 4.471438 0
M  V30 40 H 3.993509 -2.044266 4.251321 0
M  V30 41 H 5.478629 -1.804451 3.255882 0
M  V30 42 H 0.223297 0.668871 -0.602915 0
M  V30 43 H 0.088523 2.100079 0.476775 0
M  V30 44 H -1.851426 2.682900 1.609664 0
M  V30 45 H -3.313719 1.641060 1.587612 0
M  V30 46 H -1.529823 1.783550 3.476985 0
M  V30 47 H -1.399218 -1.117717 0.755234 0
M  V30 48 H -3.126462 -0.644956 0.794715 0
M  V30 49 H -1.731757 -2.526846 -1.609938 0
M  V30 50 H -2.403609 -0.679253 -4.026735 0
M  V30 51 H -4.083287 -2.601170 -3.560739 0
M  V30 52 H -2.668804 -3.689724 -3.712156 0
M  V30 53 H -4.137115 -2.474602 -5.901357 0
M  V30 54 H -2.801429 -3.644679 -5.971497 0
M  V30 55 H -2.674535 -0.593821 -6.172609 0
M  V30 56 H -2.113463 -1.900174 -7.228495 0
M  V30 57 H -0.433399 -0.563706 -5.658168 0
M  V30 58 H -0.141157 -2.271292 -6.186794 0
M  V30 59 H 0.049545 -1.488056 -3.576997 0
M  V30 60 H -0.638796 -3.097166 -4.070857 0
M  V30 END ATOM
M  V30 BEGIN BOND
M  V30 1 1 1 2
M  V30 2 1 2 3
M  V30 3 1 3 4
M  V30 4 1 4 5
M  V30 5 1 5 6
M  V30 6 1 6 7
M  V30 7 1 5 8
M  V30 8 2 8 9
M  V30 9 1 8 10
M  V30 10 1 10 11
M  V30 11 1 11 12
M  V30 12 1 12 13
M  V30 13 1 13 14
M  V30 14 1 12 15
M  V30 15 1 15 16
M  V30 16 2 16 17
M  V30 17 1 17 18
M  V30 18 1 18 19
M  V30 19 1 19 20
M  V30 20 1 20 21
M  V30 21 1 21 22
M  V30 22 1 22 23
M  V30 23 1 16 24
M  V30 24 2 24 25
M  V30 25 1 24 26
M  V30 26 1 26 12
M  V30 27 1 23 18
M  V30 28 1 1 27
M  V30 29 1 1 28
M  V30 30 1 1 29
M  V30 31 1 2 30
M  V30 32 1 2 31
M  V30 33 1 3 32
M  V30 34 1 3 33
M  V30 35 1 4 34
M  V30 36 1 4 35
M  V30 37 1 5 36
M  V30 38 1 6 37
M  V30 39 1 6 38
M  V30 40 1 7 39
M  V30 41 1 7 40
M  V30 42 1 7 41
M  V30 43 1 11 42
M  V30 44 1 11 43
M  V30 45 1 13 44
M  V30 46 1 13 45
M  V30 47 1 14 46
M  V30 48 1 15 47
M  V30 49 1 15 48
M  V30 50 1 17 49
M  V30 51 1 18 50
M  V30 52 1 19 51
M  V30 53 1 19 52
M  V30 54 1 20 53
M  V30 55 1 20 54
M  V30 56 1 21 55
M  V30 57 1 21 56
M  V30 58 1 22 57
M  V30 59 1 22 58
M  V30 60 1 23 59
M  V30 61 1 23 60
M  V30 END BOND
M  V30 END CTAB
M  END
>  <Dataset>  (885) 
ChEMBL_Kinases

>  <Ligand_Instance>  (885) 
nan

>  <PDB_ID>  (885) 
nan

>  <Standardized_SMILES>  (885) 
CCCCC(CC)C(=O)OCC1(CO)C/C(=C/C2CCCCC2)C(=O)O1

>  <Name>  (885) 
nan

>  <Pocket>  (885) 
nan

>  <ATP_Site>  (885) 
nan

>  <Peripheral>  (885) 
nan

>  <Num_H_Atoms_ProtBoundConf>  (885) 
nan

>  <Num_Resolved_Atoms>  (885) 
nan

>  <Num_Not_Resolved_Atoms>  (885) 
nan

$$$$
CHEMBL4877686
     RDKit          3D

  0  0  0  0  0  0  0  0  0  0999 V3000
M  V30 BEGIN CTAB
M  V30 COUNTS 33 35 0 0 0
M  V30 BEGIN ATOM
M  V30 1 C -0.146647 -1.398819 2.214975 0
M  V30 2 C 0.626456 -2.556599 1.713890 0
M  V30 3 C 0.972948 -3.604993 2.579869 0
M  V30 4 C 1.681080 -4.747031 2.231550 0
M  V30 5 N 2.028068 -4.771222 0.924926 0
M  V30 6 N 1.706392 -3.790892 0.102164 0
M  V30 7 N 1.987662 -3.726440 -1.181203 0
M  V30 8 C 1.505960 -2.589208 -1.727107 0
M  V30 9 C 0.869108 -1.885418 -0.693135 0
M  V30 10 C 0.188340 -0.609748 -0.823648 0
M  V30 11 C -0.148489 -0.300932 -2.150016 0
M  V30 12 C -0.835266 0.826459 -2.616778 0
M  V30 13 N -1.213804 1.722124 -1.659442 0
M  V30 14 C -0.907932 1.464768 -0.370106 0
M  V30 15 N -1.163816 2.230259 0.791349 0
M  V30 16 C -0.061306 3.017589 1.296802 0
M  V30 17 C -2.433826 2.276900 1.489870 0
M  V30 18 N -0.266732 0.377291 -0.065544 0
M  V30 19 C 1.029188 -2.684548 0.406137 0
M  V30 20 H -1.153246 -1.302143 1.750862 0
M  V30 21 H -0.429683 -1.657026 3.294026 0
M  V30 22 H 0.432895 -0.475474 2.341374 0
M  V30 23 H 0.664564 -3.532049 3.636835 0
M  V30 24 H 1.887067 -5.487264 2.988360 0
M  V30 25 H 1.597091 -2.276941 -2.778660 0
M  V30 26 H 0.102433 -0.943530 -3.007682 0
M  V30 27 H -1.061391 1.013470 -3.637825 0
M  V30 28 H -0.214824 3.229909 2.391269 0
M  V30 29 H 0.086977 3.981990 0.790102 0
M  V30 30 H 0.867307 2.391738 1.266122 0
M  V30 31 H -2.641520 1.254071 1.831466 0
M  V30 32 H -3.206583 2.592711 0.759910 0
M  V30 33 H -2.407492 2.978924 2.344395 0
M  V30 END ATOM
M  V30 BEGIN BOND
M  V30 1 1 1 2
M  V30 2 2 2 3
M  V30 3 1 3 4
M  V30 4 2 4 5
M  V30 5 1 5 6
M  V30 6 1 6 7
M  V30 7 2 7 8
M  V30 8 1 8 9
M  V30 9 1 9 10
M  V30 10 2 10 11
M  V30 11 1 11 12
M  V30 12 2 12 13
M  V30 13 1 13 14
M  V30 14 1 14 15
M  V30 15 1 15 16
M  V30 16 1 15 17
M  V30 17 2 14 18
M  V30 18 2 9 19
M  V30 19 1 19 2
M  V30 20 1 19 6
M  V30 21 1 18 10
M  V30 22 1 1 20
M  V30 23 1 1 21
M  V30 24 1 1 22
M  V30 25 1 3 23
M  V30 26 1 4 24
M  V30 27 1 8 25
M  V30 28 1 11 26
M  V30 29 1 12 27
M  V30 30 1 16 28
M  V30 31 1 16 29
M  V30 32 1 16 30
M  V30 33 1 17 31
M  V30 34 1 17 32
M  V30 35 1 17 33
M  V30 END BOND
M  V30 END CTAB
M  END
>  <Dataset>  (886) 
ChEMBL_Kinases

>  <Ligand_Instance>  (886) 
nan

>  <PDB_ID>  (886) 
nan

>  <Standardized_SMILES>  (886) 
Cc1ccnn2ncc(-c3ccnc(N(C)C)n3)c12

>  <Name>  (886) 
nan

>  <Pocket>  (886) 
nan

>  <ATP_Site>  (886) 
nan

>  <Peripheral>  (886) 
nan

>  <Num_H_Atoms_ProtBoundConf>  (886) 
nan

>  <Num_Resolved_Atoms>  (886) 
nan

>  <Num_Not_Resolved_Atoms>  (886) 
nan

$$$$
CHEMBL488670
     RDKit          3D

  0  0  0  0  0  0  0  0  0  0999 V3000
M  V30 BEGIN CTAB
M  V30 COUNTS 50 52 0 0 0
M  V30 BEGIN ATOM
M  V30 1 C 4.872813 -6.650583 2.240187 0
M  V30 2 N 3.753446 -5.780295 2.543506 0
M  V30 3 C 2.924897 -6.104663 3.667385 0
M  V30 4 C 3.434729 -4.616731 1.757597 0
M  V30 5 C 2.369740 -3.809745 2.115592 0
M  V30 6 C 2.004042 -2.691554 1.396518 0
M  V30 7 C 2.716288 -2.341452 0.266782 0
M  V30 8 C 2.326780 -1.148680 -0.523068 0
M  V30 9 O 2.897735 -0.728914 -1.558188 0
M  V30 10 O 1.239130 -0.447492 -0.078169 0
M  V30 11 C 0.673414 0.713800 -0.659799 0
M  V30 12 C -0.534958 1.003639 0.263008 0
M  V30 13 C 0.007478 1.139802 1.644916 0
M  V30 14 O -0.951023 1.148066 2.637769 0
M  V30 15 C -1.377930 2.118267 -0.225200 0
M  V30 16 C -2.579411 1.434289 -0.773452 0
M  V30 17 C -3.771406 1.912459 -1.085226 0
M  V30 18 C -4.201093 3.301381 -0.954645 0
M  V30 19 C -5.499607 3.447493 -0.425694 0
M  V30 20 C -6.085627 4.675483 -0.241603 0
M  V30 21 N -5.433499 5.799655 -0.564042 0
M  V30 22 C -4.183548 5.702057 -1.075612 0
M  V30 23 C -3.567903 4.463812 -1.270995 0
M  V30 24 C -2.177902 0.030714 -0.907090 0
M  V30 25 O -2.620757 -0.735322 -1.830021 0
M  V30 26 O -1.275190 -0.222413 0.133871 0
M  V30 27 C 3.785278 -3.136305 -0.105977 0
M  V30 28 C 4.157340 -4.269849 0.621186 0
M  V30 29 H 4.547812 -7.503126 1.603576 0
M  V30 30 H 5.227887 -7.127891 3.197610 0
M  V30 31 H 5.727677 -6.127808 1.808656 0
M  V30 32 H 3.156682 -5.509185 4.571089 0
M  V30 33 H 3.006910 -7.213176 3.837096 0
M  V30 34 H 1.863184 -5.974435 3.337534 0
M  V30 35 H 1.754200 -3.992974 2.982432 0
M  V30 36 H 1.158781 -2.066364 1.694700 0
M  V30 37 H 1.346572 1.597564 -0.588898 0
M  V30 38 H 0.338053 0.557744 -1.699809 0
M  V30 39 H 0.748890 0.313928 1.780849 0
M  V30 40 H 0.620601 2.073638 1.666081 0
M  V30 41 H -0.485537 0.996425 3.518217 0
M  V30 42 H -1.657044 2.776999 0.642819 0
M  V30 43 H -0.812436 2.673006 -0.998822 0
M  V30 44 H -4.529908 1.219032 -1.488748 0
M  V30 45 H -6.094065 2.563691 -0.136153 0
M  V30 46 H -7.089477 4.730434 0.170985 0
M  V30 47 H -3.558043 6.536230 -1.373371 0
M  V30 48 H -2.575707 4.316316 -1.676930 0
M  V30 49 H 4.306635 -2.816574 -0.995552 0
M  V30 50 H 4.996595 -4.871832 0.306365 0
M  V30 END ATOM
M  V30 BEGIN BOND
M  V30 1 1 1 2
M  V30 2 1 2 3
M  V30 3 1 2 4
M  V30 4 2 4 5
M  V30 5 1 5 6
M  V30 6 2 6 7
M  V30 7 1 7 8
M  V30 8 2 8 9
M  V30 9 1 8 10
M  V30 10 1 10 11
M  V30 11 1 11 12
M  V30 12 1 12 13
M  V30 13 1 13 14
M  V30 14 1 12 15
M  V30 15 1 15 16
M  V30 16 2 16 17
M  V30 17 1 17 18
M  V30 18 2 18 19
M  V30 19 1 19 20
M  V30 20 2 20 21
M  V30 21 1 21 22
M  V30 22 2 22 23
M  V30 23 1 16 24
M  V30 24 2 24 25
M  V30 25 1 24 26
M  V30 26 1 7 27
M  V30 27 2 27 28
M  V30 28 1 28 4
M  V30 29 1 26 12
M  V30 30 1 23 18
M  V30 31 1 1 29
M  V30 32 1 1 30
M  V30 33 1 1 31
M  V30 34 1 3 32
M  V30 35 1 3 33
M  V30 36 1 3 34
M  V30 37 1 5 35
M  V30 38 1 6 36
M  V30 39 1 11 37
M  V30 40 1 11 38
M  V30 41 1 13 39
M  V30 42 1 13 40
M  V30 43 1 14 41
M  V30 44 1 15 42
M  V30 45 1 15 43
M  V30 46 1 17 44
M  V30 47 1 19 45
M  V30 48 1 20 46
M  V30 49 1 22 47
M  V30 50 1 23 48
M  V30 51 1 27 49
M  V30 52 1 28 50
M  V30 END BOND
M  V30 END CTAB
M  END
>  <Dataset>  (887) 
ChEMBL_Kinases

>  <Ligand_Instance>  (887) 
nan

>  <PDB_ID>  (887) 
nan

>  <Standardized_SMILES>  (887) 
CN(C)c1ccc(C(=O)OCC2(CO)C/C(=C\c3ccncc3)C(=O)O2)cc1

>  <Name>  (887) 
nan

>  <Pocket>  (887) 
nan

>  <ATP_Site>  (887) 
nan

>  <Peripheral>  (887) 
nan

>  <Num_H_Atoms_ProtBoundConf>  (887) 
nan

>  <Num_Resolved_Atoms>  (887) 
nan

>  <Num_Not_Resolved_Atoms>  (887) 
nan

$$$$
CHEMBL488860
     RDKit          3D

  0  0  0  0  0  0  0  0  0  0999 V3000
M  V30 BEGIN CTAB
M  V30 COUNTS 53 55 0 0 0
M  V30 BEGIN ATOM
M  V30 1 C -0.401206 -7.143530 1.016072 0
M  V30 2 O -0.782100 -6.298118 -0.067840 0
M  V30 3 C -0.125460 -5.091459 -0.255197 0
M  V30 4 C 0.889896 -4.702711 0.595005 0
M  V30 5 C 1.515209 -3.480566 0.360215 0
M  V30 6 C 1.183143 -2.629930 -0.672403 0
M  V30 7 C 1.875564 -1.365516 -0.863733 0
M  V30 8 O 2.768312 -1.137091 -0.028791 0
M  V30 9 O 1.526301 -0.533478 -1.901310 0
M  V30 10 C 2.112868 0.698417 -2.180407 0
M  V30 11 C 1.982729 1.746050 -1.128641 0
M  V30 12 C 2.646124 3.032367 -1.608164 0
M  V30 13 O 2.428794 4.072505 -0.714104 0
M  V30 14 C 0.508805 2.034030 -0.914835 0
M  V30 15 C 0.298369 1.558488 0.476497 0
M  V30 16 C -0.773418 1.110913 1.158820 0
M  V30 17 C -0.874230 0.656433 2.556343 0
M  V30 18 C -1.454462 -0.743205 2.659383 0
M  V30 19 C -2.793649 -0.839827 1.976698 0
M  V30 20 C -3.770580 0.075930 2.640440 0
M  V30 21 C -3.202013 1.476894 2.625770 0
M  V30 22 C -1.843982 1.561597 3.274045 0
M  V30 23 C 1.596533 1.658897 1.127093 0
M  V30 24 O 1.766714 1.906157 2.363529 0
M  V30 25 O 2.548407 1.430465 0.116491 0
M  V30 26 C 0.159662 -3.065709 -1.495514 0
M  V30 27 C -0.485101 -4.269348 -1.297039 0
M  V30 28 H 0.610776 -7.568839 0.780778 0
M  V30 29 H -1.136167 -7.944742 1.149835 0
M  V30 30 H -0.361971 -6.548207 1.962861 0
M  V30 31 H 1.180163 -5.329753 1.407736 0
M  V30 32 H 2.296425 -3.217885 1.042491 0
M  V30 33 H 3.215250 0.543532 -2.405912 0
M  V30 34 H 1.670937 1.045885 -3.141270 0
M  V30 35 H 2.238966 3.309703 -2.594061 0
M  V30 36 H 3.736312 2.874321 -1.709249 0
M  V30 37 H 3.222616 4.233554 -0.141930 0
M  V30 38 H -0.137706 1.420166 -1.589508 0
M  V30 39 H 0.303460 3.121069 -1.007071 0
M  V30 40 H -1.681515 1.086930 0.566608 0
M  V30 41 H 0.079938 0.633347 3.113831 0
M  V30 42 H -0.819112 -1.532046 2.265171 0
M  V30 43 H -1.613384 -0.936343 3.740061 0
M  V30 44 H -2.666847 -0.666006 0.903499 0
M  V30 45 H -3.137608 -1.897644 2.164840 0
M  V30 46 H -3.961941 -0.299632 3.667913 0
M  V30 47 H -4.691541 0.085827 2.031352 0
M  V30 48 H -3.230672 1.827077 1.576233 0
M  V30 49 H -3.920171 2.182694 3.152857 0
M  V30 50 H -1.512389 2.619814 3.247488 0
M  V30 51 H -1.973901 1.255218 4.337790 0
M  V30 52 H -0.139824 -2.434643 -2.321795 0
M  V30 53 H -1.285260 -4.596031 -1.951367 0
M  V30 END ATOM
M  V30 BEGIN BOND
M  V30 1 1 1 2
M  V30 2 1 2 3
M  V30 3 2 3 4
M  V30 4 1 4 5
M  V30 5 2 5 6
M  V30 6 1 6 7
M  V30 7 2 7 8
M  V30 8 1 7 9
M  V30 9 1 9 10
M  V30 10 1 10 11
M  V30 11 1 11 12
M  V30 12 1 12 13
M  V30 13 1 11 14
M  V30 14 1 14 15
M  V30 15 2 15 16
M  V30 16 1 16 17
M  V30 17 1 17 18
M  V30 18 1 18 19
M  V30 19 1 19 20
M  V30 20 1 20 21
M  V30 21 1 21 22
M  V30 22 1 15 23
M  V30 23 2 23 24
M  V30 24 1 23 25
M  V30 25 1 6 26
M  V30 26 2 26 27
M  V30 27 1 27 3
M  V30 28 1 25 11
M  V30 29 1 22 17
M  V30 30 1 1 28
M  V30 31 1 1 29
M  V30 32 1 1 30
M  V30 33 1 4 31
M  V30 34 1 5 32
M  V30 35 1 10 33
M  V30 36 1 10 34
M  V30 37 1 12 35
M  V30 38 1 12 36
M  V30 39 1 13 37
M  V30 40 1 14 38
M  V30 41 1 14 39
M  V30 42 1 16 40
M  V30 43 1 17 41
M  V30 44 1 18 42
M  V30 45 1 18 43
M  V30 46 1 19 44
M  V30 47 1 19 45
M  V30 48 1 20 46
M  V30 49 1 20 47
M  V30 50 1 21 48
M  V30 51 1 21 49
M  V30 52 1 22 50
M  V30 53 1 22 51
M  V30 54 1 26 52
M  V30 55 1 27 53
M  V30 END BOND
M  V30 END CTAB
M  END
>  <Dataset>  (888) 
ChEMBL_Kinases

>  <Ligand_Instance>  (888) 
nan

>  <PDB_ID>  (888) 
nan

>  <Standardized_SMILES>  (888) 
COc1ccc(C(=O)OCC2(CO)C/C(=C/C3CCCCC3)C(=O)O2)cc1

>  <Name>  (888) 
nan

>  <Pocket>  (888) 
nan

>  <ATP_Site>  (888) 
nan

>  <Peripheral>  (888) 
nan

>  <Num_H_Atoms_ProtBoundConf>  (888) 
nan

>  <Num_Resolved_Atoms>  (888) 
nan

>  <Num_Not_Resolved_Atoms>  (888) 
nan

$$$$
CHEMBL488864
     RDKit          3D

  0  0  0  0  0  0  0  0  0  0999 V3000
M  V30 BEGIN CTAB
M  V30 COUNTS 56 59 0 0 0
M  V30 BEGIN ATOM
M  V30 1 O -1.606695 -3.153755 -0.283534 0
M  V30 2 C -0.598458 -3.256604 0.455315 0
M  V30 3 O -0.310632 -2.677001 1.706727 0
M  V30 4 C 1.079857 -2.403264 1.695602 0
M  V30 5 C 1.640565 -2.055167 3.033051 0
M  V30 6 O 1.463295 -3.089479 3.955284 0
M  V30 7 C 1.356716 -1.317707 0.715101 0
M  V30 8 O 0.694866 -0.105796 1.020386 0
M  V30 9 C 0.853257 0.981165 0.186479 0
M  V30 10 O 1.619725 0.494983 -0.682971 0
M  V30 11 C 0.274151 2.329772 0.303957 0
M  V30 12 C 0.727073 3.016257 1.553888 0
M  V30 13 C 0.788341 2.416612 2.791415 0
M  V30 14 C 1.221815 3.101636 3.889124 0
M  V30 15 C 1.619670 4.417319 3.829853 0
M  V30 16 C 1.571031 5.053760 2.600030 0
M  V30 17 C 1.133217 4.346713 1.513945 0
M  V30 18 C -1.198582 2.372842 0.238735 0
M  V30 19 C -2.009612 1.396867 0.769417 0
M  V30 20 C -3.374566 1.487423 0.681573 0
M  V30 21 C -3.986318 2.536021 0.071468 0
M  V30 22 C -3.230901 3.559829 -0.488020 0
M  V30 23 C -1.847768 3.421848 -0.372713 0
M  V30 24 C 1.608213 -3.747908 1.201426 0
M  V30 25 C 0.611195 -4.062104 0.170181 0
M  V30 26 C 0.656910 -4.881983 -0.848473 0
M  V30 27 C -0.317815 -5.220399 -1.871510 0
M  V30 28 C 0.206238 -5.105219 -3.167356 0
M  V30 29 C -0.522373 -5.396003 -4.289133 0
M  V30 30 C -1.822917 -5.818624 -4.132806 0
M  V30 31 Cl -2.771386 -6.195424 -5.547550 0
M  V30 32 C -2.384984 -5.948810 -2.878590 0
M  V30 33 F -3.640331 -6.354720 -2.663172 0
M  V30 34 C -1.623089 -5.647661 -1.769160 0
M  V30 35 H 1.203941 -1.103889 3.372402 0
M  V30 36 H 2.742027 -1.931241 2.890917 0
M  V30 37 H 2.299765 -3.604570 4.108668 0
M  V30 38 H 2.463578 -1.094878 0.776177 0
M  V30 39 H 1.205877 -1.638673 -0.348432 0
M  V30 40 H 0.666465 2.938695 -0.545966 0
M  V30 41 H 0.481211 1.380596 2.873076 0
M  V30 42 H 1.261273 2.609981 4.847394 0
M  V30 43 H 1.969617 5.009455 4.654683 0
M  V30 44 H 1.868243 6.081509 2.485663 0
M  V30 45 H 1.084877 4.815846 0.541189 0
M  V30 46 H -1.564943 0.527113 1.271392 0
M  V30 47 H -4.014297 0.708022 1.106439 0
M  V30 48 H -5.056395 2.663707 -0.029245 0
M  V30 49 H -3.632789 4.419373 -0.983980 0
M  V30 50 H -1.249548 4.227442 -0.812072 0
M  V30 51 H 1.604614 -4.447323 2.058071 0
M  V30 52 H 2.644096 -3.633239 0.831434 0
M  V30 53 H 1.627373 -5.408912 -0.927625 0
M  V30 54 H 1.236567 -4.775401 -3.381532 0
M  V30 55 H -0.114559 -5.305369 -5.298088 0
M  V30 56 H -1.983196 -5.739530 -0.755686 0
M  V30 END ATOM
M  V30 BEGIN BOND
M  V30 1 2 1 2
M  V30 2 1 2 3
M  V30 3 1 3 4
M  V30 4 1 4 5
M  V30 5 1 5 6
M  V30 6 1 4 7
M  V30 7 1 7 8
M  V30 8 1 8 9
M  V30 9 2 9 10
M  V30 10 1 9 11
M  V30 11 1 11 12
M  V30 12 2 12 13
M  V30 13 1 13 14
M  V30 14 2 14 15
M  V30 15 1 15 16
M  V30 16 2 16 17
M  V30 17 1 11 18
M  V30 18 2 18 19
M  V30 19 1 19 20
M  V30 20 2 20 21
M  V30 21 1 21 22
M  V30 22 2 22 23
M  V30 23 1 4 24
M  V30 24 1 24 25
M  V30 25 2 25 26
M  V30 26 1 26 27
M  V30 27 2 27 28
M  V30 28 1 28 29
M  V30 29 2 29 30
M  V30 30 1 30 31
M  V30 31 1 30 32
M  V30 32 1 32 33
M  V30 33 2 32 34
M  V30 34 1 25 2
M  V30 35 1 34 27
M  V30 36 1 17 12
M  V30 37 1 23 18
M  V30 38 1 5 35
M  V30 39 1 5 36
M  V30 40 1 6 37
M  V30 41 1 7 38
M  V30 42 1 7 39
M  V30 43 1 11 40
M  V30 44 1 13 41
M  V30 45 1 14 42
M  V30 46 1 15 43
M  V30 47 1 16 44
M  V30 48 1 17 45
M  V30 49 1 19 46
M  V30 50 1 20 47
M  V30 51 1 21 48
M  V30 52 1 22 49
M  V30 53 1 23 50
M  V30 54 1 24 51
M  V30 55 1 24 52
M  V30 56 1 26 53
M  V30 57 1 28 54
M  V30 58 1 29 55
M  V30 59 1 34 56
M  V30 END BOND
M  V30 END CTAB
M  END
>  <Dataset>  (889) 
ChEMBL_Kinases

>  <Ligand_Instance>  (889) 
nan

>  <PDB_ID>  (889) 
nan

>  <Standardized_SMILES>  (889) 
O=C1OC(CO)(COC(=O)C(c2ccccc2)c2ccccc2)C/C1=C/c1ccc(Cl)c(F)c1

>  <Name>  (889) 
nan

>  <Pocket>  (889) 
nan

>  <ATP_Site>  (889) 
nan

>  <Peripheral>  (889) 
nan

>  <Num_H_Atoms_ProtBoundConf>  (889) 
nan

>  <Num_Resolved_Atoms>  (889) 
nan

>  <Num_Not_Resolved_Atoms>  (889) 
nan

$$$$
CHEMBL605838
     RDKit          3D

  0  0  0  0  0  0  0  0  0  0999 V3000
M  V30 BEGIN CTAB
M  V30 COUNTS 59 64 0 0 0
M  V30 BEGIN ATOM
M  V30 1 C -0.428224 -4.788900 2.336285 0
M  V30 2 C 1.019312 -4.521939 2.342298 0
M  V30 3 N 1.973274 -5.030818 3.168390 0
M  V30 4 N 3.140776 -4.518982 2.817264 0
M  V30 5 C 2.962962 -3.682188 1.772587 0
M  V30 6 C 3.863205 -2.919935 1.060577 0
M  V30 7 C 3.460506 -2.120613 0.010219 0
M  V30 8 C 2.121490 -2.082521 -0.337562 0
M  V30 9 C 1.471678 -1.320878 -1.399050 0
M  V30 10 C 0.557303 -0.407663 -0.923090 0
M  V30 11 C -0.171473 0.416435 -1.749668 0
M  V30 12 O -1.104537 1.383359 -1.662978 0
M  V30 13 C -1.740112 1.981594 -0.584179 0
M  V30 14 C -0.767084 2.699695 0.308638 0 CFG=1
M  V30 15 N -0.050328 3.726137 -0.485975 0
M  V30 16 C -1.368291 3.331759 1.519974 0
M  V30 17 C -2.045009 2.370228 2.398659 0
M  V30 18 C -1.460706 1.770947 3.523429 0
M  V30 19 N -2.278636 0.906285 4.147383 0
M  V30 20 C -3.426937 0.910096 3.452773 0
M  V30 21 C -4.580477 0.196254 3.700237 0
M  V30 22 C -5.622691 0.406861 2.824553 0
M  V30 23 C -5.486238 1.288987 1.770500 0
M  V30 24 N -4.342057 1.962196 1.568840 0
M  V30 25 C -3.294933 1.788979 2.398270 0
M  V30 26 C 0.097071 0.245469 -3.121069 0
M  V30 27 N 1.002801 -0.658514 -3.603193 0
M  V30 28 C 1.693065 -1.445064 -2.736287 0
M  V30 29 C 2.685491 -2.447090 -3.101698 0
M  V30 30 C 3.903557 -2.472133 -3.750595 0
M  V30 31 C 4.341077 -3.799191 -3.763640 0
M  V30 32 O 3.431920 -4.545936 -3.151675 0
M  V30 33 C 2.436472 -3.772158 -2.747197 0
M  V30 34 C 1.204070 -2.850761 0.377837 0
M  V30 35 C 1.614996 -3.646919 1.426325 0
M  V30 36 H -0.775326 -5.168773 1.358914 0
M  V30 37 H -0.691181 -5.503828 3.162607 0
M  V30 38 H -0.974324 -3.854198 2.563431 0
M  V30 39 H 4.079638 -4.706491 3.254596 0
M  V30 40 H 4.926445 -2.888215 1.262110 0
M  V30 41 H 4.063423 -1.483106 -0.618834 0
M  V30 42 H 0.294984 -0.231090 0.101943 0
M  V30 43 H -2.439353 2.742909 -0.969884 0
M  V30 44 H -2.241372 1.220708 0.073544 0
M  V30 45 H 0.019793 2.008284 0.625288 0
M  V30 46 H 0.430005 3.228827 -1.260055 0
M  V30 47 H 0.678531 4.155601 0.145047 0
M  V30 48 H -2.058726 4.173662 1.269177 0
M  V30 49 H -0.544805 3.814363 2.122584 0
M  V30 50 H -0.433730 1.994344 3.852966 0
M  V30 51 H -2.003859 0.373008 4.999797 0
M  V30 52 H -4.670270 -0.486283 4.525274 0
M  V30 53 H -6.533187 -0.144698 3.005165 0
M  V30 54 H -6.348924 1.399027 1.128783 0
M  V30 55 H -0.314414 0.743509 -4.008204 0
M  V30 56 H 4.297084 -1.533988 -4.117800 0
M  V30 57 H 5.293728 -3.980131 -4.244181 0
M  V30 58 H 1.658331 -4.334774 -2.236280 0
M  V30 59 H 0.143084 -2.906680 0.206376 0
M  V30 END ATOM
M  V30 BEGIN BOND
M  V30 1 1 1 2
M  V30 2 2 2 3
M  V30 3 1 3 4
M  V30 4 1 4 5
M  V30 5 2 5 6
M  V30 6 1 6 7
M  V30 7 2 7 8
M  V30 8 1 8 9
M  V30 9 2 9 10
M  V30 10 1 10 11
M  V30 11 1 11 12
M  V30 12 1 12 13
M  V30 13 1 13 14
M  V30 14 1 14 15
M  V30 15 1 14 16
M  V30 16 1 16 17
M  V30 17 2 17 18
M  V30 18 1 18 19
M  V30 19 1 19 20
M  V30 20 2 20 21
M  V30 21 1 21 22
M  V30 22 2 22 23
M  V30 23 1 23 24
M  V30 24 2 24 25
M  V30 25 2 11 26
M  V30 26 1 26 27
M  V30 27 2 27 28
M  V30 28 1 28 29
M  V30 29 1 29 30
M  V30 30 2 30 31
M  V30 31 1 31 32
M  V30 32 1 32 33
M  V30 33 1 8 34
M  V30 34 2 34 35
M  V30 35 1 35 2
M  V30 36 1 35 5
M  V30 37 1 28 9
M  V30 38 2 33 29
M  V30 39 1 25 17
M  V30 40 1 25 20
M  V30 41 1 1 36
M  V30 42 1 1 37
M  V30 43 1 1 38
M  V30 44 1 4 39
M  V30 45 1 6 40
M  V30 46 1 7 41
M  V30 47 1 10 42
M  V30 48 1 13 43
M  V30 49 1 13 44
M  V30 50 1 14 45 CFG=1
M  V30 51 1 15 46
M  V30 52 1 15 47
M  V30 53 1 16 48
M  V30 54 1 16 49
M  V30 55 1 18 50
M  V30 56 1 19 51
M  V30 57 1 21 52
M  V30 58 1 22 53
M  V30 59 1 23 54
M  V30 60 1 26 55
M  V30 61 1 30 56
M  V30 62 1 31 57
M  V30 63 1 33 58
M  V30 64 1 34 59
M  V30 END BOND
M  V30 END CTAB
M  END
>  <Dataset>  (890) 
ChEMBL_Kinases

>  <Ligand_Instance>  (890) 
nan

>  <PDB_ID>  (890) 
nan

>  <Standardized_SMILES>  (890) 
Cc1n[nH]c2ccc(-c3cc(OC[C@@H](N)Cc4c[nH]c5cccnc45)cnc3-c3ccoc3)cc12

>  <Name>  (890) 
nan

>  <Pocket>  (890) 
nan

>  <ATP_Site>  (890) 
nan

>  <Peripheral>  (890) 
nan

>  <Num_H_Atoms_ProtBoundConf>  (890) 
nan

>  <Num_Resolved_Atoms>  (890) 
nan

>  <Num_Not_Resolved_Atoms>  (890) 
nan

$$$$
CHEMBL3912923
     RDKit          3D

  0  0  0  0  0  0  0  0  0  0999 V3000
M  V30 BEGIN CTAB
M  V30 COUNTS 45 47 0 0 0
M  V30 BEGIN ATOM
M  V30 1 C -1.821542 -4.318771 1.840403 0
M  V30 2 C -1.590506 -3.651888 0.527508 0
M  V30 3 C -0.674243 -2.684617 0.182693 0
M  V30 4 C -0.791947 -2.337769 -1.143880 0
M  V30 5 N -0.018894 -1.391679 -1.823100 0
M  V30 6 C 0.991463 -0.575670 -1.258785 0
M  V30 7 C 1.766140 0.200252 -2.059614 0
M  V30 8 C 2.777086 1.027753 -1.626182 0
M  V30 9 C 3.590779 1.855856 -2.563429 0
M  V30 10 C 3.057528 1.104610 -0.283108 0
M  V30 11 C 4.088682 1.935126 0.265740 0
M  V30 12 N 4.909201 2.592777 0.715691 0
M  V30 13 C 2.260267 0.306864 0.547974 0
M  V30 14 N 2.558106 0.346591 1.947007 0
M  V30 15 C 1.983602 -0.272360 3.118324 0
M  V30 16 C 1.110082 0.658446 3.895519 0
M  V30 17 O 0.025131 1.210922 3.286429 0
M  V30 18 C -1.098746 0.742928 2.721623 0
M  V30 19 C -1.691781 -0.475130 2.487505 0
M  V30 20 C -2.901484 -0.565923 1.853061 0
M  V30 21 C -3.575406 0.551922 1.423168 0
M  V30 22 N -3.034772 1.790116 1.628570 0
M  V30 23 C -1.828092 1.856084 2.262891 0
M  V30 24 N 1.295224 -0.472062 0.045076 0
M  V30 25 N -1.787669 -3.109922 -1.580392 0
M  V30 26 N -2.266649 -3.886778 -0.610479 0
M  V30 27 H -0.849107 -4.654005 2.241455 0
M  V30 28 H -2.579626 -5.115399 1.754821 0
M  V30 29 H -2.235152 -3.559478 2.538310 0
M  V30 30 H 0.022731 -2.287581 0.906128 0
M  V30 31 H -0.223133 -1.292820 -2.842952 0
M  V30 32 H 1.626426 0.214232 -3.145847 0
M  V30 33 H 3.476601 1.411874 -3.586992 0
M  V30 34 H 3.104332 2.872317 -2.645662 0
M  V30 35 H 4.647462 1.944083 -2.275994 0
M  V30 36 H 3.353922 0.928311 2.283121 0
M  V30 37 H 1.340569 -1.110989 2.707353 0
M  V30 38 H 2.749771 -0.687047 3.796360 0
M  V30 39 H 0.758520 0.113063 4.811799 0
M  V30 40 H 1.776165 1.506057 4.235500 0
M  V30 41 H -1.041389 -1.254246 2.883856 0
M  V30 42 H -3.261172 -1.566932 1.727052 0
M  V30 43 H -4.519727 0.381313 0.934423 0
M  V30 44 H -1.590934 2.929635 2.317882 0
M  V30 45 H -3.058989 -4.583071 -0.720681 0
M  V30 END ATOM
M  V30 BEGIN BOND
M  V30 1 1 1 2
M  V30 2 2 2 3
M  V30 3 1 3 4
M  V30 4 1 4 5
M  V30 5 1 5 6
M  V30 6 2 6 7
M  V30 7 1 7 8
M  V30 8 1 8 9
M  V30 9 2 8 10
M  V30 10 1 10 11
M  V30 11 3 11 12
M  V30 12 1 10 13
M  V30 13 1 13 14
M  V30 14 1 14 15
M  V30 15 1 15 16
M  V30 16 1 16 17
M  V30 17 1 17 18
M  V30 18 2 18 19
M  V30 19 1 19 20
M  V30 20 2 20 21
M  V30 21 1 21 22
M  V30 22 2 22 23
M  V30 23 2 13 24
M  V30 24 2 4 25
M  V30 25 1 25 26
M  V30 26 1 26 2
M  V30 27 1 24 6
M  V30 28 1 23 18
M  V30 29 1 1 27
M  V30 30 1 1 28
M  V30 31 1 1 29
M  V30 32 1 3 30
M  V30 33 1 5 31
M  V30 34 1 7 32
M  V30 35 1 9 33
M  V30 36 1 9 34
M  V30 37 1 9 35
M  V30 38 1 14 36
M  V30 39 1 15 37
M  V30 40 1 15 38
M  V30 41 1 16 39
M  V30 42 1 16 40
M  V30 43 1 19 41
M  V30 44 1 20 42
M  V30 45 1 21 43
M  V30 46 1 23 44
M  V30 47 1 26 45
M  V30 END BOND
M  V30 END CTAB
M  END
>  <Dataset>  (891) 
ChEMBL_Kinases

>  <Ligand_Instance>  (891) 
nan

>  <PDB_ID>  (891) 
nan

>  <Standardized_SMILES>  (891) 
Cc1cc(Nc2cc(C)c(C#N)c(NCCOc3cccnc3)n2)n[nH]1

>  <Name>  (891) 
nan

>  <Pocket>  (891) 
nan

>  <ATP_Site>  (891) 
nan

>  <Peripheral>  (891) 
nan

>  <Num_H_Atoms_ProtBoundConf>  (891) 
nan

>  <Num_Resolved_Atoms>  (891) 
nan

>  <Num_Not_Resolved_Atoms>  (891) 
nan

$$$$
CHEMBL488863
     RDKit          3D

  0  0  0  0  0  0  0  0  0  0999 V3000
M  V30 BEGIN CTAB
M  V30 COUNTS 51 53 0 0 0
M  V30 BEGIN ATOM
M  V30 1 O -0.216157 -2.677707 0.299316 0
M  V30 2 C -0.799984 -1.848221 1.045595 0
M  V30 3 O -0.424888 -0.908954 2.035753 0
M  V30 4 C -1.245597 0.238161 1.877184 0
M  V30 5 C -1.220818 1.026139 3.150476 0
M  V30 6 O 0.058493 1.446919 3.493272 0
M  V30 7 C -0.838577 1.060111 0.680283 0
M  V30 8 O 0.496719 1.466818 0.835735 0
M  V30 9 C 1.167774 2.235309 -0.101291 0
M  V30 10 O 0.155509 2.290789 -0.861963 0
M  V30 11 C 2.566136 2.719927 -0.056462 0
M  V30 12 C 2.876327 3.592031 1.117036 0
M  V30 13 C 3.380354 2.885003 2.333495 0
M  V30 14 C 4.332506 1.768758 2.077181 0
M  V30 15 C 4.799068 1.754803 0.617892 0
M  V30 16 C 3.565403 1.609060 -0.213593 0
M  V30 17 C -2.645280 -0.358095 1.643949 0
M  V30 18 C -2.267358 -1.656938 1.028937 0
M  V30 19 C -3.118961 -2.558601 0.525868 0
M  V30 20 C -2.837885 -3.852133 -0.079456 0
M  V30 21 C -3.458541 -4.108938 -1.300255 0
M  V30 22 C -3.341074 -5.272095 -2.023064 0
M  V30 23 C -2.550097 -6.273517 -1.510484 0
M  V30 24 N -2.391204 -7.508547 -2.224218 0 CHG=1 VAL=4
M  V30 25 O -1.666496 -8.376310 -1.714342 0
M  V30 26 O -3.032538 -7.711868 -3.446258 0 CHG=-1 VAL=1
M  V30 27 C -1.916991 -6.056737 -0.298103 0
M  V30 28 C -2.061644 -4.870637 0.396930 0
M  V30 29 H -1.585445 0.370966 3.972024 0
M  V30 30 H -1.871866 1.925472 3.040674 0
M  V30 31 H 0.754618 0.770836 3.369746 0
M  V30 32 H -1.534704 1.903181 0.536980 0
M  V30 33 H -0.987069 0.383293 -0.211184 0
M  V30 34 H 2.720518 3.377220 -0.970422 0
M  V30 35 H 1.949157 4.144555 1.449676 0
M  V30 36 H 3.627974 4.372487 0.816385 0
M  V30 37 H 2.522732 2.573614 2.980345 0
M  V30 38 H 3.939962 3.651352 2.930625 0
M  V30 39 H 3.820614 0.771631 2.207128 0
M  V30 40 H 5.216628 1.756842 2.744533 0
M  V30 41 H 5.359424 2.668819 0.377355 0
M  V30 42 H 5.429490 0.878965 0.430169 0
M  V30 43 H 3.053007 0.657431 0.101638 0
M  V30 44 H 3.806596 1.429699 -1.297665 0
M  V30 45 H -3.145952 -0.436748 2.609725 0
M  V30 46 H -3.220810 0.301026 0.992484 0
M  V30 47 H -4.187029 -2.318359 0.560265 0
M  V30 48 H -4.108416 -3.367598 -1.785772 0
M  V30 49 H -3.823015 -5.456676 -2.960987 0
M  V30 50 H -1.276105 -6.827408 0.148133 0
M  V30 51 H -1.576807 -4.711837 1.353392 0
M  V30 END ATOM
M  V30 BEGIN BOND
M  V30 1 2 1 2
M  V30 2 1 2 3
M  V30 3 1 3 4
M  V30 4 1 4 5
M  V30 5 1 5 6
M  V30 6 1 4 7
M  V30 7 1 7 8
M  V30 8 1 8 9
M  V30 9 2 9 10
M  V30 10 1 9 11
M  V30 11 1 11 12
M  V30 12 1 12 13
M  V30 13 1 13 14
M  V30 14 1 14 15
M  V30 15 1 15 16
M  V30 16 1 4 17
M  V30 17 1 17 18
M  V30 18 2 18 19
M  V30 19 1 19 20
M  V30 20 2 20 21
M  V30 21 1 21 22
M  V30 22 2 22 23
M  V30 23 1 23 24
M  V30 24 2 24 25
M  V30 25 1 24 26
M  V30 26 1 23 27
M  V30 27 2 27 28
M  V30 28 1 18 2
M  V30 29 1 28 20
M  V30 30 1 16 11
M  V30 31 1 5 29
M  V30 32 1 5 30
M  V30 33 1 6 31
M  V30 34 1 7 32
M  V30 35 1 7 33
M  V30 36 1 11 34
M  V30 37 1 12 35
M  V30 38 1 12 36
M  V30 39 1 13 37
M  V30 40 1 13 38
M  V30 41 1 14 39
M  V30 42 1 14 40
M  V30 43 1 15 41
M  V30 44 1 15 42
M  V30 45 1 16 43
M  V30 46 1 16 44
M  V30 47 1 17 45
M  V30 48 1 17 46
M  V30 49 1 19 47
M  V30 50 1 21 48
M  V30 51 1 22 49
M  V30 52 1 27 50
M  V30 53 1 28 51
M  V30 END BOND
M  V30 END CTAB
M  END
>  <Dataset>  (892) 
ChEMBL_Kinases

>  <Ligand_Instance>  (892) 
nan

>  <PDB_ID>  (892) 
nan

>  <Standardized_SMILES>  (892) 
O=C1OC(CO)(COC(=O)C2CCCCC2)C/C1=C/c1ccc([N+](=O)[O-])cc1

>  <Name>  (892) 
nan

>  <Pocket>  (892) 
nan

>  <ATP_Site>  (892) 
nan

>  <Peripheral>  (892) 
nan

>  <Num_H_Atoms_ProtBoundConf>  (892) 
nan

>  <Num_Resolved_Atoms>  (892) 
nan

>  <Num_Not_Resolved_Atoms>  (892) 
nan

$$$$
CHEMBL488872
     RDKit          3D

  0  0  0  0  0  0  0  0  0  0999 V3000
M  V30 BEGIN CTAB
M  V30 COUNTS 59 61 0 0 0
M  V30 BEGIN ATOM
M  V30 1 C -0.972333 3.205609 3.181253 0
M  V30 2 C 0.188791 3.960741 3.713533 0
M  V30 3 C 1.541234 3.346610 3.527868 0
M  V30 4 C 1.985846 3.141917 2.131081 0
M  V30 5 C 3.373420 2.522744 2.041101 0
M  V30 6 C 3.496046 1.187360 2.687636 0
M  V30 7 C 4.955328 0.747193 2.485509 0
M  V30 8 C 1.094173 2.411868 1.232909 0
M  V30 9 O 0.709866 2.957919 0.174441 0
M  V30 10 O 0.796273 1.195576 1.690103 0
M  V30 11 C 0.009625 0.219947 1.122756 0
M  V30 12 C 0.455865 -0.467545 -0.105564 0
M  V30 13 C 0.597986 0.311954 -1.362276 0
M  V30 14 O -0.549785 0.984430 -1.764788 0
M  V30 15 C -0.447534 -1.668111 -0.434235 0
M  V30 16 C 0.312805 -2.810696 0.087251 0
M  V30 17 C 0.046811 -4.102595 -0.143235 0
M  V30 18 C -1.033389 -4.648472 -0.946728 0
M  V30 19 C -0.750156 -5.768919 -1.740594 0
M  V30 20 N -1.621460 -6.406197 -2.541156 0
M  V30 21 C -2.907042 -5.972566 -2.631253 0
M  V30 22 C -3.784058 -6.636983 -3.455286 0
M  V30 23 C -5.104707 -6.189490 -3.546519 0
M  V30 24 C -5.408167 -5.082505 -2.770011 0
M  V30 25 C -4.548655 -4.399653 -1.937227 0
M  V30 26 C -3.243026 -4.869421 -1.868928 0
M  V30 27 C -2.339719 -4.227867 -1.054111 0
M  V30 28 C 1.414846 -2.280638 0.895280 0
M  V30 29 O 1.871885 -2.868866 1.924569 0
M  V30 30 O 1.719696 -1.081588 0.214897 0
M  V30 31 H -1.101440 3.349931 2.115396 0
M  V30 32 H -1.894737 3.663310 3.671748 0
M  V30 33 H -0.937402 2.153400 3.535616 0
M  V30 34 H 0.072404 4.185804 4.801168 0
M  V30 35 H 0.222953 4.960876 3.191368 0
M  V30 36 H 1.607697 2.345825 4.054532 0
M  V30 37 H 2.247708 4.046426 4.077209 0
M  V30 38 H 2.131778 4.179871 1.697040 0
M  V30 39 H 4.143538 3.179084 2.525515 0
M  V30 40 H 3.679679 2.463982 0.978147 0
M  V30 41 H 2.900024 0.376085 2.238873 0
M  V30 42 H 3.324074 1.203669 3.780076 0
M  V30 43 H 5.613078 1.115660 3.273184 0
M  V30 44 H 5.325861 1.056849 1.468901 0
M  V30 45 H 5.046126 -0.367815 2.471646 0
M  V30 46 H -0.992279 0.732562 0.863514 0
M  V30 47 H -0.232687 -0.522773 1.953310 0
M  V30 48 H 0.867170 -0.462732 -2.169582 0
M  V30 49 H 1.472700 0.975312 -1.325527 0
M  V30 50 H -0.284908 1.700126 -2.400965 0
M  V30 51 H -0.706246 -1.718598 -1.496477 0
M  V30 52 H -1.353392 -1.499782 0.189742 0
M  V30 53 H 0.694481 -4.870689 0.314545 0
M  V30 54 H 0.268619 -6.188618 -1.729724 0
M  V30 55 H -3.514934 -7.501660 -4.050822 0
M  V30 56 H -5.850252 -6.658099 -4.171295 0
M  V30 57 H -6.440920 -4.695259 -2.810438 0
M  V30 58 H -4.891820 -3.548716 -1.377892 0
M  V30 59 H -2.608467 -3.380724 -0.467539 0
M  V30 END ATOM
M  V30 BEGIN BOND
M  V30 1 1 1 2
M  V30 2 1 2 3
M  V30 3 1 3 4
M  V30 4 1 4 5
M  V30 5 1 5 6
M  V30 6 1 6 7
M  V30 7 1 4 8
M  V30 8 2 8 9
M  V30 9 1 8 10
M  V30 10 1 10 11
M  V30 11 1 11 12
M  V30 12 1 12 13
M  V30 13 1 13 14
M  V30 14 1 12 15
M  V30 15 1 15 16
M  V30 16 2 16 17
M  V30 17 1 17 18
M  V30 18 2 18 19
M  V30 19 1 19 20
M  V30 20 2 20 21
M  V30 21 1 21 22
M  V30 22 2 22 23
M  V30 23 1 23 24
M  V30 24 2 24 25
M  V30 25 1 25 26
M  V30 26 2 26 27
M  V30 27 1 16 28
M  V30 28 2 28 29
M  V30 29 1 28 30
M  V30 30 1 30 12
M  V30 31 1 27 18
M  V30 32 1 26 21
M  V30 33 1 1 31
M  V30 34 1 1 32
M  V30 35 1 1 33
M  V30 36 1 2 34
M  V30 37 1 2 35
M  V30 38 1 3 36
M  V30 39 1 3 37
M  V30 40 1 4 38
M  V30 41 1 5 39
M  V30 42 1 5 40
M  V30 43 1 6 41
M  V30 44 1 6 42
M  V30 45 1 7 43
M  V30 46 1 7 44
M  V30 47 1 7 45
M  V30 48 1 11 46
M  V30 49 1 11 47
M  V30 50 1 13 48
M  V30 51 1 13 49
M  V30 52 1 14 50
M  V30 53 1 15 51
M  V30 54 1 15 52
M  V30 55 1 17 53
M  V30 56 1 19 54
M  V30 57 1 22 55
M  V30 58 1 23 56
M  V30 59 1 24 57
M  V30 60 1 25 58
M  V30 61 1 27 59
M  V30 END BOND
M  V30 END CTAB
M  END
>  <Dataset>  (893) 
ChEMBL_Kinases

>  <Ligand_Instance>  (893) 
nan

>  <PDB_ID>  (893) 
nan

>  <Standardized_SMILES>  (893) 
CCCC(CCC)C(=O)OCC1(CO)C/C(=C\c2cnc3ccccc3c2)C(=O)O1

>  <Name>  (893) 
nan

>  <Pocket>  (893) 
nan

>  <ATP_Site>  (893) 
nan

>  <Peripheral>  (893) 
nan

>  <Num_H_Atoms_ProtBoundConf>  (893) 
nan

>  <Num_Resolved_Atoms>  (893) 
nan

>  <Num_Not_Resolved_Atoms>  (893) 
nan

$$$$
CHEMBL489407
     RDKit          3D

  0  0  0  0  0  0  0  0  0  0999 V3000
M  V30 BEGIN CTAB
M  V30 COUNTS 40 44 0 0 0
M  V30 BEGIN ATOM
M  V30 1 C -2.730805 -3.005353 3.609760 0
M  V30 2 N -1.972254 -2.372616 2.527490 0
M  V30 3 C -2.371138 -1.268623 1.863277 0
M  V30 4 C -1.438086 -0.909739 0.896169 0
M  V30 5 C -1.531175 0.221197 -0.040719 0
M  V30 6 C -0.650280 1.199179 -0.323831 0
M  V30 7 C 0.638606 1.254598 0.347797 0
M  V30 8 C 0.743610 1.016760 1.725401 0
M  V30 9 O 1.985553 1.115081 2.087020 0
M  V30 10 C 2.749351 1.407954 1.040724 0
M  V30 11 C 4.122890 1.620556 0.861599 0
M  V30 12 C 4.558870 1.909934 -0.417613 0
M  V30 13 C 3.726328 2.005129 -1.535024 0
M  V30 14 C 2.385068 1.789219 -1.312421 0
M  V30 15 C 1.925557 1.501082 -0.063434 0
M  V30 16 C -1.247327 2.069651 -1.334090 0
M  V30 17 O -0.690492 3.079847 -1.820014 0
M  V30 18 N -2.537329 1.551975 -1.636603 0
M  V30 19 C -2.747319 0.387989 -0.839581 0
M  V30 20 O -3.784088 -0.312651 -0.860133 0
M  V30 21 C -0.443668 -1.856707 1.002436 0
M  V30 22 C 0.728961 -2.076943 0.343126 0
M  V30 23 C 1.553947 -3.137338 0.652724 0
M  V30 24 F 2.708895 -3.311355 -0.035953 0
M  V30 25 C 1.243637 -4.043508 1.649835 0
M  V30 26 Cl 2.277178 -5.380403 2.045066 0
M  V30 27 C 0.034654 -3.796309 2.310463 0
M  V30 28 C -0.797279 -2.735907 2.006080 0
M  V30 29 H -3.219973 -2.238310 4.225542 0
M  V30 30 H -2.056366 -3.673009 4.177073 0
M  V30 31 H -3.527615 -3.596947 3.092590 0
M  V30 32 H -3.300455 -0.743568 2.072156 0
M  V30 33 H -0.031948 0.783192 2.438995 0
M  V30 34 H 4.771626 1.546759 1.717742 0
M  V30 35 H 5.632022 2.057442 -0.461440 0
M  V30 36 H 4.194621 2.235833 -2.478122 0
M  V30 37 H 1.718993 1.851736 -2.156256 0
M  V30 38 H -3.228524 1.944655 -2.325832 0
M  V30 39 H 1.039380 -1.432022 -0.454991 0
M  V30 40 H -0.230141 -4.506904 3.108818 0
M  V30 END ATOM
M  V30 BEGIN BOND
M  V30 1 1 1 2
M  V30 2 1 2 3
M  V30 3 2 3 4
M  V30 4 1 4 5
M  V30 5 2 5 6
M  V30 6 1 6 7
M  V30 7 2 7 8
M  V30 8 1 8 9
M  V30 9 1 9 10
M  V30 10 2 10 11
M  V30 11 1 11 12
M  V30 12 2 12 13
M  V30 13 1 13 14
M  V30 14 2 14 15
M  V30 15 1 6 16
M  V30 16 2 16 17
M  V30 17 1 16 18
M  V30 18 1 18 19
M  V30 19 2 19 20
M  V30 20 1 4 21
M  V30 21 2 21 22
M  V30 22 1 22 23
M  V30 23 1 23 24
M  V30 24 2 23 25
M  V30 25 1 25 26
M  V30 26 1 25 27
M  V30 27 2 27 28
M  V30 28 1 28 2
M  V30 29 1 19 5
M  V30 30 1 28 21
M  V30 31 1 15 7
M  V30 32 1 15 10
M  V30 33 1 1 29
M  V30 34 1 1 30
M  V30 35 1 1 31
M  V30 36 1 3 32
M  V30 37 1 8 33
M  V30 38 1 11 34
M  V30 39 1 12 35
M  V30 40 1 13 36
M  V30 41 1 14 37
M  V30 42 1 18 38
M  V30 43 1 22 39
M  V30 44 1 27 40
M  V30 END BOND
M  V30 END CTAB
M  END
>  <Dataset>  (894) 
ChEMBL_Kinases

>  <Ligand_Instance>  (894) 
nan

>  <PDB_ID>  (894) 
nan

>  <Standardized_SMILES>  (894) 
Cn1cc(C2=C(c3coc4ccccc34)C(=O)NC2=O)c2cc(F)c(Cl)cc21

>  <Name>  (894) 
nan

>  <Pocket>  (894) 
nan

>  <ATP_Site>  (894) 
nan

>  <Peripheral>  (894) 
nan

>  <Num_H_Atoms_ProtBoundConf>  (894) 
nan

>  <Num_Resolved_Atoms>  (894) 
nan

>  <Num_Not_Resolved_Atoms>  (894) 
nan

$$$$
CHEMBL4877709
     RDKit          3D

  0  0  0  0  0  0  0  0  0  0999 V3000
M  V30 BEGIN CTAB
M  V30 COUNTS 48 51 0 0 0
M  V30 BEGIN ATOM
M  V30 1 C 0.465104 -6.910101 1.505862 0
M  V30 2 S 1.918277 -6.171543 0.776780 0
M  V30 3 O 3.101641 -6.966900 1.286681 0
M  V30 4 O 1.807725 -6.326365 -0.704872 0
M  V30 5 C 2.059222 -4.491719 1.241118 0
M  V30 6 C 2.723312 -4.024048 2.347060 0
M  V30 7 C 2.782547 -2.673798 2.635760 0
M  V30 8 C 2.180309 -1.723916 1.832380 0
M  V30 9 C 2.294949 -0.324064 2.214940 0
M  V30 10 C 1.736035 0.705403 1.490810 0
M  V30 11 C 1.836707 2.034438 1.842151 0
M  V30 12 N 1.262573 3.123137 1.138124 0
M  V30 13 C 0.179169 3.210747 0.227689 0
M  V30 14 C 0.085277 4.282233 -0.668125 0
M  V30 15 C -0.971580 4.375664 -1.540560 0
M  V30 16 N -1.946074 3.451636 -1.567409 0
M  V30 17 C -1.922825 2.379580 -0.724247 0
M  V30 18 C -2.998295 1.400609 -0.785224 0
M  V30 19 C -3.105712 0.273407 0.000936 0
M  V30 20 C -4.146995 -0.623994 -0.096857 0
M  V30 21 F -4.212074 -1.716145 0.694387 0
M  V30 22 C -5.152582 -0.427847 -1.009219 0
M  V30 23 C -5.071086 0.692263 -1.809547 0
M  V30 24 C -4.014143 1.568700 -1.683762 0
M  V30 25 F -4.037907 2.633431 -2.521169 0
M  V30 26 C -0.853163 2.311244 0.138845 0
M  V30 27 C 2.551915 2.277822 2.995010 0
M  V30 28 C 3.107998 1.244935 3.713826 0
M  V30 29 N 2.970990 -0.029956 3.314466 0
M  V30 30 C 1.517537 -2.210270 0.725780 0
M  V30 31 C 1.453280 -3.555915 0.429900 0
M  V30 32 H -0.459109 -6.564364 0.994627 0
M  V30 33 H 0.538746 -7.999194 1.446501 0
M  V30 34 H 0.460307 -6.649112 2.577719 0
M  V30 35 H 3.191399 -4.779839 2.968939 0
M  V30 36 H 3.329176 -2.411606 3.528261 0
M  V30 37 H 1.209265 0.438366 0.608375 0
M  V30 38 H 1.727052 4.066992 1.319627 0
M  V30 39 H 0.857164 5.048971 -0.673592 0
M  V30 40 H -0.991352 5.225854 -2.209975 0
M  V30 41 H -2.332849 0.084882 0.731172 0
M  V30 42 H -5.969833 -1.109178 -1.103666 0
M  V30 43 H -5.871818 0.857369 -2.542904 0
M  V30 44 H -0.873051 1.473054 0.785799 0
M  V30 45 H 2.693352 3.305007 3.365232 0
M  V30 46 H 3.674093 1.428777 4.625113 0
M  V30 47 H 1.040873 -1.511763 0.082198 0
M  V30 48 H 0.918476 -3.860094 -0.450214 0
M  V30 END ATOM
M  V30 BEGIN BOND
M  V30 1 1 1 2
M  V30 2 2 2 3
M  V30 3 2 2 4
M  V30 4 1 2 5
M  V30 5 2 5 6
M  V30 6 1 6 7
M  V30 7 2 7 8
M  V30 8 1 8 9
M  V30 9 2 9 10
M  V30 10 1 10 11
M  V30 11 1 11 12
M  V30 12 1 12 13
M  V30 13 2 13 14
M  V30 14 1 14 15
M  V30 15 2 15 16
M  V30 16 1 16 17
M  V30 17 1 17 18
M  V30 18 2 18 19
M  V30 19 1 19 20
M  V30 20 1 20 21
M  V30 21 2 20 22
M  V30 22 1 22 23
M  V30 23 2 23 24
M  V30 24 1 24 25
M  V30 25 2 17 26
M  V30 26 2 11 27
M  V30 27 1 27 28
M  V30 28 2 28 29
M  V30 29 1 8 30
M  V30 30 2 30 31
M  V30 31 1 31 5
M  V30 32 1 29 9
M  V30 33 1 26 13
M  V30 34 1 24 18
M  V30 35 1 1 32
M  V30 36 1 1 33
M  V30 37 1 1 34
M  V30 38 1 6 35
M  V30 39 1 7 36
M  V30 40 1 10 37
M  V30 41 1 12 38
M  V30 42 1 14 39
M  V30 43 1 15 40
M  V30 44 1 19 41
M  V30 45 1 22 42
M  V30 46 1 23 43
M  V30 47 1 26 44
M  V30 48 1 27 45
M  V30 49 1 28 46
M  V30 50 1 30 47
M  V30 51 1 31 48
M  V30 END BOND
M  V30 END CTAB
M  END
>  <Dataset>  (895) 
ChEMBL_Kinases

>  <Ligand_Instance>  (895) 
nan

>  <PDB_ID>  (895) 
nan

>  <Standardized_SMILES>  (895) 
CS(=O)(=O)c1ccc(-c2cc(Nc3ccnc(-c4cc(F)ccc4F)c3)ccn2)cc1

>  <Name>  (895) 
nan

>  <Pocket>  (895) 
nan

>  <ATP_Site>  (895) 
nan

>  <Peripheral>  (895) 
nan

>  <Num_H_Atoms_ProtBoundConf>  (895) 
nan

>  <Num_Resolved_Atoms>  (895) 
nan

>  <Num_Not_Resolved_Atoms>  (895) 
nan

$$$$
CHEMBL488783
     RDKit          3D

  0  0  0  0  0  0  0  0  0  0999 V3000
M  V30 BEGIN CTAB
M  V30 COUNTS 60 65 0 0 0
M  V30 BEGIN ATOM
M  V30 1 C -0.217756 -2.238062 3.313686 0
M  V30 2 N 0.145844 -1.905161 1.940524 0
M  V30 3 C 0.856368 -0.840577 1.504155 0
M  V30 4 C 1.392571 0.162574 2.267759 0
M  V30 5 C 2.118289 1.228000 1.708929 0
M  V30 6 C 2.744474 2.255754 2.505990 0
M  V30 7 C 2.164204 3.613103 2.442401 0
M  V30 8 C 0.782095 3.765839 2.879094 0
M  V30 9 C -0.375508 3.238177 2.149497 0
M  V30 10 N -0.583925 3.820528 0.824551 0
M  V30 11 C -0.298026 3.668965 -0.470212 0
M  V30 12 C -0.812575 4.641583 -1.292883 0
M  V30 13 C -1.485774 5.492604 -0.473162 0
M  V30 14 C -1.331385 4.978257 0.774585 0
M  V30 15 C 2.227964 1.153545 0.341390 0
M  V30 16 O 2.939125 2.187472 -0.261167 0
M  V30 17 C 1.688680 0.145553 -0.421320 0
M  V30 18 C 0.987423 -0.880958 0.134345 0
M  V30 19 C 0.328052 -2.012513 -0.243110 0
M  V30 20 C 0.130852 -2.554129 -1.459936 0
M  V30 21 C -0.576689 -3.722082 -1.608808 0
M  V30 22 C -1.101883 -4.362061 -0.484990 0
M  V30 23 C -1.861350 -5.604529 -0.580700 0
M  V30 24 C -3.216697 -5.805519 -0.735513 0
M  V30 25 C -3.700511 -7.095311 -0.799142 0
M  V30 26 C -2.895401 -8.216066 -0.715695 0
M  V30 27 C -1.531942 -7.998400 -0.559829 0
M  V30 28 C -1.015959 -6.716678 -0.492613 0
M  V30 29 Cl 0.733286 -6.646255 -0.294229 0
M  V30 30 C -0.905573 -3.815341 0.766893 0
M  V30 31 C -0.188651 -2.641270 0.866559 0
M  V30 32 C -0.696053 -4.171095 -3.005167 0
M  V30 33 O -1.276791 -5.184500 -3.425345 0
M  V30 34 N 0.021330 -3.147279 -3.726210 0
M  V30 35 C 0.505183 -2.195983 -2.794623 0
M  V30 36 O 1.141802 -1.262731 -3.300822 0
M  V30 37 H -0.498302 -3.301596 3.373969 0
M  V30 38 H -1.118518 -1.669002 3.657837 0
M  V30 39 H 0.612521 -2.054379 4.021249 0
M  V30 40 H 1.278395 0.176155 3.342340 0
M  V30 41 H 2.725906 1.883128 3.587034 0
M  V30 42 H 3.872612 2.283968 2.330922 0
M  V30 43 H 2.863558 4.345275 2.997336 0
M  V30 44 H 2.293255 3.993053 1.374995 0
M  V30 45 H 0.640343 4.901531 3.062034 0
M  V30 46 H 0.652381 3.410836 3.974316 0
M  V30 47 H -0.415360 2.142442 2.101295 0
M  V30 48 H -1.287930 3.481106 2.801796 0
M  V30 49 H 0.290773 2.814115 -0.746145 0
M  V30 50 H -0.639420 4.611103 -2.350109 0
M  V30 51 H -1.999478 6.360718 -0.833095 0
M  V30 52 H -1.813545 5.534349 1.600490 0
M  V30 53 H 3.808985 1.955557 -0.766927 0
M  V30 54 H 1.840373 0.201200 -1.449282 0
M  V30 55 H -3.761814 -4.897038 -0.790889 0
M  V30 56 H -4.771449 -7.189886 -0.920929 0
M  V30 57 H -3.307086 -9.209117 -0.769262 0
M  V30 58 H -0.909932 -8.898433 -0.495748 0
M  V30 59 H -1.313286 -4.307673 1.662549 0
M  V30 60 H 0.078599 -3.247831 -4.775789 0
M  V30 END ATOM
M  V30 BEGIN BOND
M  V30 1 1 1 2
M  V30 2 1 2 3
M  V30 3 2 3 4
M  V30 4 1 4 5
M  V30 5 1 5 6
M  V30 6 1 6 7
M  V30 7 1 7 8
M  V30 8 1 8 9
M  V30 9 1 9 10
M  V30 10 1 10 11
M  V30 11 2 11 12
M  V30 12 1 12 13
M  V30 13 2 13 14
M  V30 14 2 5 15
M  V30 15 1 15 16
M  V30 16 1 15 17
M  V30 17 2 17 18
M  V30 18 1 18 19
M  V30 19 2 19 20
M  V30 20 1 20 21
M  V30 21 2 21 22
M  V30 22 1 22 23
M  V30 23 2 23 24
M  V30 24 1 24 25
M  V30 25 2 25 26
M  V30 26 1 26 27
M  V30 27 2 27 28
M  V30 28 1 28 29
M  V30 29 1 22 30
M  V30 30 2 30 31
M  V30 31 1 21 32
M  V30 32 2 32 33
M  V30 33 1 32 34
M  V30 34 1 34 35
M  V30 35 2 35 36
M  V30 36 1 31 2
M  V30 37 1 18 3
M  V30 38 1 31 19
M  V30 39 1 14 10
M  V30 40 1 35 20
M  V30 41 1 28 23
M  V30 42 1 1 37
M  V30 43 1 1 38
M  V30 44 1 1 39
M  V30 45 1 4 40
M  V30 46 1 6 41
M  V30 47 1 6 42
M  V30 48 1 7 43
M  V30 49 1 7 44
M  V30 50 1 8 45
M  V30 51 1 8 46
M  V30 52 1 9 47
M  V30 53 1 9 48
M  V30 54 1 11 49
M  V30 55 1 12 50
M  V30 56 1 13 51
M  V30 57 1 14 52
M  V30 58 1 16 53
M  V30 59 1 17 54
M  V30 60 1 24 55
M  V30 61 1 25 56
M  V30 62 1 26 57
M  V30 63 1 27 58
M  V30 64 1 30 59
M  V30 65 1 34 60
M  V30 END BOND
M  V30 END CTAB
M  END
>  <Dataset>  (896) 
ChEMBL_Kinases

>  <Ligand_Instance>  (896) 
nan

>  <PDB_ID>  (896) 
nan

>  <Standardized_SMILES>  (896) 
Cn1c2cc(CCCCn3cccc3)c(O)cc2c2c3c(c(-c4ccccc4Cl)cc21)C(=O)NC3=O

>  <Name>  (896) 
nan

>  <Pocket>  (896) 
nan

>  <ATP_Site>  (896) 
nan

>  <Peripheral>  (896) 
nan

>  <Num_H_Atoms_ProtBoundConf>  (896) 
nan

>  <Num_Resolved_Atoms>  (896) 
nan

>  <Num_Not_Resolved_Atoms>  (896) 
nan

$$$$
CHEMBL3912937
     RDKit          3D

  0  0  0  0  0  0  0  0  0  0999 V3000
M  V30 BEGIN CTAB
M  V30 COUNTS 51 54 0 0 0
M  V30 BEGIN ATOM
M  V30 1 O 8.295484 -3.024320 0.490128 0
M  V30 2 C 7.591496 -2.077007 0.975275 0
M  V30 3 O 6.992226 -2.329567 -0.241981 0
M  V30 4 C 7.831484 -1.456589 2.262199 0
M  V30 5 C 7.071879 -0.477012 2.713165 0
M  V30 6 C 5.959430 0.050361 1.978105 0
M  V30 7 O 5.534115 -0.297190 0.850684 0
M  V30 8 N 5.161065 1.101225 2.486461 0
M  V30 9 C 4.066842 1.558128 1.668325 0
M  V30 10 C 4.274261 2.586946 0.744971 0
M  V30 11 C 3.200243 3.011337 -0.034511 0
M  V30 12 C 1.942561 2.429571 0.095607 0
M  V30 13 C 1.742827 1.427732 0.995497 0
M  V30 14 C 0.486469 0.721903 1.245630 0
M  V30 15 N -0.049469 0.421859 2.454145 0
M  V30 16 N -1.199588 -0.225109 2.301753 0
M  V30 17 C -1.455814 -0.370619 1.000063 0
M  V30 18 C -2.459027 -0.936092 0.245687 0
M  V30 19 C -2.523763 -0.974460 -1.130394 0
M  V30 20 N -3.567948 -1.566095 -1.869081 0
M  V30 21 S -5.273761 -1.469422 -1.735360 0
M  V30 22 O -5.706107 -0.018629 -1.881432 0
M  V30 23 O -5.863097 -2.272971 -2.853114 0
M  V30 24 C -5.876256 -2.063090 -0.208550 0
M  V30 25 C -6.141838 -3.435173 -0.160520 0
M  V30 26 C -6.626091 -4.087049 0.948472 0
M  V30 27 C -6.867063 -3.359447 2.081252 0
M  V30 28 C -6.616017 -2.007640 2.066251 0
M  V30 29 C -6.130290 -1.350112 0.955928 0
M  V30 30 C -1.425123 -0.357444 -1.736587 0
M  V30 31 C -0.385731 0.228322 -1.052603 0
M  V30 32 C -0.408242 0.217756 0.324046 0
M  V30 33 C 2.814517 0.999792 1.777654 0
M  V30 34 H 6.037726 -2.692804 -0.359452 0
M  V30 35 H 8.663850 -1.868797 2.784876 0
M  V30 36 H 7.302214 -0.056589 3.680497 0
M  V30 37 H 5.341986 1.552269 3.433202 0
M  V30 38 H 5.261573 3.048227 0.638296 0
M  V30 39 H 3.332975 3.815149 -0.765785 0
M  V30 40 H 1.083361 2.728369 -0.489164 0
M  V30 41 H -1.841713 -0.585134 3.052115 0
M  V30 42 H -3.254381 -1.385316 0.821540 0
M  V30 43 H -3.105922 -2.162780 -2.620614 0
M  V30 44 H -5.972914 -4.086075 -1.032934 0
M  V30 45 H -6.818797 -5.150939 0.945797 0
M  V30 46 H -7.250326 -3.777206 3.012770 0
M  V30 47 H -6.784836 -1.359472 2.935458 0
M  V30 48 H -5.907355 -0.298396 0.859865 0
M  V30 49 H -1.381533 -0.334607 -2.830669 0
M  V30 50 H 0.424159 0.682916 -1.614735 0
M  V30 51 H 2.727965 0.204581 2.516434 0
M  V30 END ATOM
M  V30 BEGIN BOND
M  V30 1 2 1 2
M  V30 2 1 2 3
M  V30 3 1 2 4
M  V30 4 2 4 5
M  V30 5 1 5 6
M  V30 6 2 6 7
M  V30 7 1 6 8
M  V30 8 1 8 9
M  V30 9 2 9 10
M  V30 10 1 10 11
M  V30 11 2 11 12
M  V30 12 1 12 13
M  V30 13 1 13 14
M  V30 14 2 14 15
M  V30 15 1 15 16
M  V30 16 1 16 17
M  V30 17 2 17 18
M  V30 18 1 18 19
M  V30 19 1 19 20
M  V30 20 1 20 21
M  V30 21 2 21 22
M  V30 22 2 21 23
M  V30 23 1 21 24
M  V30 24 2 24 25
M  V30 25 1 25 26
M  V30 26 2 26 27
M  V30 27 1 27 28
M  V30 28 2 28 29
M  V30 29 2 19 30
M  V30 30 1 30 31
M  V30 31 2 31 32
M  V30 32 2 13 33
M  V30 33 1 33 9
M  V30 34 1 32 14
M  V30 35 1 32 17
M  V30 36 1 29 24
M  V30 37 1 3 34
M  V30 38 1 4 35
M  V30 39 1 5 36
M  V30 40 1 8 37
M  V30 41 1 10 38
M  V30 42 1 11 39
M  V30 43 1 12 40
M  V30 44 1 16 41
M  V30 45 1 18 42
M  V30 46 1 20 43
M  V30 47 1 25 44
M  V30 48 1 26 45
M  V30 49 1 27 46
M  V30 50 1 28 47
M  V30 51 1 29 48
M  V30 52 1 30 49
M  V30 53 1 31 50
M  V30 54 1 33 51
M  V30 END BOND
M  V30 END CTAB
M  END
>  <Dataset>  (897) 
ChEMBL_Kinases

>  <Ligand_Instance>  (897) 
nan

>  <PDB_ID>  (897) 
nan

>  <Standardized_SMILES>  (897) 
O=C(O)/C=C\C(=O)Nc1cccc(-c2n[nH]c3cc(NS(=O)(=O)c4ccccc4)ccc23)c1

>  <Name>  (897) 
nan

>  <Pocket>  (897) 
nan

>  <ATP_Site>  (897) 
nan

>  <Peripheral>  (897) 
nan

>  <Num_H_Atoms_ProtBoundConf>  (897) 
nan

>  <Num_Resolved_Atoms>  (897) 
nan

>  <Num_Not_Resolved_Atoms>  (897) 
nan

$$$$
CHEMBL599479
     RDKit          3D

  0  0  0  0  0  0  0  0  0  0999 V3000
M  V30 BEGIN CTAB
M  V30 COUNTS 44 47 0 0 0
M  V30 BEGIN ATOM
M  V30 1 C 0.239449 -7.911426 2.480256 0
M  V30 2 O 0.539212 -7.520171 1.166181 0
M  V30 3 C 0.812061 -6.180771 0.923732 0
M  V30 4 C 1.098471 -5.888603 -0.411012 0
M  V30 5 C 1.390807 -4.583651 -0.796987 0
M  V30 6 C 1.393346 -3.599760 0.142906 0
M  V30 7 N 1.674265 -2.200288 -0.086900 0
M  V30 8 C 0.881448 -1.133716 0.112664 0
M  V30 9 C 1.585490 0.019335 -0.252559 0
M  V30 10 C 0.899688 1.306144 -0.112572 0
M  V30 11 C 0.996552 2.219730 -1.162104 0
M  V30 12 C 0.340942 3.430484 -1.010140 0
M  V30 13 C -0.392006 3.774525 0.108864 0
M  V30 14 C -0.451666 2.826549 1.117516 0
M  V30 15 C 0.179105 1.599477 1.029777 0
M  V30 16 C -1.189237 3.024777 2.382712 0
M  V30 17 O -0.914451 2.161792 3.260227 0
M  V30 18 N -2.146467 4.054338 2.704617 0
M  V30 19 C -2.742667 4.940213 1.722154 0
M  V30 20 C -1.734954 5.744369 0.972845 0
M  V30 21 O -0.963258 5.038757 0.044534 0
M  V30 22 C 2.822460 -0.426736 -0.672958 0
M  V30 23 N 3.768116 0.539555 -1.111375 0
M  V30 24 N 2.853116 -1.772486 -0.563896 0
M  V30 25 C 1.109923 -3.862992 1.488843 0
M  V30 26 C 0.825321 -5.160815 1.838026 0
M  V30 27 H 1.208016 -8.079193 3.013902 0
M  V30 28 H -0.374890 -7.215060 3.051267 0
M  V30 29 H -0.299767 -8.898084 2.466441 0
M  V30 30 H 1.104413 -6.651066 -1.184074 0
M  V30 31 H 1.619844 -4.284786 -1.801124 0
M  V30 32 H -0.117204 -1.280130 0.497414 0
M  V30 33 H 1.555976 2.022373 -2.077507 0
M  V30 34 H 0.366332 4.205197 -1.788464 0
M  V30 35 H 0.097360 0.894692 1.853267 0
M  V30 36 H -2.381553 4.111042 3.732197 0
M  V30 37 H -3.470305 5.611095 2.190457 0
M  V30 38 H -3.280227 4.279954 0.992469 0
M  V30 39 H -1.144121 6.386079 1.665348 0
M  V30 40 H -2.333445 6.489560 0.370467 0
M  V30 41 H 4.150509 1.267960 -0.451017 0
M  V30 42 H 4.122025 0.570887 -2.094779 0
M  V30 43 H 1.100545 -3.107582 2.274450 0
M  V30 44 H 0.599309 -5.432387 2.851521 0
M  V30 END ATOM
M  V30 BEGIN BOND
M  V30 1 1 1 2
M  V30 2 1 2 3
M  V30 3 2 3 4
M  V30 4 1 4 5
M  V30 5 2 5 6
M  V30 6 1 6 7
M  V30 7 1 7 8
M  V30 8 2 8 9
M  V30 9 1 9 10
M  V30 10 2 10 11
M  V30 11 1 11 12
M  V30 12 2 12 13
M  V30 13 1 13 14
M  V30 14 2 14 15
M  V30 15 1 14 16
M  V30 16 2 16 17
M  V30 17 1 16 18
M  V30 18 1 18 19
M  V30 19 1 19 20
M  V30 20 1 20 21
M  V30 21 1 9 22
M  V30 22 1 22 23
M  V30 23 2 22 24
M  V30 24 1 6 25
M  V30 25 2 25 26
M  V30 26 1 26 3
M  V30 27 1 24 7
M  V30 28 1 15 10
M  V30 29 1 21 13
M  V30 30 1 1 27
M  V30 31 1 1 28
M  V30 32 1 1 29
M  V30 33 1 4 30
M  V30 34 1 5 31
M  V30 35 1 8 32
M  V30 36 1 11 33
M  V30 37 1 12 34
M  V30 38 1 15 35
M  V30 39 1 18 36
M  V30 40 1 19 37
M  V30 41 1 19 38
M  V30 42 1 20 39
M  V30 43 1 20 40
M  V30 44 1 23 41
M  V30 45 1 23 42
M  V30 46 1 25 43
M  V30 47 1 26 44
M  V30 END BOND
M  V30 END CTAB
M  END
>  <Dataset>  (898) 
ChEMBL_Kinases

>  <Ligand_Instance>  (898) 
nan

>  <PDB_ID>  (898) 
nan

>  <Standardized_SMILES>  (898) 
COc1ccc(-n2cc(-c3ccc4c(c3)C(=O)NCCO4)c(N)n2)cc1

>  <Name>  (898) 
nan

>  <Pocket>  (898) 
nan

>  <ATP_Site>  (898) 
nan

>  <Peripheral>  (898) 
nan

>  <Num_H_Atoms_ProtBoundConf>  (898) 
nan

>  <Num_Resolved_Atoms>  (898) 
nan

>  <Num_Not_Resolved_Atoms>  (898) 
nan

$$$$
CHEMBL3914181
     RDKit          3D

  0  0  0  0  0  0  0  0  0  0999 V3000
M  V30 BEGIN CTAB
M  V30 COUNTS 80 84 0 0 0
M  V30 BEGIN ATOM
M  V30 1 C 4.437467 0.171631 4.141221 0
M  V30 2 C 5.317168 -0.264751 2.986630 0
M  V30 3 S 4.904962 0.606165 1.497519 0
M  V30 4 O 5.116867 2.065205 1.819676 0
M  V30 5 O 5.901367 0.313989 0.405699 0
M  V30 6 C 3.274822 0.394953 0.969608 0
M  V30 7 C 2.378463 1.438939 1.012712 0
M  V30 8 C 1.060606 1.378987 0.644935 0
M  V30 9 N 0.263032 2.545268 0.746962 0
M  V30 10 C -1.139815 2.690784 0.516536 0
M  V30 11 N -1.683553 3.903346 0.660735 0
M  V30 12 C -2.970881 4.208960 0.489100 0
M  V30 13 C -3.832084 3.198857 0.131403 0
M  V30 14 F -5.154800 3.360809 -0.069402 0
M  V30 15 C -3.288921 1.931440 -0.024119 0
M  V30 16 N -3.995120 0.772753 -0.405068 0
M  V30 17 C -4.352661 1.056647 -1.769405 0
M  V30 18 C -3.176371 1.243935 -2.662333 0
M  V30 19 C -2.509188 2.377194 -3.006409 0
M  V30 20 C -1.428906 2.364410 -3.846268 0
M  V30 21 C -0.941627 1.196951 -4.403104 0
M  V30 22 C -1.600615 0.033793 -4.070210 0
M  V30 23 C -2.686780 0.075350 -3.221262 0
M  V30 24 C -4.293872 -0.404619 0.328124 0
M  V30 25 C -4.905866 -1.416421 -0.362375 0
M  V30 26 C -5.244538 -2.619944 0.217727 0
M  V30 27 C -5.914101 -3.764906 -0.471294 0
M  V30 28 O -7.297666 -3.700811 -0.388862 0
M  V30 29 C -4.976500 -2.875192 1.564000 0
M  V30 30 C -4.361644 -1.854948 2.252953 0
M  V30 31 C -4.030269 -0.656617 1.654945 0
M  V30 32 C -3.382312 0.372763 2.470912 0
M  V30 33 N -1.985978 1.725505 0.170290 0
M  V30 34 C 0.553519 0.185184 0.186458 0
M  V30 35 C 1.390567 -0.910610 0.112929 0
M  V30 36 C 2.704499 -0.761272 0.503913 0
M  V30 37 N 3.454385 -1.958906 0.368584 0
M  V30 38 C 4.160136 -3.025528 1.033496 0
M  V30 39 C 3.768656 -4.390579 0.446366 0
M  V30 40 N 4.463069 -4.580721 -0.813181 0
M  V30 41 C 5.714272 -5.267540 -0.658315 0
M  V30 42 C 4.715917 -3.260721 -1.331587 0
M  V30 43 C 3.602895 -2.294115 -1.036305 0
M  V30 44 H 4.995142 0.162477 5.102324 0
M  V30 45 H 3.965996 1.141188 3.969602 0
M  V30 46 H 3.618471 -0.582014 4.270654 0
M  V30 47 H 5.399082 -1.349064 2.867948 0
M  V30 48 H 6.360552 0.101066 3.267938 0
M  V30 49 H 2.783202 2.397011 1.379794 0
M  V30 50 H 0.767976 3.439246 1.031420 0
M  V30 51 H -3.350844 5.205567 0.619762 0
M  V30 52 H -4.944200 2.006647 -1.872223 0
M  V30 53 H -5.008567 0.287999 -2.215175 0
M  V30 54 H -2.893400 3.286985 -2.574078 0
M  V30 55 H -0.967970 3.341960 -4.054056 0
M  V30 56 H -0.090707 1.231656 -5.057976 0
M  V30 57 H -1.224067 -0.883176 -4.502778 0
M  V30 58 H -3.121494 -0.897290 -3.032904 0
M  V30 59 H -5.210959 -1.467636 -1.393926 0
M  V30 60 H -5.668295 -3.661908 -1.549409 0
M  V30 61 H -5.577543 -4.724354 -0.059047 0
M  V30 62 H -7.580543 -3.440956 0.526668 0
M  V30 63 H -5.203344 -3.776652 2.095125 0
M  V30 64 H -4.130566 -2.000240 3.303693 0
M  V30 65 H -3.651318 0.147964 3.556294 0
M  V30 66 H -2.257105 0.268786 2.497210 0
M  V30 67 H -3.722435 1.398805 2.326487 0
M  V30 68 H -0.469168 0.052911 -0.124524 0
M  V30 69 H 0.973339 -1.840589 -0.250174 0
M  V30 70 H 3.889697 -3.045945 2.113946 0
M  V30 71 H 5.245971 -2.981622 0.981239 0
M  V30 72 H 2.694686 -4.453730 0.229200 0
M  V30 73 H 4.069619 -5.199716 1.123354 0
M  V30 74 H 6.129770 -5.435938 -1.673387 0
M  V30 75 H 6.463158 -4.629140 -0.120849 0
M  V30 76 H 5.616487 -6.247031 -0.151412 0
M  V30 77 H 4.815167 -3.379031 -2.430817 0
M  V30 78 H 5.704412 -2.890666 -0.994427 0
M  V30 79 H 2.647563 -2.810969 -1.332921 0
M  V30 80 H 3.675052 -1.406768 -1.702699 0
M  V30 END ATOM
M  V30 BEGIN BOND
M  V30 1 1 1 2
M  V30 2 1 2 3
M  V30 3 2 3 4
M  V30 4 2 3 5
M  V30 5 1 3 6
M  V30 6 2 6 7
M  V30 7 1 7 8
M  V30 8 1 8 9
M  V30 9 1 9 10
M  V30 10 2 10 11
M  V30 11 1 11 12
M  V30 12 2 12 13
M  V30 13 1 13 14
M  V30 14 1 13 15
M  V30 15 1 15 16
M  V30 16 1 16 17
M  V30 17 1 17 18
M  V30 18 2 18 19
M  V30 19 1 19 20
M  V30 20 2 20 21
M  V30 21 1 21 22
M  V30 22 2 22 23
M  V30 23 1 16 24
M  V30 24 2 24 25
M  V30 25 1 25 26
M  V30 26 1 26 27
M  V30 27 1 27 28
M  V30 28 2 26 29
M  V30 29 1 29 30
M  V30 30 2 30 31
M  V30 31 1 31 32
M  V30 32 2 15 33
M  V30 33 2 8 34
M  V30 34 1 34 35
M  V30 35 2 35 36
M  V30 36 1 36 37
M  V30 37 1 37 38
M  V30 38 1 38 39
M  V30 39 1 39 40
M  V30 40 1 40 41
M  V30 41 1 40 42
M  V30 42 1 42 43
M  V30 43 1 36 6
M  V30 44 1 43 37
M  V30 45 1 33 10
M  V30 46 1 23 18
M  V30 47 1 31 24
M  V30 48 1 1 44
M  V30 49 1 1 45
M  V30 50 1 1 46
M  V30 51 1 2 47
M  V30 52 1 2 48
M  V30 53 1 7 49
M  V30 54 1 9 50
M  V30 55 1 12 51
M  V30 56 1 17 52
M  V30 57 1 17 53
M  V30 58 1 19 54
M  V30 59 1 20 55
M  V30 60 1 21 56
M  V30 61 1 22 57
M  V30 62 1 23 58
M  V30 63 1 25 59
M  V30 64 1 27 60
M  V30 65 1 27 61
M  V30 66 1 28 62
M  V30 67 1 29 63
M  V30 68 1 30 64
M  V30 69 1 32 65
M  V30 70 1 32 66
M  V30 71 1 32 67
M  V30 72 1 34 68
M  V30 73 1 35 69
M  V30 74 1 38 70
M  V30 75 1 38 71
M  V30 76 1 39 72
M  V30 77 1 39 73
M  V30 78 1 41 74
M  V30 79 1 41 75
M  V30 80 1 41 76
M  V30 81 1 42 77
M  V30 82 1 42 78
M  V30 83 1 43 79
M  V30 84 1 43 80
M  V30 END BOND
M  V30 END CTAB
M  END
>  <Dataset>  (899) 
ChEMBL_Kinases

>  <Ligand_Instance>  (899) 
nan

>  <PDB_ID>  (899) 
nan

>  <Standardized_SMILES>  (899) 
CCS(=O)(=O)c1cc(Nc2ncc(F)c(N(Cc3ccccc3)c3cc(CO)ccc3C)n2)ccc1N1CCN(C)CC1

>  <Name>  (899) 
nan

>  <Pocket>  (899) 
nan

>  <ATP_Site>  (899) 
nan

>  <Peripheral>  (899) 
nan

>  <Num_H_Atoms_ProtBoundConf>  (899) 
nan

>  <Num_Resolved_Atoms>  (899) 
nan

>  <Num_Not_Resolved_Atoms>  (899) 
nan

$$$$
CHEMBL488828
     RDKit          3D

  0  0  0  0  0  0  0  0  0  0999 V3000
M  V30 BEGIN CTAB
M  V30 COUNTS 76 78 0 0 0
M  V30 BEGIN ATOM
M  V30 1 C 3.173734 5.882843 1.066889 0
M  V30 2 C 2.814786 4.621240 1.848531 0
M  V30 3 C 4.108096 4.032922 2.320586 0
M  V30 4 C 1.988801 3.707708 1.036110 0
M  V30 5 C 0.643167 3.395515 1.285717 0
M  V30 6 C -0.088213 2.515488 0.471754 0
M  V30 7 C -1.454250 2.502301 0.971737 0
M  V30 8 C -1.949661 3.985227 0.922280 0
M  V30 9 C -2.466413 1.793142 0.099754 0
M  V30 10 C 0.525057 1.934847 -0.602983 0
M  V30 11 C -0.175084 0.965966 -1.435179 0
M  V30 12 O -0.869613 1.177677 -2.431785 0
M  V30 13 O 0.035417 -0.292459 -0.973048 0
M  V30 14 C -0.358336 -1.543689 -1.361436 0
M  V30 15 C -1.770463 -1.947353 -1.272418 0
M  V30 16 C -2.652914 -1.311456 -2.268817 0
M  V30 17 O -2.114966 -1.400703 -3.551705 0
M  V30 18 C -1.893944 -3.480295 -1.585101 0
M  V30 19 C -1.733580 -4.039250 -0.221038 0
M  V30 20 C -1.682722 -5.310647 0.187097 0
M  V30 21 C -1.524063 -5.882666 1.544069 0
M  V30 22 C -2.670776 -6.880724 1.813071 0
M  V30 23 C -2.621377 -7.161983 3.301366 0
M  V30 24 C -1.250327 -6.972145 3.873772 0
M  V30 25 C -0.137485 -7.335171 2.939443 0
M  V30 26 C -0.258046 -6.722386 1.575855 0
M  V30 27 C -1.614828 -2.964833 0.756974 0
M  V30 28 O -1.110497 -3.023239 1.896640 0
M  V30 29 O -2.209275 -1.880656 0.074227 0
M  V30 30 C 1.854447 2.174621 -0.945310 0
M  V30 31 C 2.627663 1.663947 -2.062185 0
M  V30 32 C 2.412165 2.517990 -3.324238 0
M  V30 33 C 2.542653 0.209871 -2.377132 0
M  V30 34 C 2.522761 3.066052 -0.086639 0
M  V30 35 H 2.275998 6.256421 0.509790 0
M  V30 36 H 3.978106 5.608148 0.359954 0
M  V30 37 H 3.482754 6.640380 1.787044 0
M  V30 38 H 2.217028 4.929200 2.725694 0
M  V30 39 H 4.761091 4.906048 2.607543 0
M  V30 40 H 4.649697 3.589373 1.437459 0
M  V30 41 H 4.043919 3.336590 3.155250 0
M  V30 42 H 0.301987 3.937205 2.181038 0
M  V30 43 H -1.599140 2.195885 2.008452 0
M  V30 44 H -1.535547 4.404075 -0.006822 0
M  V30 45 H -3.053645 4.009156 0.832961 0
M  V30 46 H -1.622076 4.511371 1.849657 0
M  V30 47 H -3.475974 1.772271 0.619974 0
M  V30 48 H -2.653133 2.417665 -0.809647 0
M  V30 49 H -2.253285 0.746196 -0.107510 0
M  V30 50 H 0.077525 -1.815866 -2.390126 0
M  V30 51 H 0.227571 -2.273232 -0.691635 0
M  V30 52 H -3.010831 -0.308109 -2.100709 0
M  V30 53 H -3.628993 -1.924605 -2.351526 0
M  V30 54 H -2.809307 -1.478571 -4.244427 0
M  V30 55 H -1.102627 -3.761239 -2.290644 0
M  V30 56 H -2.906051 -3.685752 -1.987219 0
M  V30 57 H -1.766164 -6.098957 -0.557895 0
M  V30 58 H -1.609176 -5.171246 2.372305 0
M  V30 59 H -2.531989 -7.800963 1.250104 0
M  V30 60 H -3.620523 -6.342050 1.614230 0
M  V30 61 H -3.304257 -6.479785 3.859611 0
M  V30 62 H -2.961168 -8.193717 3.525246 0
M  V30 63 H -1.105064 -5.947359 4.304727 0
M  V30 64 H -1.152733 -7.648976 4.757103 0
M  V30 65 H 0.804200 -6.948701 3.398079 0
M  V30 66 H 0.009772 -8.448456 2.909206 0
M  V30 67 H -0.406327 -7.560579 0.864774 0
M  V30 68 H 0.634355 -6.174266 1.250216 0
M  V30 69 H 3.731506 1.846022 -1.838468 0
M  V30 70 H 2.663405 3.574689 -3.104081 0
M  V30 71 H 1.348139 2.493324 -3.602738 0
M  V30 72 H 3.095301 2.182454 -4.125792 0
M  V30 73 H 2.655314 -0.408194 -1.465338 0
M  V30 74 H 3.463159 -0.099105 -2.989616 0
M  V30 75 H 1.710254 -0.082762 -3.044530 0
M  V30 76 H 3.567618 3.318488 -0.271098 0
M  V30 END ATOM
M  V30 BEGIN BOND
M  V30 1 1 1 2
M  V30 2 1 2 3
M  V30 3 1 2 4
M  V30 4 2 4 5
M  V30 5 1 5 6
M  V30 6 1 6 7
M  V30 7 1 7 8
M  V30 8 1 7 9
M  V30 9 2 6 10
M  V30 10 1 10 11
M  V30 11 2 11 12
M  V30 12 1 11 13
M  V30 13 1 13 14
M  V30 14 1 14 15
M  V30 15 1 15 16
M  V30 16 1 16 17
M  V30 17 1 15 18
M  V30 18 1 18 19
M  V30 19 2 19 20
M  V30 20 1 20 21
M  V30 21 1 21 22
M  V30 22 1 22 23
M  V30 23 1 23 24
M  V30 24 1 24 25
M  V30 25 1 25 26
M  V30 26 1 19 27
M  V30 27 2 27 28
M  V30 28 1 27 29
M  V30 29 1 10 30
M  V30 30 1 30 31
M  V30 31 1 31 32
M  V30 32 1 31 33
M  V30 33 2 30 34
M  V30 34 1 34 4
M  V30 35 1 29 15
M  V30 36 1 26 21
M  V30 37 1 1 35
M  V30 38 1 1 36
M  V30 39 1 1 37
M  V30 40 1 2 38
M  V30 41 1 3 39
M  V30 42 1 3 40
M  V30 43 1 3 41
M  V30 44 1 5 42
M  V30 45 1 7 43
M  V30 46 1 8 44
M  V30 47 1 8 45
M  V30 48 1 8 46
M  V30 49 1 9 47
M  V30 50 1 9 48
M  V30 51 1 9 49
M  V30 52 1 14 50
M  V30 53 1 14 51
M  V30 54 1 16 52
M  V30 55 1 16 53
M  V30 56 1 17 54
M  V30 57 1 18 55
M  V30 58 1 18 56
M  V30 59 1 20 57
M  V30 60 1 21 58
M  V30 61 1 22 59
M  V30 62 1 22 60
M  V30 63 1 23 61
M  V30 64 1 23 62
M  V30 65 1 24 63
M  V30 66 1 24 64
M  V30 67 1 25 65
M  V30 68 1 25 66
M  V30 69 1 26 67
M  V30 70 1 26 68
M  V30 71 1 31 69
M  V30 72 1 32 70
M  V30 73 1 32 71
M  V30 74 1 32 72
M  V30 75 1 33 73
M  V30 76 1 33 74
M  V30 77 1 33 75
M  V30 78 1 34 76
M  V30 END BOND
M  V30 END CTAB
M  END
>  <Dataset>  (900) 
ChEMBL_Kinases

>  <Ligand_Instance>  (900) 
nan

>  <PDB_ID>  (900) 
nan

>  <Standardized_SMILES>  (900) 
CC(C)c1cc(C(C)C)c(C(=O)OCC2(CO)C/C(=C/C3CCCCC3)C(=O)O2)c(C(C)C)c1

>  <Name>  (900) 
nan

>  <Pocket>  (900) 
nan

>  <ATP_Site>  (900) 
nan

>  <Peripheral>  (900) 
nan

>  <Num_H_Atoms_ProtBoundConf>  (900) 
nan

>  <Num_Resolved_Atoms>  (900) 
nan

>  <Num_Not_Resolved_Atoms>  (900) 
nan

$$$$
CHEMBL489317
     RDKit          3D

  0  0  0  0  0  0  0  0  0  0999 V3000
M  V30 BEGIN CTAB
M  V30 COUNTS 58 62 0 0 0
M  V30 BEGIN ATOM
M  V30 1 N 0.565965 1.522184 6.261058 0
M  V30 2 C 1.491148 1.331204 5.187563 0
M  V30 3 N 2.789351 1.234061 5.581965 0
M  V30 4 C 3.742373 1.048126 4.622823 0
M  V30 5 C 3.299273 0.974543 3.324669 0
M  V30 6 C 2.002022 1.069374 2.905521 0
M  V30 7 C 1.629858 0.975007 1.499430 0
M  V30 8 C 2.000234 1.765706 0.427795 0
M  V30 9 C 2.916871 2.905335 0.648142 0
M  V30 10 C 2.502960 3.949412 1.447385 0
M  V30 11 C 3.378694 5.014686 1.648801 0
M  V30 12 C 4.623022 5.003527 1.052887 0
M  V30 13 F 5.379626 6.092584 1.323524 0
M  V30 14 C 4.985265 3.940951 0.267184 0
M  V30 15 C 4.160416 2.858191 0.032236 0
M  V30 16 N 1.430518 1.340198 -0.710921 0
M  V30 17 C 0.667011 0.255767 -0.424209 0
M  V30 18 C -0.127876 -0.565954 -1.198952 0
M  V30 19 C -0.791512 -1.609587 -0.585378 0
M  V30 20 C -1.684693 -2.569026 -1.325900 0
M  V30 21 C -3.078434 -2.360851 -0.877430 0
M  V30 22 C -3.953705 -3.566467 -0.787818 0
M  V30 23 N -3.387290 -4.575975 -1.594575 0
M  V30 24 C -4.217867 -5.488342 -2.255309 0
M  V30 25 C -4.993396 -4.776972 -3.340751 0
M  V30 26 O -4.069918 -4.227527 -4.236269 0
M  V30 27 C -2.119627 -5.053645 -1.139356 0
M  V30 28 C -1.143233 -3.950201 -1.325594 0
M  V30 29 C -0.673689 -1.841854 0.778765 0
M  V30 30 C 0.126334 -1.022155 1.584514 0
M  V30 31 C 0.782699 0.024210 0.928546 0
M  V30 32 N 1.090714 1.253391 3.891128 0
M  V30 33 H -0.064321 2.154270 6.764091 0
M  V30 34 H 0.455423 0.627438 6.806414 0
M  V30 35 H 4.763976 0.973303 4.939264 0
M  V30 36 H 4.043686 0.825903 2.540209 0
M  V30 37 H 1.524811 3.936723 1.902593 0
M  V30 38 H 3.009722 5.805141 2.282608 0
M  V30 39 H 5.986898 4.038305 -0.150443 0
M  V30 40 H 4.510020 2.051386 -0.597825 0
M  V30 41 H 1.558811 1.772774 -1.641453 0
M  V30 42 H -0.240694 -0.414675 -2.249026 0
M  V30 43 H -1.629523 -2.207134 -2.395117 0
M  V30 44 H -3.071073 -1.860566 0.137230 0
M  V30 45 H -3.613346 -1.602991 -1.523075 0
M  V30 46 H -4.976715 -3.328084 -1.141979 0
M  V30 47 H -4.074757 -3.866461 0.290143 0
M  V30 48 H -4.966850 -5.967835 -1.577962 0
M  V30 49 H -3.672238 -6.328981 -2.718870 0
M  V30 50 H -5.677312 -5.464808 -3.880335 0
M  V30 51 H -5.609159 -3.937586 -2.960764 0
M  V30 52 H -3.973767 -4.847791 -4.977245 0
M  V30 53 H -1.841959 -5.940190 -1.744814 0
M  V30 54 H -2.154966 -5.412543 -0.073177 0
M  V30 55 H -0.396704 -4.008275 -0.486208 0
M  V30 56 H -0.542843 -4.170851 -2.235106 0
M  V30 57 H -1.155739 -2.626198 1.318327 0
M  V30 58 H 0.230116 -1.188023 2.648309 0
M  V30 END ATOM
M  V30 BEGIN BOND
M  V30 1 1 1 2
M  V30 2 2 2 3
M  V30 3 1 3 4
M  V30 4 2 4 5
M  V30 5 1 5 6
M  V30 6 1 6 7
M  V30 7 2 7 8
M  V30 8 1 8 9
M  V30 9 2 9 10
M  V30 10 1 10 11
M  V30 11 2 11 12
M  V30 12 1 12 13
M  V30 13 1 12 14
M  V30 14 2 14 15
M  V30 15 1 8 16
M  V30 16 1 16 17
M  V30 17 2 17 18
M  V30 18 1 18 19
M  V30 19 1 19 20
M  V30 20 1 20 21
M  V30 21 1 21 22
M  V30 22 1 22 23
M  V30 23 1 23 24
M  V30 24 1 24 25
M  V30 25 1 25 26
M  V30 26 1 23 27
M  V30 27 1 27 28
M  V30 28 2 19 29
M  V30 29 1 29 30
M  V30 30 2 30 31
M  V30 31 2 6 32
M  V30 32 1 32 2
M  V30 33 1 31 7
M  V30 34 1 15 9
M  V30 35 1 31 17
M  V30 36 1 28 20
M  V30 37 1 1 33
M  V30 38 1 1 34
M  V30 39 1 4 35
M  V30 40 1 5 36
M  V30 41 1 10 37
M  V30 42 1 11 38
M  V30 43 1 14 39
M  V30 44 1 15 40
M  V30 45 1 16 41
M  V30 46 1 18 42
M  V30 47 1 20 43
M  V30 48 1 21 44
M  V30 49 1 21 45
M  V30 50 1 22 46
M  V30 51 1 22 47
M  V30 52 1 24 48
M  V30 53 1 24 49
M  V30 54 1 25 50
M  V30 55 1 25 51
M  V30 56 1 26 52
M  V30 57 1 27 53
M  V30 58 1 27 54
M  V30 59 1 28 55
M  V30 60 1 28 56
M  V30 61 1 29 57
M  V30 62 1 30 58
M  V30 END BOND
M  V30 END CTAB
M  END
>  <Dataset>  (901) 
ChEMBL_Kinases

>  <Ligand_Instance>  (901) 
nan

>  <PDB_ID>  (901) 
nan

>  <Standardized_SMILES>  (901) 
Nc1nccc(-c2c(-c3ccc(F)cc3)[nH]c3cc(C4CCN(CCO)CC4)ccc23)n1

>  <Name>  (901) 
nan

>  <Pocket>  (901) 
nan

>  <ATP_Site>  (901) 
nan

>  <Peripheral>  (901) 
nan

>  <Num_H_Atoms_ProtBoundConf>  (901) 
nan

>  <Num_Resolved_Atoms>  (901) 
nan

>  <Num_Not_Resolved_Atoms>  (901) 
nan

$$$$
CHEMBL599478
     RDKit          3D

  0  0  0  0  0  0  0  0  0  0999 V3000
M  V30 BEGIN CTAB
M  V30 COUNTS 46 49 0 0 0
M  V30 BEGIN ATOM
M  V30 1 C -2.562443 -7.009078 4.744236 0
M  V30 2 O -2.767280 -6.691994 3.400031 0
M  V30 3 C -2.572024 -5.421604 2.867198 0
M  V30 4 C -2.154152 -4.348652 3.625442 0
M  V30 5 C -1.980325 -3.105270 3.021411 0
M  V30 6 C -2.227531 -2.952028 1.663871 0
M  V30 7 N -2.005495 -1.619630 1.187501 0
M  V30 8 C -0.808261 -1.024973 0.957656 0
M  V30 9 C -1.058437 0.274864 0.500276 0
M  V30 10 C 0.103577 1.112095 0.184943 0
M  V30 11 C 0.070606 2.411518 0.652554 0
M  V30 12 C 1.176336 3.176306 0.341452 0
M  V30 13 C 2.289861 2.751539 -0.386056 0
M  V30 14 C 2.241367 1.433313 -0.817732 0
M  V30 15 C 1.165539 0.613208 -0.541388 0
M  V30 16 C 3.309745 0.789172 -1.597764 0
M  V30 17 O 2.949873 -0.300341 -2.138022 0
M  V30 18 N 4.659287 1.244987 -1.802822 0
M  V30 19 C 5.208019 2.484798 -1.239005 0
M  V30 20 C 4.271505 3.611722 -1.602554 0
M  V30 21 C 3.267550 3.863625 -0.510046 0
M  V30 22 C -2.432611 0.407869 0.474650 0
M  V30 23 N -2.979312 1.648635 0.042882 0
M  V30 24 N -2.976580 -0.757103 0.896638 0
M  V30 25 C -2.646399 -4.022361 0.897842 0
M  V30 26 C -2.818128 -5.265175 1.511238 0
M  V30 27 H -1.727187 -6.431745 5.202905 0
M  V30 28 H -3.479601 -6.969685 5.366514 0
M  V30 29 H -2.207096 -8.077842 4.790832 0
M  V30 30 H -1.963452 -4.473603 4.680434 0
M  V30 31 H -1.646673 -2.298277 3.684153 0
M  V30 32 H 0.108432 -1.558397 1.132574 0
M  V30 33 H -0.738132 2.822180 1.216350 0
M  V30 34 H 1.170339 4.206386 0.701643 0
M  V30 35 H 1.174784 -0.410795 -0.901168 0
M  V30 36 H 5.222266 0.588924 -2.407733 0
M  V30 37 H 6.235060 2.628225 -1.635664 0
M  V30 38 H 5.201769 2.338233 -0.131653 0
M  V30 39 H 4.877191 4.545576 -1.704490 0
M  V30 40 H 3.771789 3.476819 -2.584000 0
M  V30 41 H 3.813058 4.062738 0.430575 0
M  V30 42 H 2.693012 4.779613 -0.757047 0
M  V30 43 H -3.060032 2.474150 0.684115 0
M  V30 44 H -3.327645 1.796999 -0.937055 0
M  V30 45 H -2.806683 -3.787892 -0.138212 0
M  V30 46 H -3.147191 -6.063520 0.860396 0
M  V30 END ATOM
M  V30 BEGIN BOND
M  V30 1 1 1 2
M  V30 2 1 2 3
M  V30 3 2 3 4
M  V30 4 1 4 5
M  V30 5 2 5 6
M  V30 6 1 6 7
M  V30 7 1 7 8
M  V30 8 2 8 9
M  V30 9 1 9 10
M  V30 10 2 10 11
M  V30 11 1 11 12
M  V30 12 2 12 13
M  V30 13 1 13 14
M  V30 14 2 14 15
M  V30 15 1 14 16
M  V30 16 2 16 17
M  V30 17 1 16 18
M  V30 18 1 18 19
M  V30 19 1 19 20
M  V30 20 1 20 21
M  V30 21 1 9 22
M  V30 22 1 22 23
M  V30 23 2 22 24
M  V30 24 1 6 25
M  V30 25 2 25 26
M  V30 26 1 26 3
M  V30 27 1 24 7
M  V30 28 1 15 10
M  V30 29 1 21 13
M  V30 30 1 1 27
M  V30 31 1 1 28
M  V30 32 1 1 29
M  V30 33 1 4 30
M  V30 34 1 5 31
M  V30 35 1 8 32
M  V30 36 1 11 33
M  V30 37 1 12 34
M  V30 38 1 15 35
M  V30 39 1 18 36
M  V30 40 1 19 37
M  V30 41 1 19 38
M  V30 42 1 20 39
M  V30 43 1 20 40
M  V30 44 1 21 41
M  V30 45 1 21 42
M  V30 46 1 23 43
M  V30 47 1 23 44
M  V30 48 1 25 45
M  V30 49 1 26 46
M  V30 END BOND
M  V30 END CTAB
M  END
>  <Dataset>  (902) 
ChEMBL_Kinases

>  <Ligand_Instance>  (902) 
nan

>  <PDB_ID>  (902) 
nan

>  <Standardized_SMILES>  (902) 
COc1ccc(-n2cc(-c3ccc4c(c3)C(=O)NCCC4)c(N)n2)cc1

>  <Name>  (902) 
nan

>  <Pocket>  (902) 
nan

>  <ATP_Site>  (902) 
nan

>  <Peripheral>  (902) 
nan

>  <Num_H_Atoms_ProtBoundConf>  (902) 
nan

>  <Num_Resolved_Atoms>  (902) 
nan

>  <Num_Not_Resolved_Atoms>  (902) 
nan

$$$$
CHEMBL3913796
     RDKit          3D

  0  0  0  0  0  0  0  0  0  0999 V3000
M  V30 BEGIN CTAB
M  V30 COUNTS 49 53 0 0 0
M  V30 BEGIN ATOM
M  V30 1 N 1.246727 -5.192826 0.815406 0
M  V30 2 S 2.456590 -4.266375 1.613182 0
M  V30 3 O 1.993665 -3.941044 2.982901 0
M  V30 4 O 3.710266 -5.124221 1.710214 0
M  V30 5 C 2.817519 -2.838302 0.672159 0
M  V30 6 C 3.792558 -2.759617 -0.300998 0
M  V30 7 C 4.021509 -1.592308 -1.008292 0
M  V30 8 C 3.235798 -0.476805 -0.715909 0
M  V30 9 C 2.248212 -0.505333 0.248320 0
M  V30 10 N 1.487910 0.673386 0.490246 0
M  V30 11 C 1.848231 1.664239 1.447379 0
M  V30 12 O 2.854061 1.669205 2.211290 0
M  V30 13 C 0.847940 2.744128 1.437149 0
M  V30 14 C 0.746859 3.910085 2.166608 0
M  V30 15 C -0.342399 4.741560 1.917691 0
M  V30 16 C -1.248287 4.342813 0.957369 0
M  V30 17 C -1.165521 3.180594 0.216590 0
M  V30 18 C -0.067703 2.360278 0.479695 0
M  V30 19 C 0.276069 1.077779 -0.147488 0
M  V30 20 O 0.544505 1.211800 -1.512053 0
M  V30 21 C -0.855075 0.149083 -0.028445 0
M  V30 22 C -1.645466 -0.209486 -1.108476 0
M  V30 23 C -2.721247 -1.066886 -1.094685 0
M  V30 24 C -3.036642 -1.623965 0.137903 0
M  V30 25 C -2.300257 -1.319526 1.263708 0
M  V30 26 C -1.238660 -0.447082 1.144111 0
M  V30 27 N -2.700105 -1.938861 2.482825 0
M  V30 28 C -3.823315 -2.828649 2.479926 0
M  V30 29 O -4.447861 -2.961510 3.556188 0
M  V30 30 C -4.147543 -3.515628 1.198371 0
M  V30 31 O -4.130516 -2.503187 0.181055 0
M  V30 32 C 2.076510 -1.701623 0.912931 0
M  V30 33 H 1.138093 -6.098563 1.281219 0
M  V30 34 H 1.377413 -5.288981 -0.196610 0
M  V30 35 H 4.352596 -3.680640 -0.456632 0
M  V30 36 H 4.798710 -1.589546 -1.758780 0
M  V30 37 H 3.431859 0.424754 -1.280358 0
M  V30 38 H 1.499363 4.158275 2.907489 0
M  V30 39 H -0.461840 5.664177 2.464564 0
M  V30 40 H -2.079064 5.017296 0.795493 0
M  V30 41 H -1.944897 2.985846 -0.506914 0
M  V30 42 H 0.815832 0.351203 -1.915321 0
M  V30 43 H -1.407133 0.224677 -2.092293 0
M  V30 44 H -3.274114 -1.282053 -1.993293 0
M  V30 45 H -0.690683 -0.239923 2.060093 0
M  V30 46 H -2.134773 -1.705388 3.345220 0
M  V30 47 H -3.341433 -4.237524 0.904555 0
M  V30 48 H -5.125212 -3.996602 1.211694 0
M  V30 49 H 1.303850 -1.726174 1.668605 0
M  V30 END ATOM
M  V30 BEGIN BOND
M  V30 1 1 1 2
M  V30 2 2 2 3
M  V30 3 2 2 4
M  V30 4 1 2 5
M  V30 5 2 5 6
M  V30 6 1 6 7
M  V30 7 2 7 8
M  V30 8 1 8 9
M  V30 9 1 9 10
M  V30 10 1 10 11
M  V30 11 2 11 12
M  V30 12 1 11 13
M  V30 13 2 13 14
M  V30 14 1 14 15
M  V30 15 2 15 16
M  V30 16 1 16 17
M  V30 17 2 17 18
M  V30 18 1 18 19
M  V30 19 1 19 20
M  V30 20 1 19 21
M  V30 21 2 21 22
M  V30 22 1 22 23
M  V30 23 2 23 24
M  V30 24 1 24 25
M  V30 25 2 25 26
M  V30 26 1 25 27
M  V30 27 1 27 28
M  V30 28 2 28 29
M  V30 29 1 28 30
M  V30 30 1 30 31
M  V30 31 2 9 32
M  V30 32 1 32 5
M  V30 33 1 19 10
M  V30 34 1 26 21
M  V30 35 1 18 13
M  V30 36 1 31 24
M  V30 37 1 1 33
M  V30 38 1 1 34
M  V30 39 1 6 35
M  V30 40 1 7 36
M  V30 41 1 8 37
M  V30 42 1 14 38
M  V30 43 1 15 39
M  V30 44 1 16 40
M  V30 45 1 17 41
M  V30 46 1 20 42
M  V30 47 1 22 43
M  V30 48 1 23 44
M  V30 49 1 26 45
M  V30 50 1 27 46
M  V30 51 1 30 47
M  V30 52 1 30 48
M  V30 53 1 32 49
M  V30 END BOND
M  V30 END CTAB
M  END
>  <Dataset>  (903) 
ChEMBL_Kinases

>  <Ligand_Instance>  (903) 
nan

>  <PDB_ID>  (903) 
nan

>  <Standardized_SMILES>  (903) 
NS(=O)(=O)c1cccc(N2C(=O)c3ccccc3C2(O)c2ccc3c(c2)NC(=O)CO3)c1

>  <Name>  (903) 
nan

>  <Pocket>  (903) 
nan

>  <ATP_Site>  (903) 
nan

>  <Peripheral>  (903) 
nan

>  <Num_H_Atoms_ProtBoundConf>  (903) 
nan

>  <Num_Resolved_Atoms>  (903) 
nan

>  <Num_Not_Resolved_Atoms>  (903) 
nan

$$$$
CHEMBL488836
     RDKit          3D

  0  0  0  0  0  0  0  0  0  0999 V3000
M  V30 BEGIN CTAB
M  V30 COUNTS 43 45 0 0 0
M  V30 BEGIN ATOM
M  V30 1 O 1.142137 -3.668253 3.237424 0
M  V30 2 C 1.087578 -2.943627 2.185607 0
M  V30 3 O 1.279947 -3.087395 0.796946 0
M  V30 4 C 1.462967 -1.825613 0.199522 0
M  V30 5 C 2.738899 -1.822394 -0.605667 0
M  V30 6 O 3.849259 -2.090994 0.189156 0
M  V30 7 C 0.325858 -1.499270 -0.768341 0
M  V30 8 O 0.602150 -0.244118 -1.303997 0
M  V30 9 C -0.141734 0.461338 -2.216014 0
M  V30 10 O -1.208306 -0.049721 -2.644903 0
M  V30 11 C 0.268765 1.792888 -2.705847 0
M  V30 12 C -0.562018 2.411333 -3.619613 0
M  V30 13 C -0.160514 3.671467 -4.075377 0
M  V30 14 C 1.012909 4.212260 -3.598804 0
M  V30 15 C 1.832818 3.579549 -2.684089 0
M  V30 16 C 1.443905 2.335371 -2.229089 0
M  V30 17 C 1.477695 -0.794755 1.310700 0
M  V30 18 C 0.727919 -1.539909 2.389611 0
M  V30 19 C -0.073392 -1.035869 3.296998 0
M  V30 20 C -0.791736 -1.789640 4.313629 0
M  V30 21 C -0.778663 -1.247381 5.601405 0
M  V30 22 C -1.409935 -1.804492 6.679951 0
M  V30 23 C -2.109629 -2.979549 6.499046 0
M  V30 24 C -2.152329 -3.554760 5.243646 0
M  V30 25 C -1.503475 -2.961947 4.183545 0
M  V30 26 H 2.858223 -0.903225 -1.202541 0
M  V30 27 H 2.688089 -2.650058 -1.342195 0
M  V30 28 H 3.650296 -2.179067 1.133845 0
M  V30 29 H 0.398714 -2.303610 -1.557452 0
M  V30 30 H -0.668473 -1.612465 -0.324091 0
M  V30 31 H -1.472626 1.946584 -3.963422 0
M  V30 32 H -0.769594 4.211194 -4.794445 0
M  V30 33 H 1.380205 5.194714 -3.918078 0
M  V30 34 H 2.751040 4.022724 -2.322368 0
M  V30 35 H 2.061417 1.802058 -1.507789 0
M  V30 36 H 2.501183 -0.552828 1.655203 0
M  V30 37 H 0.962282 0.136010 1.075899 0
M  V30 38 H -0.229289 0.054669 3.306856 0
M  V30 39 H -0.241642 -0.314096 5.819061 0
M  V30 40 H -1.394192 -1.380654 7.666365 0
M  V30 41 H -2.649008 -3.507307 7.292961 0
M  V30 42 H -2.683976 -4.486993 5.007292 0
M  V30 43 H -1.528759 -3.381551 3.188243 0
M  V30 END ATOM
M  V30 BEGIN BOND
M  V30 1 2 1 2
M  V30 2 1 2 3
M  V30 3 1 3 4
M  V30 4 1 4 5
M  V30 5 1 5 6
M  V30 6 1 4 7
M  V30 7 1 7 8
M  V30 8 1 8 9
M  V30 9 2 9 10
M  V30 10 1 9 11
M  V30 11 2 11 12
M  V30 12 1 12 13
M  V30 13 2 13 14
M  V30 14 1 14 15
M  V30 15 2 15 16
M  V30 16 1 4 17
M  V30 17 1 17 18
M  V30 18 2 18 19
M  V30 19 1 19 20
M  V30 20 2 20 21
M  V30 21 1 21 22
M  V30 22 2 22 23
M  V30 23 1 23 24
M  V30 24 2 24 25
M  V30 25 1 18 2
M  V30 26 1 25 20
M  V30 27 1 16 11
M  V30 28 1 5 26
M  V30 29 1 5 27
M  V30 30 1 6 28
M  V30 31 1 7 29
M  V30 32 1 7 30
M  V30 33 1 12 31
M  V30 34 1 13 32
M  V30 35 1 14 33
M  V30 36 1 15 34
M  V30 37 1 16 35
M  V30 38 1 17 36
M  V30 39 1 17 37
M  V30 40 1 19 38
M  V30 41 1 21 39
M  V30 42 1 22 40
M  V30 43 1 23 41
M  V30 44 1 24 42
M  V30 45 1 25 43
M  V30 END BOND
M  V30 END CTAB
M  END
>  <Dataset>  (904) 
ChEMBL_Kinases

>  <Ligand_Instance>  (904) 
nan

>  <PDB_ID>  (904) 
nan

>  <Standardized_SMILES>  (904) 
O=C1OC(CO)(COC(=O)c2ccccc2)C/C1=C/c1ccccc1

>  <Name>  (904) 
nan

>  <Pocket>  (904) 
nan

>  <ATP_Site>  (904) 
nan

>  <Peripheral>  (904) 
nan

>  <Num_H_Atoms_ProtBoundConf>  (904) 
nan

>  <Num_Resolved_Atoms>  (904) 
nan

>  <Num_Not_Resolved_Atoms>  (904) 
nan

$$$$
CHEMBL3913670
     RDKit          3D

  0  0  0  0  0  0  0  0  0  0999 V3000
M  V30 BEGIN CTAB
M  V30 COUNTS 41 44 0 0 0
M  V30 BEGIN ATOM
M  V30 1 N 2.243337 -8.503839 -0.058712 0
M  V30 2 C 1.454129 -7.393913 0.319782 0
M  V30 3 O 0.381358 -7.569512 0.957249 0
M  V30 4 C 1.795503 -6.008671 0.018994 0
M  V30 5 C 2.949873 -5.663171 -0.648671 0
M  V30 6 C 3.288021 -4.341264 -0.940067 0
M  V30 7 C 2.468387 -3.299982 -0.566850 0
M  V30 8 N 2.449154 -1.955566 -0.661880 0
M  V30 9 C 1.347463 -1.441474 -0.091582 0
M  V30 10 C 0.904699 -0.059128 0.048012 0
M  V30 11 C -0.291039 0.250632 0.660975 0
M  V30 12 C -0.807747 1.514555 0.854124 0
M  V30 13 C -0.043095 2.590684 0.381579 0
M  V30 14 C -0.576157 3.930917 0.611914 0
M  V30 15 O -0.211737 4.795170 -0.217912 0
M  V30 16 C -1.466829 4.244085 1.723704 0
M  V30 17 C -1.361323 3.455497 2.850832 0
M  V30 18 C -2.182722 3.652545 3.958146 0
M  V30 19 C -3.137272 4.677050 3.924045 0
M  V30 20 Cl -4.210836 4.973694 5.297995 0
M  V30 21 C -3.253901 5.486229 2.784142 0
M  V30 22 C -2.411805 5.240462 1.720976 0
M  V30 23 C 1.158174 2.317946 -0.237894 0
M  V30 24 C 1.634657 1.027772 -0.408380 0
M  V30 25 N 0.668055 -2.504431 0.368731 0
M  V30 26 C 1.314156 -3.640896 0.099795 0
M  V30 27 C 0.986297 -4.958487 0.385022 0
M  V30 28 H 3.213200 -8.275506 -0.402380 0
M  V30 29 H 1.828258 -9.464503 0.020598 0
M  V30 30 H 3.666994 -6.393524 -0.988669 0
M  V30 31 H 4.195835 -4.054800 -1.466736 0
M  V30 32 H 3.196111 -1.396875 -1.119379 0
M  V30 33 H -0.871580 -0.618870 1.022278 0
M  V30 34 H -1.785931 1.558493 1.349422 0
M  V30 35 H -0.675992 2.643569 3.047437 0
M  V30 36 H -2.172538 3.087943 4.880628 0
M  V30 37 H -4.003857 6.258646 2.817644 0
M  V30 38 H -2.505648 5.865932 0.843780 0
M  V30 39 H 1.747359 3.144598 -0.604473 0
M  V30 40 H 2.577758 0.860270 -0.898432 0
M  V30 41 H 0.054065 -5.128329 0.919295 0
M  V30 END ATOM
M  V30 BEGIN BOND
M  V30 1 1 1 2
M  V30 2 2 2 3
M  V30 3 1 2 4
M  V30 4 2 4 5
M  V30 5 1 5 6
M  V30 6 2 6 7
M  V30 7 1 7 8
M  V30 8 1 8 9
M  V30 9 1 9 10
M  V30 10 2 10 11
M  V30 11 1 11 12
M  V30 12 2 12 13
M  V30 13 1 13 14
M  V30 14 2 14 15
M  V30 15 1 14 16
M  V30 16 2 16 17
M  V30 17 1 17 18
M  V30 18 2 18 19
M  V30 19 1 19 20
M  V30 20 1 19 21
M  V30 21 2 21 22
M  V30 22 1 13 23
M  V30 23 2 23 24
M  V30 24 2 9 25
M  V30 25 1 25 26
M  V30 26 2 26 27
M  V30 27 1 27 4
M  V30 28 1 26 7
M  V30 29 1 24 10
M  V30 30 1 22 16
M  V30 31 1 1 28
M  V30 32 1 1 29
M  V30 33 1 5 30
M  V30 34 1 6 31
M  V30 35 1 8 32
M  V30 36 1 11 33
M  V30 37 1 12 34
M  V30 38 1 17 35
M  V30 39 1 18 36
M  V30 40 1 21 37
M  V30 41 1 22 38
M  V30 42 1 23 39
M  V30 43 1 24 40
M  V30 44 1 27 41
M  V30 END BOND
M  V30 END CTAB
M  END
>  <Dataset>  (905) 
ChEMBL_Kinases

>  <Ligand_Instance>  (905) 
nan

>  <PDB_ID>  (905) 
nan

>  <Standardized_SMILES>  (905) 
NC(=O)c1ccc2[nH]c(-c3ccc(C(=O)c4ccc(Cl)cc4)cc3)nc2c1

>  <Name>  (905) 
nan

>  <Pocket>  (905) 
nan

>  <ATP_Site>  (905) 
nan

>  <Peripheral>  (905) 
nan

>  <Num_H_Atoms_ProtBoundConf>  (905) 
nan

>  <Num_Resolved_Atoms>  (905) 
nan

>  <Num_Not_Resolved_Atoms>  (905) 
nan

$$$$
CHEMBL489316
     RDKit          3D

  0  0  0  0  0  0  0  0  0  0999 V3000
M  V30 BEGIN CTAB
M  V30 COUNTS 51 55 0 0 0
M  V30 BEGIN ATOM
M  V30 1 N 3.022614 -4.248591 3.859883 0
M  V30 2 C 3.338469 -3.329885 2.813266 0
M  V30 3 N 4.595397 -3.329075 2.295433 0
M  V30 4 C 4.933921 -2.486866 1.315601 0
M  V30 5 C 4.025355 -1.597865 0.802050 0
M  V30 6 C 2.747601 -1.586749 1.316548 0
M  V30 7 C 1.581729 -0.764935 0.975953 0
M  V30 8 C 1.416116 0.588752 1.075395 0
M  V30 9 C 2.485578 1.464465 1.582466 0
M  V30 10 C 2.906981 2.399243 0.650851 0
M  V30 11 C 3.911002 3.287119 1.000376 0
M  V30 12 C 4.485507 3.243840 2.258087 0
M  V30 13 F 5.455853 4.093919 2.610784 0
M  V30 14 C 4.042646 2.295385 3.172172 0
M  V30 15 C 3.040128 1.395893 2.847924 0
M  V30 16 N 0.185875 0.925469 0.652649 0
M  V30 17 C -0.469420 -0.189677 0.272797 0
M  V30 18 C -1.714383 -0.447285 -0.226619 0
M  V30 19 C -2.210121 -1.688617 -0.561341 0
M  V30 20 C -3.573081 -1.949528 -1.097463 0
M  V30 21 C -3.948212 -1.083459 -2.249530 0
M  V30 22 C -4.746199 0.119045 -1.936383 0
M  V30 23 N -5.115811 0.357900 -0.609548 0
M  V30 24 C -4.920299 -0.603075 0.391768 0
M  V30 25 C -4.622152 -1.996785 -0.016484 0
M  V30 26 C -1.276941 -2.707605 -0.332030 0
M  V30 27 C -0.005064 -2.532361 0.167523 0
M  V30 28 C 0.391897 -1.247336 0.470546 0
M  V30 29 N 2.444117 -2.463574 2.316536 0
M  V30 30 H 3.157496 -3.563615 4.642052 0
M  V30 31 H 2.749582 -5.256184 3.868901 0
M  V30 32 H 5.916322 -2.423093 0.847741 0
M  V30 33 H 4.134244 -0.853736 0.014221 0
M  V30 34 H 2.515582 2.505585 -0.353560 0
M  V30 35 H 4.258430 4.035876 0.274050 0
M  V30 36 H 4.449879 2.214363 4.160096 0
M  V30 37 H 2.635164 0.631363 3.486849 0
M  V30 38 H -0.176152 1.894173 0.632166 0
M  V30 39 H -2.338664 0.419867 -0.364087 0
M  V30 40 H -3.515051 -3.031519 -1.457151 0
M  V30 41 H -4.482110 -1.709837 -2.995247 0
M  V30 42 H -2.980674 -0.833038 -2.777691 0
M  V30 43 H -4.204437 1.016964 -2.313613 0
M  V30 44 H -5.701074 0.130097 -2.543921 0
M  V30 45 H -5.967323 0.945074 -0.517012 0
M  V30 46 H -4.094687 -0.262638 1.080800 0
M  V30 47 H -5.847424 -0.651473 1.049458 0
M  V30 48 H -5.498476 -2.551815 -0.410817 0
M  V30 49 H -4.208764 -2.550923 0.855058 0
M  V30 50 H -1.588644 -3.735598 -0.572101 0
M  V30 51 H 0.625379 -3.414364 0.299260 0
M  V30 END ATOM
M  V30 BEGIN BOND
M  V30 1 1 1 2
M  V30 2 2 2 3
M  V30 3 1 3 4
M  V30 4 2 4 5
M  V30 5 1 5 6
M  V30 6 1 6 7
M  V30 7 2 7 8
M  V30 8 1 8 9
M  V30 9 2 9 10
M  V30 10 1 10 11
M  V30 11 2 11 12
M  V30 12 1 12 13
M  V30 13 1 12 14
M  V30 14 2 14 15
M  V30 15 1 8 16
M  V30 16 1 16 17
M  V30 17 2 17 18
M  V30 18 1 18 19
M  V30 19 1 19 20
M  V30 20 1 20 21
M  V30 21 1 21 22
M  V30 22 1 22 23
M  V30 23 1 23 24
M  V30 24 1 24 25
M  V30 25 2 19 26
M  V30 26 1 26 27
M  V30 27 2 27 28
M  V30 28 2 6 29
M  V30 29 1 29 2
M  V30 30 1 28 7
M  V30 31 1 15 9
M  V30 32 1 28 17
M  V30 33 1 25 20
M  V30 34 1 1 30
M  V30 35 1 1 31
M  V30 36 1 4 32
M  V30 37 1 5 33
M  V30 38 1 10 34
M  V30 39 1 11 35
M  V30 40 1 14 36
M  V30 41 1 15 37
M  V30 42 1 16 38
M  V30 43 1 18 39
M  V30 44 1 20 40
M  V30 45 1 21 41
M  V30 46 1 21 42
M  V30 47 1 22 43
M  V30 48 1 22 44
M  V30 49 1 23 45
M  V30 50 1 24 46
M  V30 51 1 24 47
M  V30 52 1 25 48
M  V30 53 1 25 49
M  V30 54 1 26 50
M  V30 55 1 27 51
M  V30 END BOND
M  V30 END CTAB
M  END
>  <Dataset>  (906) 
ChEMBL_Kinases

>  <Ligand_Instance>  (906) 
nan

>  <PDB_ID>  (906) 
nan

>  <Standardized_SMILES>  (906) 
Nc1nccc(-c2c(-c3ccc(F)cc3)[nH]c3cc(C4CCNCC4)ccc23)n1

>  <Name>  (906) 
nan

>  <Pocket>  (906) 
nan

>  <ATP_Site>  (906) 
nan

>  <Peripheral>  (906) 
nan

>  <Num_H_Atoms_ProtBoundConf>  (906) 
nan

>  <Num_Resolved_Atoms>  (906) 
nan

>  <Num_Not_Resolved_Atoms>  (906) 
nan

$$$$
CHEMBL489210
     RDKit          3D

  0  0  0  0  0  0  0  0  0  0999 V3000
M  V30 BEGIN CTAB
M  V30 COUNTS 41 45 0 0 0
M  V30 BEGIN ATOM
M  V30 1 C -2.262788 -4.948732 1.760962 0
M  V30 2 N -1.539163 -3.683606 1.722629 0
M  V30 3 C -2.156551 -2.515035 1.498953 0
M  V30 4 C -1.248395 -1.472203 1.510382 0
M  V30 5 C -1.503871 -0.050230 1.319163 0
M  V30 6 C -0.973648 0.954030 0.638893 0
M  V30 7 C 0.212338 0.840896 -0.243100 0
M  V30 8 C 0.375116 -0.234992 -1.135128 0
M  V30 9 O 1.497239 -0.062370 -1.754789 0
M  V30 10 C 2.139996 1.010656 -1.398942 0
M  V30 11 C 3.312909 1.659858 -1.703323 0
M  V30 12 C 3.745809 2.831368 -1.133293 0
M  V30 13 O 4.929147 3.478596 -1.446224 0
M  V30 14 C 2.882414 3.348247 -0.181374 0
M  V30 15 C 1.666164 2.786909 0.214869 0
M  V30 16 C 1.339692 1.614588 -0.427049 0
M  V30 17 C -1.740468 2.180173 0.882952 0
M  V30 18 O -1.573261 3.338812 0.433205 0
M  V30 19 N -2.822045 1.878369 1.790207 0
M  V30 20 C -2.668521 0.491462 2.057080 0
M  V30 21 O -3.510674 -0.052929 2.850614 0
M  V30 22 C -0.062478 -2.112878 1.756757 0
M  V30 23 C 1.238809 -1.679876 1.903151 0
M  V30 24 C 2.281669 -2.520878 2.155612 0
M  V30 25 F 3.562669 -2.091683 2.300203 0
M  V30 26 C 2.110722 -3.895292 2.287001 0
M  V30 27 C 0.800550 -4.361926 2.144406 0
M  V30 28 C -0.216236 -3.474936 1.890720 0
M  V30 29 H -2.894789 -5.045876 2.655883 0
M  V30 30 H -1.543128 -5.812002 1.789349 0
M  V30 31 H -2.816158 -5.034475 0.797846 0
M  V30 32 H -3.235716 -2.373049 1.326997 0
M  V30 33 H -0.352423 -1.027058 -1.230135 0
M  V30 34 H 3.947671 1.192574 -2.466547 0
M  V30 35 H 4.981836 4.336796 -1.982591 0
M  V30 36 H 3.161479 4.275119 0.311896 0
M  V30 37 H 1.055483 3.249101 0.967754 0
M  V30 38 H -3.528414 2.571790 2.139449 0
M  V30 39 H 1.477782 -0.630760 1.828608 0
M  V30 40 H 2.866818 -4.618843 2.482998 0
M  V30 41 H 0.615252 -5.435765 2.239041 0
M  V30 END ATOM
M  V30 BEGIN BOND
M  V30 1 1 1 2
M  V30 2 1 2 3
M  V30 3 2 3 4
M  V30 4 1 4 5
M  V30 5 2 5 6
M  V30 6 1 6 7
M  V30 7 2 7 8
M  V30 8 1 8 9
M  V30 9 1 9 10
M  V30 10 2 10 11
M  V30 11 1 11 12
M  V30 12 1 12 13
M  V30 13 2 12 14
M  V30 14 1 14 15
M  V30 15 2 15 16
M  V30 16 1 6 17
M  V30 17 2 17 18
M  V30 18 1 17 19
M  V30 19 1 19 20
M  V30 20 2 20 21
M  V30 21 1 4 22
M  V30 22 2 22 23
M  V30 23 1 23 24
M  V30 24 1 24 25
M  V30 25 2 24 26
M  V30 26 1 26 27
M  V30 27 2 27 28
M  V30 28 1 28 2
M  V30 29 1 20 5
M  V30 30 1 28 22
M  V30 31 1 16 7
M  V30 32 1 16 10
M  V30 33 1 1 29
M  V30 34 1 1 30
M  V30 35 1 1 31
M  V30 36 1 3 32
M  V30 37 1 8 33
M  V30 38 1 11 34
M  V30 39 1 13 35
M  V30 40 1 14 36
M  V30 41 1 15 37
M  V30 42 1 19 38
M  V30 43 1 23 39
M  V30 44 1 26 40
M  V30 45 1 27 41
M  V30 END BOND
M  V30 END CTAB
M  END
>  <Dataset>  (907) 
ChEMBL_Kinases

>  <Ligand_Instance>  (907) 
nan

>  <PDB_ID>  (907) 
nan

>  <Standardized_SMILES>  (907) 
Cn1cc(C2=C(c3coc4cc(O)ccc34)C(=O)NC2=O)c2cc(F)ccc21

>  <Name>  (907) 
nan

>  <Pocket>  (907) 
nan

>  <ATP_Site>  (907) 
nan

>  <Peripheral>  (907) 
nan

>  <Num_H_Atoms_ProtBoundConf>  (907) 
nan

>  <Num_Resolved_Atoms>  (907) 
nan

>  <Num_Not_Resolved_Atoms>  (907) 
nan

$$$$
CHEMBL606466
     RDKit          3D

  0  0  0  0  0  0  0  0  0  0999 V3000
M  V30 BEGIN CTAB
M  V30 COUNTS 72 77 0 0 0
M  V30 BEGIN ATOM
M  V30 1 C -2.651009 -3.935723 2.164006 0
M  V30 2 O -1.615794 -4.291839 1.279207 0
M  V30 3 C -0.293567 -3.969949 1.491516 0
M  V30 4 C -0.102732 -3.265197 2.665966 0
M  V30 5 C 1.225617 -2.908132 2.937178 0
M  V30 6 C 1.562963 -2.187740 4.062079 0
M  V30 7 N 0.459154 -1.835413 4.916422 0
M  V30 8 C -0.257009 -0.710131 4.363607 0
M  V30 9 C 0.055448 -0.144347 3.142390 0
M  V30 10 C -0.580064 0.915102 2.538071 0
M  V30 11 C -1.627232 1.474881 3.200333 0
M  V30 12 C -2.304639 2.586387 2.541420 0
M  V30 13 N -2.160811 3.094672 1.478074 0
M  V30 14 C -2.839958 4.097476 0.968857 0
M  V30 15 C -2.647111 4.676780 -0.299191 0
M  V30 16 C -3.468505 5.718675 -0.638670 0
M  V30 17 C -4.473197 6.277194 0.115424 0
M  V30 18 C -4.668315 5.712560 1.361874 0
M  V30 19 C -3.845441 4.645236 1.740275 0
M  V30 20 S -3.733032 3.623949 3.213743 0
M  V30 21 C -2.004619 0.973717 4.423701 0
M  V30 22 O -3.082388 1.557227 5.098423 0
M  V30 23 C -1.341888 -0.091929 4.998910 0
M  V30 24 N 2.846086 -1.821763 4.327898 0
M  V30 25 C 3.820106 -2.174322 3.463898 0
M  V30 26 N 3.544597 -2.876384 2.350339 0
M  V30 27 C 2.253217 -3.239856 2.089079 0
M  V30 28 C 1.977639 -3.942996 0.938009 0
M  V30 29 C 0.698399 -4.329026 0.604060 0
M  V30 30 O 0.263801 -5.016166 -0.484128 0
M  V30 31 C 0.937086 -5.507775 -1.582930 0
M  V30 32 C 1.590040 -4.422541 -2.432895 0
M  V30 33 C 0.564854 -3.458052 -2.954623 0
M  V30 34 N 1.183619 -2.437552 -3.741323 0
M  V30 35 C 0.159611 -1.622465 -4.417446 0
M  V30 36 C 0.846012 -0.380369 -4.943959 0
M  V30 37 N 1.050988 0.506073 -3.807276 0
M  V30 38 C 1.922820 1.590611 -4.114338 0
M  V30 39 C 1.398137 -0.283803 -2.667651 0
M  V30 40 C 2.113285 -1.587050 -3.046545 0
M  V30 41 H -2.687081 -4.573377 3.051890 0
M  V30 42 H -3.604965 -4.101237 1.610013 0
M  V30 43 H -2.646786 -2.837810 2.385748 0
M  V30 44 H -0.861459 -2.972489 3.374870 0
M  V30 45 H 0.052323 -2.184978 5.826603 0
M  V30 46 H 0.892359 -0.536119 2.547649 0
M  V30 47 H -0.280803 1.304042 1.579603 0
M  V30 48 H -1.881237 4.323172 -1.003302 0
M  V30 49 H -3.292558 6.144666 -1.640251 0
M  V30 50 H -5.107252 7.096163 -0.175111 0
M  V30 51 H -5.409100 6.018158 2.090265 0
M  V30 52 H -4.020437 1.227453 4.884461 0
M  V30 53 H -1.645697 -0.473575 5.954335 0
M  V30 54 H 4.771093 -1.821129 3.798207 0
M  V30 55 H 2.780144 -4.206657 0.292101 0
M  V30 56 H 0.347357 -6.201248 -2.208521 0
M  V30 57 H 1.794612 -6.120827 -1.193252 0
M  V30 58 H 2.035211 -4.905987 -3.362884 0
M  V30 59 H 2.402635 -3.902761 -1.967779 0
M  V30 60 H -0.187371 -4.014993 -3.556665 0
M  V30 61 H 0.056709 -3.002740 -2.049980 0
M  V30 62 H -0.668641 -1.363323 -3.751611 0
M  V30 63 H -0.133633 -2.229926 -5.310654 0
M  V30 64 H 1.835699 -0.619090 -5.362674 0
M  V30 65 H 0.206319 0.119638 -5.708201 0
M  V30 66 H 2.976930 1.249050 -4.084856 0
M  V30 67 H 1.759954 2.479857 -3.449172 0
M  V30 68 H 1.733862 1.888481 -5.180853 0
M  V30 69 H 0.455633 -0.625196 -2.176670 0
M  V30 70 H 2.002798 0.313248 -1.961051 0
M  V30 71 H 3.027411 -1.370339 -3.637572 0
M  V30 72 H 2.402075 -2.028282 -2.087835 0
M  V30 END ATOM
M  V30 BEGIN BOND
M  V30 1 1 1 2
M  V30 2 1 2 3
M  V30 3 2 3 4
M  V30 4 1 4 5
M  V30 5 2 5 6
M  V30 6 1 6 7
M  V30 7 1 7 8
M  V30 8 2 8 9
M  V30 9 1 9 10
M  V30 10 2 10 11
M  V30 11 1 11 12
M  V30 12 2 12 13
M  V30 13 1 13 14
M  V30 14 2 14 15
M  V30 15 1 15 16
M  V30 16 2 16 17
M  V30 17 1 17 18
M  V30 18 2 18 19
M  V30 19 1 19 20
M  V30 20 1 11 21
M  V30 21 1 21 22
M  V30 22 2 21 23
M  V30 23 1 6 24
M  V30 24 2 24 25
M  V30 25 1 25 26
M  V30 26 2 26 27
M  V30 27 1 27 28
M  V30 28 2 28 29
M  V30 29 1 29 30
M  V30 30 1 30 31
M  V30 31 1 31 32
M  V30 32 1 32 33
M  V30 33 1 33 34
M  V30 34 1 34 35
M  V30 35 1 35 36
M  V30 36 1 36 37
M  V30 37 1 37 38
M  V30 38 1 37 39
M  V30 39 1 39 40
M  V30 40 1 29 3
M  V30 41 1 40 34
M  V30 42 1 27 5
M  V30 43 1 23 8
M  V30 44 1 20 12
M  V30 45 1 19 14
M  V30 46 1 1 41
M  V30 47 1 1 42
M  V30 48 1 1 43
M  V30 49 1 4 44
M  V30 50 1 7 45
M  V30 51 1 9 46
M  V30 52 1 10 47
M  V30 53 1 15 48
M  V30 54 1 16 49
M  V30 55 1 17 50
M  V30 56 1 18 51
M  V30 57 1 22 52
M  V30 58 1 23 53
M  V30 59 1 25 54
M  V30 60 1 28 55
M  V30 61 1 31 56
M  V30 62 1 31 57
M  V30 63 1 32 58
M  V30 64 1 32 59
M  V30 65 1 33 60
M  V30 66 1 33 61
M  V30 67 1 35 62
M  V30 68 1 35 63
M  V30 69 1 36 64
M  V30 70 1 36 65
M  V30 71 1 38 66
M  V30 72 1 38 67
M  V30 73 1 38 68
M  V30 74 1 39 69
M  V30 75 1 39 70
M  V30 76 1 40 71
M  V30 77 1 40 72
M  V30 END BOND
M  V30 END CTAB
M  END
>  <Dataset>  (908) 
ChEMBL_Kinases

>  <Ligand_Instance>  (908) 
nan

>  <PDB_ID>  (908) 
nan

>  <Standardized_SMILES>  (908) 
COc1cc2c(Nc3ccc(-c4nc5ccccc5s4)c(O)c3)ncnc2cc1OCCCN1CCN(C)CC1

>  <Name>  (908) 
nan

>  <Pocket>  (908) 
nan

>  <ATP_Site>  (908) 
nan

>  <Peripheral>  (908) 
nan

>  <Num_H_Atoms_ProtBoundConf>  (908) 
nan

>  <Num_Resolved_Atoms>  (908) 
nan

>  <Num_Not_Resolved_Atoms>  (908) 
nan

$$$$
CHEMBL605360
     RDKit          3D

  0  0  0  0  0  0  0  0  0  0999 V3000
M  V30 BEGIN CTAB
M  V30 COUNTS 55 57 0 0 0
M  V30 BEGIN ATOM
M  V30 1 C -1.804278 -3.074804 3.017180 0
M  V30 2 O -0.992607 -3.415820 1.899613 0
M  V30 3 C 0.320950 -2.880989 1.795455 0
M  V30 4 C 0.717316 -2.135984 2.835608 0
M  V30 5 C 1.981699 -1.714104 2.531080 0
M  V30 6 C 2.823399 -1.893061 1.467790 0
M  V30 7 C 4.076177 -1.060472 1.436069 0
M  V30 8 O 5.235247 -0.928202 1.309586 0
M  V30 9 N 3.658027 0.370412 1.687093 0
M  V30 10 C 3.292802 1.785215 1.928460 0
M  V30 11 C 2.779375 2.547103 0.812356 0
M  V30 12 C 3.077675 3.573295 -0.084876 0
M  V30 13 C 2.223869 3.929922 -1.079745 0
M  V30 14 C 1.006239 3.342572 -1.320293 0
M  V30 15 C 0.682214 2.319247 -0.457050 0
M  V30 16 C -0.561998 1.590555 -0.796946 0
M  V30 17 O -0.913967 0.706073 0.125131 0
M  V30 18 N -1.587503 1.411186 -1.729875 0
M  V30 19 C -2.365530 0.384655 -1.103741 0
M  V30 20 C -3.556012 0.905441 -0.533347 0
M  V30 21 C -4.212739 -0.168355 0.036297 0
M  V30 22 C -3.940361 -1.450303 0.118115 0
M  V30 23 C -4.706741 -2.506439 0.797280 0
M  V30 24 O -5.692015 -3.025068 0.008215 0
M  V30 25 C -2.761529 -1.856932 -0.476019 0
M  V30 26 C -1.965669 -0.926241 -1.096786 0
M  V30 27 C 1.519597 1.947196 0.553951 0
M  V30 28 C 2.219360 -2.672521 0.549700 0
M  V30 29 C 0.956632 -3.251212 0.566699 0
M  V30 30 O 0.393017 -4.026739 -0.394084 0
M  V30 31 C 1.136578 -4.259488 -1.586788 0
M  V30 32 H -2.129351 -1.994296 2.947098 0
M  V30 33 H -1.181512 -3.137062 3.946285 0
M  V30 34 H -2.656812 -3.729702 3.175635 0
M  V30 35 H 0.247627 -1.857816 3.734110 0
M  V30 36 H 2.420388 -1.070131 3.351107 0
M  V30 37 H 2.589431 0.339754 1.686463 0
M  V30 38 H 4.271273 2.261041 2.299523 0
M  V30 39 H 2.678905 1.851562 2.811585 0
M  V30 40 H 4.032095 3.928862 0.237611 0
M  V30 41 H 2.607149 4.748680 -1.673707 0
M  V30 42 H 0.373096 3.645277 -2.111984 0
M  V30 43 H -1.232890 2.146722 -2.384202 0
M  V30 44 H -3.874914 1.942472 -0.555850 0
M  V30 45 H -5.177853 0.103696 0.514768 0
M  V30 46 H -5.184152 -2.045599 1.711395 0
M  V30 47 H -4.022206 -3.333381 1.132129 0
M  V30 48 H -5.375881 -3.821627 -0.538525 0
M  V30 49 H -2.352926 -2.847532 -0.544349 0
M  V30 50 H -1.009298 -1.063928 -1.622897 0
M  V30 51 H 1.024790 1.159556 1.121984 0
M  V30 52 H 2.849729 -2.881963 -0.329718 0
M  V30 53 H 0.471364 -4.624995 -2.373515 0
M  V30 54 H 1.943291 -4.976978 -1.384430 0
M  V30 55 H 1.594517 -3.249685 -1.859394 0
M  V30 END ATOM
M  V30 BEGIN BOND
M  V30 1 1 1 2
M  V30 2 1 2 3
M  V30 3 2 3 4
M  V30 4 1 4 5
M  V30 5 2 5 6
M  V30 6 1 6 7
M  V30 7 2 7 8
M  V30 8 1 7 9
M  V30 9 1 9 10
M  V30 10 1 10 11
M  V30 11 2 11 12
M  V30 12 1 12 13
M  V30 13 2 13 14
M  V30 14 1 14 15
M  V30 15 1 15 16
M  V30 16 2 16 17
M  V30 17 1 16 18
M  V30 18 1 18 19
M  V30 19 2 19 20
M  V30 20 1 20 21
M  V30 21 2 21 22
M  V30 22 1 22 23
M  V30 23 1 23 24
M  V30 24 1 22 25
M  V30 25 2 25 26
M  V30 26 2 15 27
M  V30 27 1 6 28
M  V30 28 2 28 29
M  V30 29 1 29 30
M  V30 30 1 30 31
M  V30 31 1 29 3
M  V30 32 1 27 11
M  V30 33 1 26 19
M  V30 34 1 1 32
M  V30 35 1 1 33
M  V30 36 1 1 34
M  V30 37 1 4 35
M  V30 38 1 5 36
M  V30 39 1 9 37
M  V30 40 1 10 38
M  V30 41 1 10 39
M  V30 42 1 12 40
M  V30 43 1 13 41
M  V30 44 1 14 42
M  V30 45 1 18 43
M  V30 46 1 20 44
M  V30 47 1 21 45
M  V30 48 1 23 46
M  V30 49 1 23 47
M  V30 50 1 24 48
M  V30 51 1 25 49
M  V30 52 1 26 50
M  V30 53 1 27 51
M  V30 54 1 28 52
M  V30 55 1 31 53
M  V30 56 1 31 54
M  V30 57 1 31 55
M  V30 END BOND
M  V30 END CTAB
M  END
>  <Dataset>  (909) 
ChEMBL_Kinases

>  <Ligand_Instance>  (909) 
nan

>  <PDB_ID>  (909) 
nan

>  <Standardized_SMILES>  (909) 
COc1ccc(C(=O)NCc2cccc(C(=O)Nc3ccc(CO)cc3)c2)cc1OC

>  <Name>  (909) 
nan

>  <Pocket>  (909) 
nan

>  <ATP_Site>  (909) 
nan

>  <Peripheral>  (909) 
nan

>  <Num_H_Atoms_ProtBoundConf>  (909) 
nan

>  <Num_Resolved_Atoms>  (909) 
nan

>  <Num_Not_Resolved_Atoms>  (909) 
nan

$$$$
CHEMBL487757
     RDKit          3D

  0  0  0  0  0  0  0  0  0  0999 V3000
M  V30 BEGIN CTAB
M  V30 COUNTS 52 57 0 0 0
M  V30 BEGIN ATOM
M  V30 1 O 3.496939 0.687198 4.160620 0
M  V30 2 C 2.445521 0.010735 4.081930 0
M  V30 3 N 1.594881 -0.463418 5.122693 0
M  V30 4 C 0.525396 -1.184751 4.540694 0
M  V30 5 O -0.299056 -1.658859 5.329406 0
M  V30 6 C 0.648749 -1.200764 3.109745 0
M  V30 7 C 1.793917 -0.486601 2.853745 0
M  V30 8 C 2.229329 -0.294723 1.552400 0
M  V30 9 C 3.439924 0.457485 1.240266 0
M  V30 10 C 4.728485 -0.055958 1.125056 0
M  V30 11 C 5.763334 0.804649 0.822269 0
M  V30 12 C 5.543514 2.153590 0.633579 0
M  V30 13 C 4.269741 2.660888 0.747508 0
M  V30 14 C 3.216607 1.807708 1.051907 0
M  V30 15 Cl 1.641186 2.567648 1.170938 0
M  V30 16 C 1.487056 -0.836670 0.523659 0
M  V30 17 C 0.316693 -1.567745 0.767236 0
M  V30 18 C -0.066932 -1.725821 2.079893 0
M  V30 19 C -1.214711 -2.457953 2.093321 0
M  V30 20 C -2.110535 -2.975229 2.976801 0
M  V30 21 C -3.225884 -3.712430 2.655504 0
M  V30 22 O -4.116572 -4.223245 3.587057 0
M  V30 23 C -3.487666 -3.969008 1.305741 0
M  V30 24 C -2.590411 -3.454053 0.371422 0
M  V30 25 C -1.487121 -2.719414 0.769913 0
M  V30 26 N -0.572846 -2.190525 -0.063955 0
M  V30 27 C -0.397387 -2.162664 -1.475247 0
M  V30 28 C -0.987686 -1.020759 -2.208329 0
M  V30 29 S -2.717754 -0.803880 -2.082687 0
M  V30 30 O -3.171818 -0.463485 -0.683753 0
M  V30 31 O -3.506223 -1.942616 -2.661711 0
M  V30 32 N -3.111081 0.601255 -3.053223 0
M  V30 33 C -3.661737 1.777659 -2.688985 0
M  V30 34 C -3.757543 2.538463 -3.837264 0
M  V30 35 N -3.276265 1.832111 -4.856796 0
M  V30 36 N -2.895390 0.680494 -4.372484 0
M  V30 37 H 1.847675 -0.236187 6.116979 0
M  V30 38 H 4.811339 -1.131276 1.289818 0
M  V30 39 H 6.730861 0.313808 0.753155 0
M  V30 40 H 6.442377 2.743981 0.396532 0
M  V30 41 H 4.197726 3.731768 0.581805 0
M  V30 42 H 1.836434 -0.680973 -0.494543 0
M  V30 43 H -2.000686 -2.836274 4.021810 0
M  V30 44 H -4.291800 -3.643351 4.398069 0
M  V30 45 H -4.348029 -4.540887 1.010031 0
M  V30 46 H -2.834019 -3.677291 -0.640500 0
M  V30 47 H 0.682409 -2.218741 -1.780912 0
M  V30 48 H -0.834432 -3.124948 -1.873125 0
M  V30 49 H -0.521363 -0.065600 -1.822567 0
M  V30 50 H -0.726817 -1.023076 -3.285792 0
M  V30 51 H -3.924114 1.943182 -1.654845 0
M  V30 52 H -4.189873 3.540011 -3.721097 0
M  V30 END ATOM
M  V30 BEGIN BOND
M  V30 1 2 1 2
M  V30 2 1 2 3
M  V30 3 1 3 4
M  V30 4 2 4 5
M  V30 5 1 4 6
M  V30 6 2 6 7
M  V30 7 1 7 8
M  V30 8 1 8 9
M  V30 9 2 9 10
M  V30 10 1 10 11
M  V30 11 2 11 12
M  V30 12 1 12 13
M  V30 13 2 13 14
M  V30 14 1 14 15
M  V30 15 2 8 16
M  V30 16 1 16 17
M  V30 17 2 17 18
M  V30 18 1 18 19
M  V30 19 2 19 20
M  V30 20 1 20 21
M  V30 21 1 21 22
M  V30 22 2 21 23
M  V30 23 1 23 24
M  V30 24 2 24 25
M  V30 25 1 25 26
M  V30 26 1 26 27
M  V30 27 1 27 28
M  V30 28 1 28 29
M  V30 29 2 29 30
M  V30 30 2 29 31
M  V30 31 1 29 32
M  V30 32 1 32 33
M  V30 33 2 33 34
M  V30 34 1 34 35
M  V30 35 2 35 36
M  V30 36 1 7 2
M  V30 37 1 14 9
M  V30 38 1 26 17
M  V30 39 1 36 32
M  V30 40 1 18 6
M  V30 41 1 25 19
M  V30 42 1 3 37
M  V30 43 1 10 38
M  V30 44 1 11 39
M  V30 45 1 12 40
M  V30 46 1 13 41
M  V30 47 1 16 42
M  V30 48 1 20 43
M  V30 49 1 22 44
M  V30 50 1 23 45
M  V30 51 1 24 46
M  V30 52 1 27 47
M  V30 53 1 27 48
M  V30 54 1 28 49
M  V30 55 1 28 50
M  V30 56 1 33 51
M  V30 57 1 34 52
M  V30 END BOND
M  V30 END CTAB
M  END
>  <Dataset>  (910) 
ChEMBL_Kinases

>  <Ligand_Instance>  (910) 
nan

>  <PDB_ID>  (910) 
nan

>  <Standardized_SMILES>  (910) 
O=C1NC(=O)c2c1c(-c1ccccc1Cl)cc1c2c2cc(O)ccc2n1CCS(=O)(=O)n1ccnn1

>  <Name>  (910) 
nan

>  <Pocket>  (910) 
nan

>  <ATP_Site>  (910) 
nan

>  <Peripheral>  (910) 
nan

>  <Num_H_Atoms_ProtBoundConf>  (910) 
nan

>  <Num_Resolved_Atoms>  (910) 
nan

>  <Num_Not_Resolved_Atoms>  (910) 
nan

$$$$
CHEMBL3912476
     RDKit          3D

  0  0  0  0  0  0  0  0  0  0999 V3000
M  V30 BEGIN CTAB
M  V30 COUNTS 67 73 0 0 0
M  V30 BEGIN ATOM
M  V30 1 C -2.074599 2.297138 2.846307 0
M  V30 2 C -1.256071 1.033090 3.155307 0 CFG=2
M  V30 3 C -1.442753 0.679556 4.571730 0
M  V30 4 N -0.802362 -0.444876 5.111002 0
M  V30 5 C 0.584286 -0.470898 5.297603 0
M  V30 6 C 1.341303 -1.400187 4.387084 0
M  V30 7 O 0.673361 -2.606373 4.194579 0
M  V30 8 C -0.607826 -2.404146 3.704185 0
M  V30 9 C -1.401089 -1.712918 4.787094 0
M  V30 10 N 0.078149 1.336683 2.717165 0
M  V30 11 C 0.155707 1.557334 1.291265 0
M  V30 12 C 1.341733 1.883401 0.649666 0
M  V30 13 C 1.475494 2.092420 -0.704134 0
M  V30 14 C 0.360670 1.973167 -1.493956 0
M  V30 15 C 0.359930 2.148748 -2.859800 0
M  V30 16 C -0.841775 1.993214 -3.567175 0
M  V30 17 N -0.685535 2.209074 -4.959449 0
M  V30 18 C -0.853330 3.444684 -5.446027 0
M  V30 19 N -0.658570 3.426623 -6.774691 0
M  V30 20 C -0.359754 2.167971 -7.165570 0
M  V30 21 C -0.067394 1.554930 -8.373059 0
M  V30 22 N 0.192542 0.221079 -8.394889 0
M  V30 23 C 0.168614 -0.511335 -7.253561 0
M  V30 24 C 0.432392 -1.864559 -7.278509 0
M  V30 25 N 0.414493 -2.615986 -6.157237 0
M  V30 26 C 0.130373 -2.050745 -4.945552 0
M  V30 27 C 0.135212 -2.934564 -3.792163 0
M  V30 28 C 0.414646 -4.253987 -3.972138 0
M  V30 29 C 0.446100 -5.173617 -2.934726 0
M  V30 30 N 0.184290 -4.723246 -1.688305 0
M  V30 31 C -0.099463 -3.420697 -1.454241 0
M  V30 32 C -0.124004 -2.528929 -2.503105 0
M  V30 33 C -0.129593 -0.698182 -4.944844 0
M  V30 34 C -0.122995 0.105206 -6.056472 0
M  V30 35 C -0.388647 1.439675 -5.994712 0
M  V30 36 C -2.042028 1.664620 -2.920696 0
M  V30 37 C -2.022670 1.492846 -1.552782 0
M  V30 38 C -0.829338 1.650347 -0.879634 0
M  V30 39 N -0.883978 1.461471 0.443961 0
M  V30 40 H -3.028494 2.034890 2.389009 0
M  V30 41 H -1.495276 3.032393 2.255165 0
M  V30 42 H -2.314749 2.798729 3.828630 0
M  V30 43 H -1.664729 0.258132 2.465017 0
M  V30 44 H -2.556082 0.527339 4.722394 0
M  V30 45 H -1.223152 1.560886 5.236082 0
M  V30 46 H 1.087406 0.502560 5.300287 0
M  V30 47 H 0.763755 -0.862690 6.350610 0
M  V30 48 H 1.557301 -0.934353 3.408088 0
M  V30 49 H 2.329987 -1.644239 4.827496 0
M  V30 50 H -1.040051 -3.398905 3.446729 0
M  V30 51 H -0.573962 -1.838179 2.754159 0
M  V30 52 H -1.331937 -2.356655 5.690964 0
M  V30 53 H -2.463780 -1.553467 4.526725 0
M  V30 54 H 1.004330 1.439954 3.172219 0
M  V30 55 H 2.242116 1.983931 1.257787 0
M  V30 56 H 2.423572 2.345376 -1.156189 0
M  V30 57 H 1.295853 2.398924 -3.310860 0
M  V30 58 H -1.106399 4.383248 -4.939969 0
M  V30 59 H -0.050942 2.137417 -9.267546 0
M  V30 60 H 0.666297 -2.381343 -8.205346 0
M  V30 61 H 0.638141 -4.706468 -4.944910 0
M  V30 62 H 0.670042 -6.225438 -3.086536 0
M  V30 63 H -0.301045 -3.120599 -0.426590 0
M  V30 64 H -0.348639 -1.513316 -2.295477 0
M  V30 65 H -0.340752 -0.361894 -3.955218 0
M  V30 66 H -2.908544 1.569410 -3.556291 0
M  V30 67 H -2.958912 1.239849 -1.073246 0
M  V30 END ATOM
M  V30 BEGIN BOND
M  V30 1 1 1 2
M  V30 2 1 2 3
M  V30 3 1 3 4
M  V30 4 1 4 5
M  V30 5 1 5 6
M  V30 6 1 6 7
M  V30 7 1 7 8
M  V30 8 1 8 9
M  V30 9 1 2 10
M  V30 10 1 10 11
M  V30 11 2 11 12
M  V30 12 1 12 13
M  V30 13 2 13 14
M  V30 14 1 14 15
M  V30 15 2 15 16
M  V30 16 1 16 17
M  V30 17 1 17 18
M  V30 18 2 18 19
M  V30 19 1 19 20
M  V30 20 2 20 21
M  V30 21 1 21 22
M  V30 22 2 22 23
M  V30 23 1 23 24
M  V30 24 2 24 25
M  V30 25 1 25 26
M  V30 26 1 26 27
M  V30 27 2 27 28
M  V30 28 1 28 29
M  V30 29 2 29 30
M  V30 30 1 30 31
M  V30 31 2 31 32
M  V30 32 2 26 33
M  V30 33 1 33 34
M  V30 34 2 34 35
M  V30 35 1 16 36
M  V30 36 2 36 37
M  V30 37 1 37 38
M  V30 38 2 38 39
M  V30 39 1 9 4
M  V30 40 1 39 11
M  V30 41 1 38 14
M  V30 42 1 35 17
M  V30 43 1 35 20
M  V30 44 1 34 23
M  V30 45 1 32 27
M  V30 46 1 1 40
M  V30 47 1 1 41
M  V30 48 1 1 42
M  V30 49 1 2 43 CFG=3
M  V30 50 1 3 44
M  V30 51 1 3 45
M  V30 52 1 5 46
M  V30 53 1 5 47
M  V30 54 1 6 48
M  V30 55 1 6 49
M  V30 56 1 8 50
M  V30 57 1 8 51
M  V30 58 1 9 52
M  V30 59 1 9 53
M  V30 60 1 10 54
M  V30 61 1 12 55
M  V30 62 1 13 56
M  V30 63 1 15 57
M  V30 64 1 18 58
M  V30 65 1 21 59
M  V30 66 1 24 60
M  V30 67 1 28 61
M  V30 68 1 29 62
M  V30 69 1 31 63
M  V30 70 1 32 64
M  V30 71 1 33 65
M  V30 72 1 36 66
M  V30 73 1 37 67
M  V30 END BOND
M  V30 END CTAB
M  END
>  <Dataset>  (911) 
ChEMBL_Kinases

>  <Ligand_Instance>  (911) 
nan

>  <PDB_ID>  (911) 
nan

>  <Standardized_SMILES>  (911) 
C[C@H](CN1CCOCC1)Nc1ccc2cc(-n3cnc4cnc5cnc(-c6ccncc6)cc5c43)ccc2n1

>  <Name>  (911) 
nan

>  <Pocket>  (911) 
nan

>  <ATP_Site>  (911) 
nan

>  <Peripheral>  (911) 
nan

>  <Num_H_Atoms_ProtBoundConf>  (911) 
nan

>  <Num_Resolved_Atoms>  (911) 
nan

>  <Num_Not_Resolved_Atoms>  (911) 
nan

$$$$
CHEMBL606376
     RDKit          3D

  0  0  0  0  0  0  0  0  0  0999 V3000
M  V30 BEGIN CTAB
M  V30 COUNTS 44 47 0 0 0
M  V30 BEGIN ATOM
M  V30 1 C 2.563866 -5.183346 1.388882 0
M  V30 2 O 2.223284 -4.916713 0.035393 0
M  V30 3 C 1.327729 -3.925653 -0.346512 0
M  V30 4 C 1.043264 -3.722805 -1.698748 0
M  V30 5 C 0.146286 -2.729284 -2.072332 0
M  V30 6 C -0.490444 -1.916058 -1.151232 0
M  V30 7 C -0.211182 -2.115126 0.176465 0
M  V30 8 C -0.806859 -1.334097 1.256530 0
M  V30 9 C -0.647798 0.022358 1.446598 0
M  V30 10 C 0.118653 0.984984 0.660049 0
M  V30 11 C -0.658707 1.992642 0.100538 0
M  V30 12 C -0.074032 2.992735 -0.680176 0
M  V30 13 C 1.302667 2.977468 -0.898574 0
M  V30 14 N 1.920885 3.919508 -1.645140 0
M  V30 15 C 3.251740 3.883369 -1.841706 0
M  V30 16 C 4.013236 2.858984 -1.268138 0
M  V30 17 N 3.390817 1.924468 -0.525992 0
M  V30 18 C 2.059469 1.968086 -0.334480 0
M  V30 19 C 1.491134 0.976146 0.437924 0
M  V30 20 N -1.360631 0.355537 2.555026 0
M  V30 21 C -1.491851 1.693970 3.149894 0
M  V30 22 N -1.951430 -0.737008 3.055140 0
M  V30 23 C -2.805396 -0.766707 4.252050 0
M  V30 24 C -1.621709 -1.796712 2.265635 0
M  V30 25 O -2.014150 -2.970347 2.461084 0
M  V30 26 C 0.680628 -3.102134 0.556764 0
M  V30 27 H 2.880433 -6.250306 1.477760 0
M  V30 28 H 3.376475 -4.557726 1.775447 0
M  V30 29 H 1.709190 -5.082088 2.081946 0
M  V30 30 H 1.511017 -4.328779 -2.465323 0
M  V30 31 H -0.103403 -2.537958 -3.117112 0
M  V30 32 H -1.189754 -1.140832 -1.436463 0
M  V30 33 H -1.730890 2.072791 0.223702 0
M  V30 34 H -0.668799 3.781982 -1.120786 0
M  V30 35 H 3.709874 4.666224 -2.452715 0
M  V30 36 H 5.101505 2.835714 -1.433421 0
M  V30 37 H 2.017399 0.156743 0.910572 0
M  V30 38 H -2.393542 2.196318 2.738331 0
M  V30 39 H -1.460791 1.633196 4.243208 0
M  V30 40 H -0.630046 2.297067 2.774289 0
M  V30 41 H -2.858485 -1.843568 4.584962 0
M  V30 42 H -2.356693 -0.212965 5.094219 0
M  V30 43 H -3.823888 -0.422502 4.062213 0
M  V30 44 H 0.908813 -3.268394 1.601816 0
M  V30 END ATOM
M  V30 BEGIN BOND
M  V30 1 1 1 2
M  V30 2 1 2 3
M  V30 3 2 3 4
M  V30 4 1 4 5
M  V30 5 2 5 6
M  V30 6 1 6 7
M  V30 7 1 7 8
M  V30 8 2 8 9
M  V30 9 1 9 10
M  V30 10 2 10 11
M  V30 11 1 11 12
M  V30 12 2 12 13
M  V30 13 1 13 14
M  V30 14 2 14 15
M  V30 15 1 15 16
M  V30 16 2 16 17
M  V30 17 1 17 18
M  V30 18 2 18 19
M  V30 19 1 9 20
M  V30 20 1 20 21
M  V30 21 1 20 22
M  V30 22 1 22 23
M  V30 23 1 22 24
M  V30 24 2 24 25
M  V30 25 2 7 26
M  V30 26 1 26 3
M  V30 27 1 24 8
M  V30 28 1 19 10
M  V30 29 1 18 13
M  V30 30 1 1 27
M  V30 31 1 1 28
M  V30 32 1 1 29
M  V30 33 1 4 30
M  V30 34 1 5 31
M  V30 35 1 6 32
M  V30 36 1 11 33
M  V30 37 1 12 34
M  V30 38 1 15 35
M  V30 39 1 16 36
M  V30 40 1 19 37
M  V30 41 1 21 38
M  V30 42 1 21 39
M  V30 43 1 21 40
M  V30 44 1 23 41
M  V30 45 1 23 42
M  V30 46 1 23 43
M  V30 47 1 26 44
M  V30 END BOND
M  V30 END CTAB
M  END
>  <Dataset>  (912) 
ChEMBL_Kinases

>  <Ligand_Instance>  (912) 
nan

>  <PDB_ID>  (912) 
nan

>  <Standardized_SMILES>  (912) 
COc1cccc(-c2c(-c3ccc4nccnc4c3)n(C)n(C)c2=O)c1

>  <Name>  (912) 
nan

>  <Pocket>  (912) 
nan

>  <ATP_Site>  (912) 
nan

>  <Peripheral>  (912) 
nan

>  <Num_H_Atoms_ProtBoundConf>  (912) 
nan

>  <Num_Resolved_Atoms>  (912) 
nan

>  <Num_Not_Resolved_Atoms>  (912) 
nan

$$$$
CHEMBL605404
     RDKit          3D

  0  0  0  0  0  0  0  0  0  0999 V3000
M  V30 BEGIN CTAB
M  V30 COUNTS 66 71 0 0 0
M  V30 BEGIN ATOM
M  V30 1 C 3.453360 -4.003728 3.406173 0
M  V30 2 C 2.283408 -3.692453 2.518095 0
M  V30 3 C 2.039775 -4.539906 1.484560 0
M  V30 4 C 0.999325 -4.349391 0.614024 0
M  V30 5 C 0.188403 -3.247826 0.821663 0
M  V30 6 N -0.896917 -3.008115 -0.050738 0
M  V30 7 C -0.490264 -2.211901 -1.122532 0
M  V30 8 O 0.732524 -2.026673 -0.824008 0
M  V30 9 C -1.044184 -1.630655 -2.303441 0
M  V30 10 N -0.382599 -0.490282 -2.668732 0
M  V30 11 C -0.943160 0.046750 -3.765061 0
M  V30 12 C -0.552348 1.262948 -4.483145 0
M  V30 13 C -1.284129 1.627811 -5.593481 0
M  V30 14 C -0.872486 2.782585 -6.234421 0
M  V30 15 C 0.208556 3.545163 -5.805310 0
M  V30 16 C 0.882054 3.107557 -4.688639 0
M  V30 17 C 0.538940 1.984386 -4.004961 0
M  V30 18 N -1.960560 -0.765136 -4.087789 0
M  V30 19 C -2.020622 -1.776009 -3.211066 0
M  V30 20 C -2.974495 -2.846298 -3.204239 0
M  V30 21 C -4.110891 -2.600966 -3.963153 0
M  V30 22 C -5.104619 -3.534203 -4.106536 0
M  V30 23 C -5.050346 -4.771258 -3.515391 0
M  V30 24 C -3.933253 -5.044117 -2.756395 0
M  V30 25 C -2.962769 -4.083468 -2.639283 0
M  V30 26 C 0.460836 -2.417217 1.868313 0
M  V30 27 C 1.496766 -2.582796 2.758282 0
M  V30 28 N 1.805420 -1.756753 3.864783 0
M  V30 29 C 1.190318 -0.616322 4.417249 0
M  V30 30 C -0.157191 -0.346841 4.498952 0
M  V30 31 C -0.739124 0.774335 5.011383 0
M  V30 32 C 0.110824 1.739888 5.499942 0
M  V30 33 N -0.396050 2.867931 6.018375 0
M  V30 34 C 0.363609 3.854487 6.513798 0
M  V30 35 N 1.695824 3.656900 6.466534 0
M  V30 36 C 2.561719 4.713521 6.999068 0
M  V30 37 C 2.296222 2.566805 5.969375 0
M  V30 38 O 3.537847 2.407605 5.937026 0
M  V30 39 C 1.470995 1.582319 5.472544 0
M  V30 40 C 1.961763 0.428712 4.941311 0
M  V30 41 H 4.190384 -3.187940 3.319658 0
M  V30 42 H 3.107461 -3.998754 4.474185 0
M  V30 43 H 3.851268 -4.997530 3.211325 0
M  V30 44 H 2.688355 -5.412152 1.326661 0
M  V30 45 H 0.828762 -5.046258 -0.204808 0
M  V30 46 H -1.938551 -3.243558 -0.111337 0
M  V30 47 H -2.125884 1.074653 -5.965465 0
M  V30 48 H -1.389668 3.144728 -7.116212 0
M  V30 49 H 0.559209 4.439540 -6.268557 0
M  V30 50 H 1.746884 3.658581 -4.291002 0
M  V30 51 H 1.083688 1.648505 -3.118876 0
M  V30 52 H -2.592293 -0.604324 -4.907421 0
M  V30 53 H -4.287872 -1.651243 -4.493339 0
M  V30 54 H -5.975232 -3.319726 -4.698433 0
M  V30 55 H -5.840280 -5.492607 -3.637782 0
M  V30 56 H -3.839691 -5.985584 -2.276492 0
M  V30 57 H -2.102313 -4.346848 -2.078872 0
M  V30 58 H -0.180874 -1.584593 1.977498 0
M  V30 59 H 2.666574 -2.009429 4.427878 0
M  V30 60 H -0.850339 -1.092531 4.137191 0
M  V30 61 H -1.810445 0.910525 5.039014 0
M  V30 62 H -0.096051 4.743453 6.920455 0
M  V30 63 H 3.174843 5.072240 6.134066 0
M  V30 64 H 3.266541 4.237678 7.697024 0
M  V30 65 H 1.969697 5.529578 7.434054 0
M  V30 66 H 3.050130 0.331906 4.933697 0
M  V30 END ATOM
M  V30 BEGIN BOND
M  V30 1 1 1 2
M  V30 2 2 2 3
M  V30 3 1 3 4
M  V30 4 2 4 5
M  V30 5 1 5 6
M  V30 6 1 6 7
M  V30 7 2 7 8
M  V30 8 1 7 9
M  V30 9 1 9 10
M  V30 10 2 10 11
M  V30 11 1 11 12
M  V30 12 2 12 13
M  V30 13 1 13 14
M  V30 14 2 14 15
M  V30 15 1 15 16
M  V30 16 2 16 17
M  V30 17 1 11 18
M  V30 18 1 18 19
M  V30 19 1 19 20
M  V30 20 2 20 21
M  V30 21 1 21 22
M  V30 22 2 22 23
M  V30 23 1 23 24
M  V30 24 2 24 25
M  V30 25 1 5 26
M  V30 26 2 26 27
M  V30 27 1 27 28
M  V30 28 1 28 29
M  V30 29 2 29 30
M  V30 30 1 30 31
M  V30 31 2 31 32
M  V30 32 1 32 33
M  V30 33 2 33 34
M  V30 34 1 34 35
M  V30 35 1 35 36
M  V30 36 1 35 37
M  V30 37 2 37 38
M  V30 38 1 37 39
M  V30 39 2 39 40
M  V30 40 1 27 2
M  V30 41 1 40 29
M  V30 42 2 19 9
M  V30 43 1 25 20
M  V30 44 1 39 32
M  V30 45 1 17 12
M  V30 46 1 1 41
M  V30 47 1 1 42
M  V30 48 1 1 43
M  V30 49 1 3 44
M  V30 50 1 4 45
M  V30 51 1 6 46
M  V30 52 1 13 47
M  V30 53 1 14 48
M  V30 54 1 15 49
M  V30 55 1 16 50
M  V30 56 1 17 51
M  V30 57 1 18 52
M  V30 58 1 21 53
M  V30 59 1 22 54
M  V30 60 1 23 55
M  V30 61 1 24 56
M  V30 62 1 25 57
M  V30 63 1 26 58
M  V30 64 1 28 59
M  V30 65 1 30 60
M  V30 66 1 31 61
M  V30 67 1 34 62
M  V30 68 1 36 63
M  V30 69 1 36 64
M  V30 70 1 36 65
M  V30 71 1 40 66
M  V30 END BOND
M  V30 END CTAB
M  END
>  <Dataset>  (913) 
ChEMBL_Kinases

>  <Ligand_Instance>  (913) 
nan

>  <PDB_ID>  (913) 
nan

>  <Standardized_SMILES>  (913) 
Cc1ccc(NC(=O)c2nc(-c3ccccc3)[nH]c2-c2ccccc2)cc1Nc1ccc2ncn(C)c(=O)c2c1

>  <Name>  (913) 
nan

>  <Pocket>  (913) 
nan

>  <ATP_Site>  (913) 
nan

>  <Peripheral>  (913) 
nan

>  <Num_H_Atoms_ProtBoundConf>  (913) 
nan

>  <Num_Resolved_Atoms>  (913) 
nan

>  <Num_Not_Resolved_Atoms>  (913) 
nan

$$$$
CHEMBL4877689
     RDKit          3D

  0  0  0  0  0  0  0  0  0  0999 V3000
M  V30 BEGIN CTAB
M  V30 COUNTS 31 32 0 0 0
M  V30 BEGIN ATOM
M  V30 1 C -2.046882 -4.549339 0.765916 0
M  V30 2 N -1.590242 -3.505033 1.690948 0
M  V30 3 C -2.524058 -3.104186 2.737232 0
M  V30 4 C -0.359745 -2.787940 1.754713 0
M  V30 5 N 0.734015 -3.175366 2.464910 0
M  V30 6 C 1.853431 -2.412357 2.452211 0
M  V30 7 C 1.931634 -1.235876 1.734979 0
M  V30 8 C 0.810529 -0.865938 1.024359 0
M  V30 9 C 0.745363 0.352857 0.219352 0
M  V30 10 C -0.421204 0.640333 -0.457957 0
M  V30 11 C -0.594324 1.764846 -1.248702 0
M  V30 12 C 0.496325 2.629041 -1.338332 0
M  V30 13 O 0.383512 3.662789 -2.045642 0
M  V30 14 N 1.646847 2.358901 -0.678886 0
M  V30 15 C 2.773122 3.271039 -0.784087 0
M  V30 16 C 1.772625 1.259808 0.075614 0
M  V30 17 N -0.290687 -1.637876 1.050451 0
M  V30 18 H -1.263817 -4.826638 0.051414 0
M  V30 19 H -2.426087 -5.438419 1.333152 0
M  V30 20 H -2.908415 -4.186857 0.166446 0
M  V30 21 H -1.996959 -3.171030 3.733296 0
M  V30 22 H -3.445638 -3.696423 2.757208 0
M  V30 23 H -2.740551 -2.003036 2.611741 0
M  V30 24 H 2.690054 -2.763349 3.030311 0
M  V30 25 H 2.818339 -0.620109 1.717700 0
M  V30 26 H -1.293542 -0.016417 -0.408260 0
M  V30 27 H -1.518571 1.970413 -1.771112 0
M  V30 28 H 3.639460 2.760107 -1.254364 0
M  V30 29 H 2.494583 4.202244 -1.307136 0
M  V30 30 H 3.086838 3.532797 0.247142 0
M  V30 31 H 2.698680 1.066705 0.590847 0
M  V30 END ATOM
M  V30 BEGIN BOND
M  V30 1 1 1 2
M  V30 2 1 2 3
M  V30 3 1 2 4
M  V30 4 2 4 5
M  V30 5 1 5 6
M  V30 6 2 6 7
M  V30 7 1 7 8
M  V30 8 1 8 9
M  V30 9 1 9 10
M  V30 10 2 10 11
M  V30 11 1 11 12
M  V30 12 2 12 13
M  V30 13 1 12 14
M  V30 14 1 14 15
M  V30 15 1 14 16
M  V30 16 2 8 17
M  V30 17 1 17 4
M  V30 18 2 16 9
M  V30 19 1 1 18
M  V30 20 1 1 19
M  V30 21 1 1 20
M  V30 22 1 3 21
M  V30 23 1 3 22
M  V30 24 1 3 23
M  V30 25 1 6 24
M  V30 26 1 7 25
M  V30 27 1 10 26
M  V30 28 1 11 27
M  V30 29 1 15 28
M  V30 30 1 15 29
M  V30 31 1 15 30
M  V30 32 1 16 31
M  V30 END BOND
M  V30 END CTAB
M  END
>  <Dataset>  (914) 
ChEMBL_Kinases

>  <Ligand_Instance>  (914) 
nan

>  <PDB_ID>  (914) 
nan

>  <Standardized_SMILES>  (914) 
CN(C)c1nccc(-c2ccc(=O)n(C)c2)n1

>  <Name>  (914) 
nan

>  <Pocket>  (914) 
nan

>  <ATP_Site>  (914) 
nan

>  <Peripheral>  (914) 
nan

>  <Num_H_Atoms_ProtBoundConf>  (914) 
nan

>  <Num_Resolved_Atoms>  (914) 
nan

>  <Num_Not_Resolved_Atoms>  (914) 
nan

$$$$
CHEMBL388435
     RDKit          3D

  0  0  0  0  0  0  0  0  0  0999 V3000
M  V30 BEGIN CTAB
M  V30 COUNTS 50 53 0 0 0
M  V30 BEGIN ATOM
M  V30 1 C 2.950271 0.270935 7.279491 0
M  V30 2 O 4.291674 0.232689 6.827265 0
M  V30 3 C 4.522877 0.159010 5.461212 0
M  V30 4 O 3.504558 0.131396 4.715407 0
M  V30 5 C 5.327572 0.085412 4.217379 0
M  V30 6 C 4.321794 0.036394 3.097934 0
M  V30 7 C 3.910881 -1.238040 2.763479 0
M  V30 8 C 2.996462 -1.513784 1.767542 0
M  V30 9 C 2.486107 -0.418336 1.088809 0
M  V30 10 C 2.891986 0.879511 1.415148 0
M  V30 11 C 3.809336 1.122773 2.417687 0
M  V30 12 N 2.509498 2.125605 0.862907 0
M  V30 13 C 1.595494 2.305091 -0.221113 0
M  V30 14 O 1.665359 3.390238 -0.861683 0
M  V30 15 C 0.575411 1.361116 -0.677570 0
M  V30 16 C -0.461305 2.015185 -1.314282 0
M  V30 17 C -1.499811 1.244340 -1.797866 0
M  V30 18 C -1.517921 -0.129082 -1.659091 0
M  V30 19 C -2.637168 -0.900712 -2.186607 0
M  V30 20 C -3.279104 -0.432705 -3.331174 0
M  V30 21 C -4.338757 -1.159965 -3.831634 0
M  V30 22 C -4.817596 -2.329381 -3.279219 0
M  V30 23 N -5.917158 -3.017740 -3.859854 0
M  V30 24 C -4.164954 -2.772780 -2.145583 0
M  V30 25 O -4.585411 -3.926372 -1.542913 0
M  V30 26 C -3.991746 -4.472877 -0.378191 0
M  V30 27 C -3.099584 -2.061853 -1.623655 0
M  V30 28 C -0.465549 -0.779587 -1.014219 0
M  V30 29 C 0.582791 -0.009381 -0.525314 0
M  V30 30 O 1.565452 -0.804689 0.097079 0
M  V30 31 H 2.639066 -0.732550 7.651816 0
M  V30 32 H 2.232227 0.588273 6.502606 0
M  V30 33 H 2.895669 1.049355 8.075189 0
M  V30 34 H 5.914341 1.021121 4.080618 0
M  V30 35 H 5.967392 -0.794463 4.202506 0
M  V30 36 H 4.284376 -2.135508 3.269819 0
M  V30 37 H 2.682427 -2.513925 1.514366 0
M  V30 38 H 4.169987 2.079923 2.727096 0
M  V30 39 H 2.910078 2.997221 1.257899 0
M  V30 40 H -0.412462 3.106791 -1.405980 0
M  V30 41 H -2.295198 1.793759 -2.291490 0
M  V30 42 H -2.980456 0.475142 -3.841385 0
M  V30 43 H -4.824099 -0.789348 -4.712517 0
M  V30 44 H -6.681997 -2.609558 -3.253557 0
M  V30 45 H -5.825499 -3.698290 -4.652052 0
M  V30 46 H -3.834883 -3.587349 0.305190 0
M  V30 47 H -4.670334 -5.150436 0.157819 0
M  V30 48 H -2.975792 -4.888651 -0.554760 0
M  V30 49 H -2.555548 -2.380529 -0.726400 0
M  V30 50 H -0.469232 -1.864831 -0.898892 0
M  V30 END ATOM
M  V30 BEGIN BOND
M  V30 1 1 1 2
M  V30 2 1 2 3
M  V30 3 2 3 4
M  V30 4 1 3 5
M  V30 5 1 5 6
M  V30 6 2 6 7
M  V30 7 1 7 8
M  V30 8 2 8 9
M  V30 9 1 9 10
M  V30 10 2 10 11
M  V30 11 1 10 12
M  V30 12 1 12 13
M  V30 13 2 13 14
M  V30 14 1 13 15
M  V30 15 2 15 16
M  V30 16 1 16 17
M  V30 17 2 17 18
M  V30 18 1 18 19
M  V30 19 2 19 20
M  V30 20 1 20 21
M  V30 21 2 21 22
M  V30 22 1 22 23
M  V30 23 1 22 24
M  V30 24 1 24 25
M  V30 25 1 25 26
M  V30 26 2 24 27
M  V30 27 1 18 28
M  V30 28 2 28 29
M  V30 29 1 29 30
M  V30 30 1 11 6
M  V30 31 1 29 15
M  V30 32 1 30 9
M  V30 33 1 27 19
M  V30 34 1 1 31
M  V30 35 1 1 32
M  V30 36 1 1 33
M  V30 37 1 5 34
M  V30 38 1 5 35
M  V30 39 1 7 36
M  V30 40 1 8 37
M  V30 41 1 11 38
M  V30 42 1 12 39
M  V30 43 1 16 40
M  V30 44 1 17 41
M  V30 45 1 20 42
M  V30 46 1 21 43
M  V30 47 1 23 44
M  V30 48 1 23 45
M  V30 49 1 26 46
M  V30 50 1 26 47
M  V30 51 1 26 48
M  V30 52 1 27 49
M  V30 53 1 28 50
M  V30 END BOND
M  V30 END CTAB
M  END
>  <Dataset>  (915) 
ChEMBL_Kinases

>  <Ligand_Instance>  (915) 
nan

>  <PDB_ID>  (915) 
nan

>  <Standardized_SMILES>  (915) 
COC(=O)Cc1ccc2c(c1)NC(=O)c1ccc(-c3ccc(N)c(OC)c3)cc1O2

>  <Name>  (915) 
nan

>  <Pocket>  (915) 
nan

>  <ATP_Site>  (915) 
nan

>  <Peripheral>  (915) 
nan

>  <Num_H_Atoms_ProtBoundConf>  (915) 
nan

>  <Num_Resolved_Atoms>  (915) 
nan

>  <Num_Not_Resolved_Atoms>  (915) 
nan

$$$$
CHEMBL489129
     RDKit          3D

  0  0  0  0  0  0  0  0  0  0999 V3000
M  V30 BEGIN CTAB
M  V30 COUNTS 56 60 0 0 0
M  V30 BEGIN ATOM
M  V30 1 C 0.846598 -3.989416 6.317986 0
M  V30 2 C 1.489636 -2.676166 5.995578 0
M  V30 3 N 2.470631 -2.748278 4.921847 0
M  V30 4 C 2.975283 -1.390644 4.733331 0
M  V30 5 C 2.235900 -0.711557 3.588950 0
M  V30 6 C 2.606229 -1.398501 2.271847 0
M  V30 7 C 1.745049 -0.942500 1.174644 0
M  V30 8 C 2.324904 -0.113825 0.199417 0
M  V30 9 C 1.617612 0.380876 -0.886773 0
M  V30 10 C 0.283126 0.046314 -1.020416 0
M  V30 11 C -0.669786 0.369760 -1.963515 0
M  V30 12 C -0.488237 1.214691 -3.134120 0
M  V30 13 C -0.502536 0.980903 -4.471663 0
M  V30 14 C -0.303881 2.002355 -5.372730 0
M  V30 15 N -0.087326 3.271835 -4.971615 0
M  V30 16 C -0.065716 3.540074 -3.670069 0
M  V30 17 C -0.261959 2.538059 -2.714994 0
M  V30 18 C -1.842024 -0.247489 -1.594013 0
M  V30 19 C -3.159795 -0.252452 -2.217397 0
M  V30 20 C -3.462458 -0.778287 -3.452739 0
M  V30 21 C -4.733865 -0.751282 -3.988164 0
M  V30 22 C -5.783229 -0.183489 -3.294620 0
M  V30 23 F -7.049000 -0.121981 -3.756018 0
M  V30 24 C -5.554707 0.374075 -2.027868 0
M  V30 25 C -4.257142 0.302866 -1.572175 0
M  V30 26 N -1.634095 -0.946818 -0.439323 0
M  V30 27 C -0.348086 -0.763372 -0.099917 0
M  V30 28 C 0.417349 -1.216839 0.952571 0
M  V30 29 C 2.629078 -2.868909 2.514757 0
M  V30 30 C 1.818806 -3.245658 3.725801 0
M  V30 31 H 0.425348 -3.941973 7.352743 0
M  V30 32 H -0.055637 -4.100933 5.647135 0
M  V30 33 H 1.486182 -4.866276 6.231093 0
M  V30 34 H 2.023470 -2.272009 6.895575 0
M  V30 35 H 0.757746 -1.909701 5.725929 0
M  V30 36 H 4.046418 -1.356110 4.495128 0
M  V30 37 H 2.775949 -0.796952 5.640125 0
M  V30 38 H 1.156433 -0.831209 3.756158 0
M  V30 39 H 2.491916 0.345735 3.593670 0
M  V30 40 H 3.648181 -1.072496 2.009448 0
M  V30 41 H 3.368500 0.191556 0.239398 0
M  V30 42 H 2.079766 1.005956 -1.610998 0
M  V30 43 H -0.680126 -0.065667 -4.687520 0
M  V30 44 H -0.330360 1.730389 -6.431429 0
M  V30 45 H 0.113834 4.584225 -3.390053 0
M  V30 46 H -0.215417 2.915743 -1.680369 0
M  V30 47 H -2.651141 -1.232873 -4.017737 0
M  V30 48 H -4.912553 -1.178771 -4.960030 0
M  V30 49 H -6.325480 0.835027 -1.427646 0
M  V30 50 H -4.052488 0.733189 -0.577477 0
M  V30 51 H -2.312113 -1.525903 0.110022 0
M  V30 52 H -0.069041 -1.844527 1.671119 0
M  V30 53 H 3.682723 -3.185583 2.718160 0
M  V30 54 H 2.341277 -3.466578 1.617511 0
M  V30 55 H 0.814363 -2.804399 3.652500 0
M  V30 56 H 1.759396 -4.370069 3.801792 0
M  V30 END ATOM
M  V30 BEGIN BOND
M  V30 1 1 1 2
M  V30 2 1 2 3
M  V30 3 1 3 4
M  V30 4 1 4 5
M  V30 5 1 5 6
M  V30 6 1 6 7
M  V30 7 2 7 8
M  V30 8 1 8 9
M  V30 9 2 9 10
M  V30 10 1 10 11
M  V30 11 1 11 12
M  V30 12 2 12 13
M  V30 13 1 13 14
M  V30 14 2 14 15
M  V30 15 1 15 16
M  V30 16 2 16 17
M  V30 17 2 11 18
M  V30 18 1 18 19
M  V30 19 2 19 20
M  V30 20 1 20 21
M  V30 21 2 21 22
M  V30 22 1 22 23
M  V30 23 1 22 24
M  V30 24 2 24 25
M  V30 25 1 18 26
M  V30 26 1 26 27
M  V30 27 2 27 28
M  V30 28 1 6 29
M  V30 29 1 29 30
M  V30 30 1 30 3
M  V30 31 1 28 7
M  V30 32 1 27 10
M  V30 33 1 17 12
M  V30 34 1 25 19
M  V30 35 1 1 31
M  V30 36 1 1 32
M  V30 37 1 1 33
M  V30 38 1 2 34
M  V30 39 1 2 35
M  V30 40 1 4 36
M  V30 41 1 4 37
M  V30 42 1 5 38
M  V30 43 1 5 39
M  V30 44 1 6 40
M  V30 45 1 8 41
M  V30 46 1 9 42
M  V30 47 1 13 43
M  V30 48 1 14 44
M  V30 49 1 16 45
M  V30 50 1 17 46
M  V30 51 1 20 47
M  V30 52 1 21 48
M  V30 53 1 24 49
M  V30 54 1 25 50
M  V30 55 1 26 51
M  V30 56 1 28 52
M  V30 57 1 29 53
M  V30 58 1 29 54
M  V30 59 1 30 55
M  V30 60 1 30 56
M  V30 END BOND
M  V30 END CTAB
M  END
>  <Dataset>  (916) 
ChEMBL_Kinases

>  <Ligand_Instance>  (916) 
nan

>  <PDB_ID>  (916) 
nan

>  <Standardized_SMILES>  (916) 
CCN1CCC(c2ccc3c(-c4ccncc4)c(-c4ccc(F)cc4)[nH]c3c2)CC1

>  <Name>  (916) 
nan

>  <Pocket>  (916) 
nan

>  <ATP_Site>  (916) 
nan

>  <Peripheral>  (916) 
nan

>  <Num_H_Atoms_ProtBoundConf>  (916) 
nan

>  <Num_Resolved_Atoms>  (916) 
nan

>  <Num_Not_Resolved_Atoms>  (916) 
nan

$$$$
CHEMBL3912705
     RDKit          3D

  0  0  0  0  0  0  0  0  0  0999 V3000
M  V30 BEGIN CTAB
M  V30 COUNTS 59 60 0 0 0
M  V30 BEGIN ATOM
M  V30 1 C 3.975945 -1.082287 -4.485880 0
M  V30 2 N 4.681758 -1.429081 -3.246678 0
M  V30 3 C 3.962575 -2.314890 -2.372362 0
M  V30 4 O 2.858468 -2.579687 -2.918608 0
M  V30 5 C 4.729718 -2.636457 -1.121274 0
M  V30 6 N 3.920940 -3.516798 -0.333231 0
M  V30 7 C 2.653533 -3.206600 0.214641 0
M  V30 8 C 1.898309 -4.083038 0.955881 0
M  V30 9 C 0.666544 -3.640800 1.439582 0
M  V30 10 O -0.117514 -4.523966 2.197049 0
M  V30 11 C 0.136712 -2.391639 1.238220 0
M  V30 12 C 0.853976 -1.484200 0.506983 0
M  V30 13 C 2.092352 -1.934049 0.020802 0
M  V30 14 C 0.604664 -0.077887 0.123204 0
M  V30 15 C 1.060570 1.068115 0.656370 0
M  V30 16 C 1.100307 2.525025 0.638530 0
M  V30 17 C 0.233491 3.205123 -0.358448 0 CFG=2
M  V30 18 O 0.749558 4.553408 -0.427983 0
M  V30 19 C -1.158800 3.468810 0.178219 0 CFG=2
M  V30 20 O -0.936065 4.186140 1.385687 0
M  V30 21 C -1.946116 2.259235 0.478470 0
M  V30 22 O -1.944039 1.766989 -0.638097 0
M  V30 23 C -2.433648 2.006581 1.781184 0
M  V30 24 C -3.003964 1.487337 2.800586 0
M  V30 25 C -3.576310 0.286001 2.286709 0 CFG=1
M  V30 26 C -3.793206 0.025555 0.858154 0
M  V30 27 C -2.996034 -0.978662 2.969976 0 CFG=2
M  V30 28 C -3.226675 -1.004474 4.432175 0
M  V30 29 O -1.606580 -1.047674 2.595236 0
M  V30 30 C -1.166703 -2.072306 1.780267 0
M  V30 31 O -1.976817 -2.959163 1.366040 0
M  V30 32 H 4.527495 -0.307435 -5.018728 0
M  V30 33 H 3.993051 -2.004306 -5.128428 0
M  V30 34 H 2.913764 -0.841885 -4.297656 0
M  V30 35 H 5.635309 -1.023324 -3.080387 0
M  V30 36 H 5.005968 -1.702877 -0.583855 0
M  V30 37 H 5.656039 -3.153001 -1.437101 0
M  V30 38 H 4.272226 -4.498655 -0.120585 0
M  V30 39 H 2.270965 -5.077568 1.143047 0
M  V30 40 H 0.344575 -5.079643 2.918406 0
M  V30 41 H 2.638222 -1.195851 -0.572674 0
M  V30 42 H 0.005647 -0.469542 -0.659528 0
M  V30 43 H 1.694941 0.720710 1.487740 0
M  V30 44 H 0.809254 2.896534 1.654888 0
M  V30 45 H 2.180385 2.841042 0.553538 0
M  V30 46 H 0.261335 2.838908 -1.380989 0
M  V30 47 H 0.864584 4.898145 0.489887 0
M  V30 48 H -1.733759 4.136336 -0.481785 0
M  V30 49 H -1.140269 5.139230 1.265618 0
M  V30 50 H -2.058340 2.853704 2.250380 0
M  V30 51 H -3.120398 1.742031 3.826326 0
M  V30 52 H -4.643724 0.276681 2.734797 0
M  V30 53 H -2.943905 -0.476493 0.363185 0
M  V30 54 H -4.602297 -0.787553 0.804338 0
M  V30 55 H -4.253570 0.863321 0.346126 0
M  V30 56 H -3.469485 -1.858553 2.498458 0
M  V30 57 H -2.338221 -1.255323 5.048644 0
M  V30 58 H -4.000781 -1.766367 4.742599 0
M  V30 59 H -3.672750 -0.033981 4.778621 0
M  V30 END ATOM
M  V30 BEGIN BOND
M  V30 1 1 1 2
M  V30 2 1 2 3
M  V30 3 2 3 4
M  V30 4 1 3 5
M  V30 5 1 5 6
M  V30 6 1 6 7
M  V30 7 2 7 8
M  V30 8 1 8 9
M  V30 9 1 9 10
M  V30 10 2 9 11
M  V30 11 1 11 12
M  V30 12 2 12 13
M  V30 13 1 12 14
M  V30 14 2 14 15
M  V30 15 1 15 16
M  V30 16 1 16 17
M  V30 17 1 17 18
M  V30 18 1 17 19
M  V30 19 1 19 20
M  V30 20 1 19 21
M  V30 21 2 21 22
M  V30 22 1 21 23
M  V30 23 2 23 24
M  V30 24 1 24 25
M  V30 25 1 25 26
M  V30 26 1 25 27
M  V30 27 1 27 28
M  V30 28 1 27 29
M  V30 29 1 29 30
M  V30 30 2 30 31
M  V30 31 1 13 7
M  V30 32 1 30 11
M  V30 33 1 1 32
M  V30 34 1 1 33
M  V30 35 1 1 34
M  V30 36 1 2 35
M  V30 37 1 5 36
M  V30 38 1 5 37
M  V30 39 1 6 38
M  V30 40 1 8 39
M  V30 41 1 10 40
M  V30 42 1 13 41
M  V30 43 1 14 42
M  V30 44 1 15 43
M  V30 45 1 16 44
M  V30 46 1 16 45
M  V30 47 1 17 46 CFG=3
M  V30 48 1 18 47
M  V30 49 1 19 48 CFG=3
M  V30 50 1 20 49
M  V30 51 1 23 50
M  V30 52 1 24 51
M  V30 53 1 25 52 CFG=1
M  V30 54 1 26 53
M  V30 55 1 26 54
M  V30 56 1 26 55
M  V30 57 1 27 56 CFG=3
M  V30 58 1 28 57
M  V30 59 1 28 58
M  V30 60 1 28 59
M  V30 END BOND
M  V30 END CTAB
M  END
>  <Dataset>  (917) 
ChEMBL_Kinases

>  <Ligand_Instance>  (917) 
nan

>  <PDB_ID>  (917) 
nan

>  <Standardized_SMILES>  (917) 
CNC(=O)CNc1cc(O)c2c(c1)/C=C/C[C@H](O)[C@H](O)C(=O)/C=C\[C@@H](C)[C@H](C)OC2=O

>  <Name>  (917) 
nan

>  <Pocket>  (917) 
nan

>  <ATP_Site>  (917) 
nan

>  <Peripheral>  (917) 
nan

>  <Num_H_Atoms_ProtBoundConf>  (917) 
nan

>  <Num_Resolved_Atoms>  (917) 
nan

>  <Num_Not_Resolved_Atoms>  (917) 
nan

$$$$
CHEMBL606632
     RDKit          3D

  0  0  0  0  0  0  0  0  0  0999 V3000
M  V30 BEGIN CTAB
M  V30 COUNTS 42 45 0 0 0
M  V30 BEGIN ATOM
M  V30 1 C -2.207091 -5.178681 0.816994 0
M  V30 2 C -1.174809 -4.248086 0.269074 0
M  V30 3 C -0.866979 -4.226975 -1.094724 0
M  V30 4 C 0.101181 -3.352742 -1.602095 0
M  V30 5 C 0.763391 -2.496746 -0.741848 0
M  V30 6 C 0.445335 -2.532236 0.603320 0
M  V30 7 C 1.075629 -1.674579 1.630513 0
M  V30 8 C 1.070805 -0.301873 1.766408 0
M  V30 9 C 0.367602 0.548346 0.805440 0
M  V30 10 C -1.000747 0.499628 0.591137 0
M  V30 11 C -1.587918 1.338459 -0.335453 0
M  V30 12 C -0.845794 2.242363 -1.070892 0
M  V30 13 N -1.367738 3.080112 -1.983120 0
M  V30 14 C -0.601853 3.943937 -2.674403 0
M  V30 15 C 0.761061 4.015115 -2.482941 0
M  V30 16 N 1.299567 3.168041 -1.558430 0
M  V30 17 C 0.519903 2.307177 -0.872602 0
M  V30 18 C 1.123763 1.462335 0.062875 0
M  V30 19 N 1.777564 0.049361 2.856438 0
M  V30 20 C 1.994964 1.402486 3.320947 0
M  V30 21 N 2.245318 -1.051975 3.438749 0
M  V30 22 C 3.054501 -1.183547 4.631069 0
M  V30 23 C 1.832934 -2.109602 2.713815 0
M  V30 24 O 2.070697 -3.341616 2.939709 0
M  V30 25 N -0.493844 -3.396199 1.021854 0
M  V30 26 H -3.174053 -4.660475 0.847537 0
M  V30 27 H -2.284736 -6.115724 0.230851 0
M  V30 28 H -1.948541 -5.436351 1.882043 0
M  V30 29 H -1.401634 -4.913513 -1.768177 0
M  V30 30 H 0.345668 -3.331309 -2.662127 0
M  V30 31 H 1.526797 -1.789129 -1.059154 0
M  V30 32 H -1.570057 -0.212659 1.173804 0
M  V30 33 H -2.654367 1.309434 -0.511852 0
M  V30 34 H -0.996246 4.628338 -3.413178 0
M  V30 35 H 1.465402 4.666522 -2.980111 0
M  V30 36 H 2.204314 1.524543 0.209450 0
M  V30 37 H 3.063508 1.720895 3.246662 0
M  V30 38 H 1.616902 1.514350 4.377622 0
M  V30 39 H 1.432057 2.112935 2.691395 0
M  V30 40 H 3.429896 -0.222147 5.001487 0
M  V30 41 H 3.968785 -1.772583 4.347317 0
M  V30 42 H 2.483751 -1.778174 5.366309 0
M  V30 END ATOM
M  V30 BEGIN BOND
M  V30 1 1 1 2
M  V30 2 2 2 3
M  V30 3 1 3 4
M  V30 4 2 4 5
M  V30 5 1 5 6
M  V30 6 1 6 7
M  V30 7 2 7 8
M  V30 8 1 8 9
M  V30 9 2 9 10
M  V30 10 1 10 11
M  V30 11 2 11 12
M  V30 12 1 12 13
M  V30 13 2 13 14
M  V30 14 1 14 15
M  V30 15 2 15 16
M  V30 16 1 16 17
M  V30 17 2 17 18
M  V30 18 1 8 19
M  V30 19 1 19 20
M  V30 20 1 19 21
M  V30 21 1 21 22
M  V30 22 1 21 23
M  V30 23 2 23 24
M  V30 24 2 6 25
M  V30 25 1 25 2
M  V30 26 1 23 7
M  V30 27 1 18 9
M  V30 28 1 17 12
M  V30 29 1 1 26
M  V30 30 1 1 27
M  V30 31 1 1 28
M  V30 32 1 3 29
M  V30 33 1 4 30
M  V30 34 1 5 31
M  V30 35 1 10 32
M  V30 36 1 11 33
M  V30 37 1 14 34
M  V30 38 1 15 35
M  V30 39 1 18 36
M  V30 40 1 20 37
M  V30 41 1 20 38
M  V30 42 1 20 39
M  V30 43 1 22 40
M  V30 44 1 22 41
M  V30 45 1 22 42
M  V30 END BOND
M  V30 END CTAB
M  END
>  <Dataset>  (918) 
ChEMBL_Kinases

>  <Ligand_Instance>  (918) 
nan

>  <PDB_ID>  (918) 
nan

>  <Standardized_SMILES>  (918) 
Cc1cccc(-c2c(-c3ccc4nccnc4c3)n(C)n(C)c2=O)n1

>  <Name>  (918) 
nan

>  <Pocket>  (918) 
nan

>  <ATP_Site>  (918) 
nan

>  <Peripheral>  (918) 
nan

>  <Num_H_Atoms_ProtBoundConf>  (918) 
nan

>  <Num_Resolved_Atoms>  (918) 
nan

>  <Num_Not_Resolved_Atoms>  (918) 
nan

$$$$
CHEMBL491771
     RDKit          3D

  0  0  0  0  0  0  0  0  0  0999 V3000
M  V30 BEGIN CTAB
M  V30 COUNTS 52 55 0 0 0
M  V30 BEGIN ATOM
M  V30 1 C -0.508432 -5.683040 -2.414264 0
M  V30 2 C 0.547172 -5.250298 -1.436848 0
M  V30 3 C 0.837585 -5.964646 -0.288131 0
M  V30 4 C 1.801797 -5.576940 0.613840 0
M  V30 5 C 2.501517 -4.426326 0.350991 0
M  V30 6 C 2.245353 -3.682991 -0.781643 0
M  V30 7 C 2.922779 -2.426731 -1.187531 0
M  V30 8 N 2.180742 -1.319002 -0.617713 0
M  V30 9 C 2.708444 -0.021486 -0.928707 0
M  V30 10 N 3.785022 0.170724 -1.673747 0
M  V30 11 C 4.290301 1.378696 -1.974097 0
M  V30 12 N 3.708677 2.508038 -1.517499 0
M  V30 13 C 2.610577 2.408134 -0.753464 0
M  V30 14 C 2.019424 3.565715 -0.290627 0
M  V30 15 C 0.873964 3.480169 0.505360 0
M  V30 16 C 0.369116 2.234662 0.803892 0
M  V30 17 C -0.830482 2.220485 1.634859 0
M  V30 18 C -1.724153 3.278941 1.501010 0
M  V30 19 C -2.904904 3.439084 2.198724 0
M  V30 20 C -3.206768 2.444564 3.108329 0
M  V30 21 C -2.357272 1.365956 3.286796 0
M  V30 22 N -2.670996 0.336154 4.231737 0
M  V30 23 S -4.276775 -0.298207 4.273956 0
M  V30 24 C -4.638579 -1.047660 2.680756 0
M  V30 25 O -4.366340 -1.376318 5.311103 0
M  V30 26 O -5.281677 0.752699 4.606892 0
M  V30 27 C -1.175838 1.246862 2.559646 0
M  V30 28 C 1.002650 1.114500 0.313180 0
M  V30 29 C 2.126268 1.142023 -0.470133 0
M  V30 30 C 1.268905 -4.098515 -1.670752 0
M  V30 31 H -0.083132 -6.072831 -3.340625 0
M  V30 32 H -1.177486 -4.831497 -2.687386 0
M  V30 33 H -1.209204 -6.412459 -1.914359 0
M  V30 34 H 0.229160 -6.864047 -0.166934 0
M  V30 35 H 1.994180 -6.162924 1.493719 0
M  V30 36 H 3.275923 -4.046610 1.003237 0
M  V30 37 H 3.036089 -2.347591 -2.281644 0
M  V30 38 H 3.929910 -2.381263 -0.704004 0
M  V30 39 H 1.354200 -1.497405 -0.046906 0
M  V30 40 H 5.178246 1.412956 -2.594122 0
M  V30 41 H 2.469405 4.509807 -0.563873 0
M  V30 42 H 0.502121 4.458300 0.807965 0
M  V30 43 H -1.493567 4.062841 0.787793 0
M  V30 44 H -3.534857 4.296971 2.025432 0
M  V30 45 H -4.123099 2.549082 3.663584 0
M  V30 46 H -1.865668 0.039566 4.846365 0
M  V30 47 H -4.151597 -2.053446 2.666902 0
M  V30 48 H -4.194237 -0.446655 1.856258 0
M  V30 49 H -5.717236 -1.096543 2.503826 0
M  V30 50 H -0.472650 0.430382 2.653354 0
M  V30 51 H 0.546022 0.194629 0.592364 0
M  V30 52 H 1.013742 -3.553048 -2.593174 0
M  V30 END ATOM
M  V30 BEGIN BOND
M  V30 1 1 1 2
M  V30 2 2 2 3
M  V30 3 1 3 4
M  V30 4 2 4 5
M  V30 5 1 5 6
M  V30 6 1 6 7
M  V30 7 1 7 8
M  V30 8 1 8 9
M  V30 9 2 9 10
M  V30 10 1 10 11
M  V30 11 2 11 12
M  V30 12 1 12 13
M  V30 13 2 13 14
M  V30 14 1 14 15
M  V30 15 2 15 16
M  V30 16 1 16 17
M  V30 17 2 17 18
M  V30 18 1 18 19
M  V30 19 2 19 20
M  V30 20 1 20 21
M  V30 21 1 21 22
M  V30 22 1 22 23
M  V30 23 1 23 24
M  V30 24 2 23 25
M  V30 25 2 23 26
M  V30 26 2 21 27
M  V30 27 1 16 28
M  V30 28 2 28 29
M  V30 29 2 6 30
M  V30 30 1 30 2
M  V30 31 1 29 9
M  V30 32 1 29 13
M  V30 33 1 27 17
M  V30 34 1 1 31
M  V30 35 1 1 32
M  V30 36 1 1 33
M  V30 37 1 3 34
M  V30 38 1 4 35
M  V30 39 1 5 36
M  V30 40 1 7 37
M  V30 41 1 7 38
M  V30 42 1 8 39
M  V30 43 1 11 40
M  V30 44 1 14 41
M  V30 45 1 15 42
M  V30 46 1 18 43
M  V30 47 1 19 44
M  V30 48 1 20 45
M  V30 49 1 22 46
M  V30 50 1 24 47
M  V30 51 1 24 48
M  V30 52 1 24 49
M  V30 53 1 27 50
M  V30 54 1 28 51
M  V30 55 1 30 52
M  V30 END BOND
M  V30 END CTAB
M  END
>  <Dataset>  (919) 
ChEMBL_Kinases

>  <Ligand_Instance>  (919) 
nan

>  <PDB_ID>  (919) 
nan

>  <Standardized_SMILES>  (919) 
Cc1cccc(CNc2ncnc3ccc(-c4cccc(NS(C)(=O)=O)c4)cc23)c1

>  <Name>  (919) 
nan

>  <Pocket>  (919) 
nan

>  <ATP_Site>  (919) 
nan

>  <Peripheral>  (919) 
nan

>  <Num_H_Atoms_ProtBoundConf>  (919) 
nan

>  <Num_Resolved_Atoms>  (919) 
nan

>  <Num_Not_Resolved_Atoms>  (919) 
nan

$$$$
CHEMBL597414
     RDKit          3D

  0  0  0  0  0  0  0  0  0  0999 V3000
M  V30 BEGIN CTAB
M  V30 COUNTS 44 47 0 0 0
M  V30 BEGIN ATOM
M  V30 1 N -0.259950 -2.685623 0.461916 0
M  V30 2 C 0.712841 -1.666033 -0.019588 0
M  V30 3 C 1.674552 -2.443136 -0.862852 0
M  V30 4 C 2.770240 -1.719557 -1.488766 0
M  V30 5 C 4.014074 -1.707906 -0.839249 0
M  V30 6 C 5.122343 -1.039159 -1.306461 0
M  V30 7 C 5.077673 -0.323553 -2.468006 0
M  V30 8 Cl 6.454658 0.539128 -3.094833 0
M  V30 9 C 3.878006 -0.293094 -3.162780 0
M  V30 10 C 2.804033 -0.980522 -2.648732 0
M  V30 11 Cl 1.358089 -0.932889 -3.633004 0
M  V30 12 C -0.117981 -0.656279 -0.699383 0
M  V30 13 C -1.117621 0.020350 0.216626 0
M  V30 14 N -0.589906 0.056261 1.593387 0
M  V30 15 C -1.458175 0.065921 2.718998 0
M  V30 16 N -1.321390 -0.983670 3.550125 0
M  V30 17 C -2.087737 -1.094094 4.654034 0
M  V30 18 N -3.027624 -0.184304 5.002855 0
M  V30 19 C -3.183154 0.874756 4.186994 0
M  V30 20 N -3.979058 1.955152 4.184887 0
M  V30 21 C -3.729983 2.739807 3.106691 0
M  V30 22 C -2.723951 2.149394 2.364367 0
M  V30 23 C -2.406683 0.999767 3.056019 0
M  V30 24 C 0.846682 0.081052 1.800553 0
M  V30 25 C 1.391858 -1.198584 1.228880 0
M  V30 26 H -1.056602 -2.130984 0.839509 0
M  V30 27 H -0.609483 -3.134792 -0.436526 0
M  V30 28 H 2.143087 -3.282389 -0.255006 0
M  V30 29 H 1.141823 -3.026434 -1.667848 0
M  V30 30 H 4.242234 -2.230644 0.097037 0
M  V30 31 H 6.084720 -1.023703 -0.813026 0
M  V30 32 H 3.824925 0.264877 -4.078385 0
M  V30 33 H -0.708215 -1.018162 -1.552832 0
M  V30 34 H 0.545627 0.151277 -1.057168 0
M  V30 35 H -2.075952 -0.490311 0.162331 0
M  V30 36 H -1.215732 1.072174 -0.103735 0
M  V30 37 H -2.027643 -1.923030 5.372996 0
M  V30 38 H -4.712635 2.205875 4.898445 0
M  V30 39 H -4.192792 3.676170 2.809345 0
M  V30 40 H -2.300861 2.520765 1.457491 0
M  V30 41 H 1.308479 0.983440 1.353396 0
M  V30 42 H 1.067528 0.107208 2.876649 0
M  V30 43 H 2.468306 -1.003141 1.042310 0
M  V30 44 H 1.369237 -1.962203 2.029923 0
M  V30 END ATOM
M  V30 BEGIN BOND
M  V30 1 1 1 2
M  V30 2 1 2 3
M  V30 3 1 3 4
M  V30 4 2 4 5
M  V30 5 1 5 6
M  V30 6 2 6 7
M  V30 7 1 7 8
M  V30 8 1 7 9
M  V30 9 2 9 10
M  V30 10 1 10 11
M  V30 11 1 2 12
M  V30 12 1 12 13
M  V30 13 1 13 14
M  V30 14 1 14 15
M  V30 15 2 15 16
M  V30 16 1 16 17
M  V30 17 2 17 18
M  V30 18 1 18 19
M  V30 19 1 19 20
M  V30 20 1 20 21
M  V30 21 2 21 22
M  V30 22 1 22 23
M  V30 23 1 14 24
M  V30 24 1 24 25
M  V30 25 1 25 2
M  V30 26 1 10 4
M  V30 27 1 23 15
M  V30 28 2 23 19
M  V30 29 1 1 26
M  V30 30 1 1 27
M  V30 31 1 3 28
M  V30 32 1 3 29
M  V30 33 1 5 30
M  V30 34 1 6 31
M  V30 35 1 9 32
M  V30 36 1 12 33
M  V30 37 1 12 34
M  V30 38 1 13 35
M  V30 39 1 13 36
M  V30 40 1 17 37
M  V30 41 1 20 38
M  V30 42 1 21 39
M  V30 43 1 22 40
M  V30 44 1 24 41
M  V30 45 1 24 42
M  V30 46 1 25 43
M  V30 47 1 25 44
M  V30 END BOND
M  V30 END CTAB
M  END
>  <Dataset>  (920) 
ChEMBL_Kinases

>  <Ligand_Instance>  (920) 
nan

>  <PDB_ID>  (920) 
nan

>  <Standardized_SMILES>  (920) 
NC1(Cc2ccc(Cl)cc2Cl)CCN(c2ncnc3[nH]ccc23)CC1

>  <Name>  (920) 
nan

>  <Pocket>  (920) 
nan

>  <ATP_Site>  (920) 
nan

>  <Peripheral>  (920) 
nan

>  <Num_H_Atoms_ProtBoundConf>  (920) 
nan

>  <Num_Resolved_Atoms>  (920) 
nan

>  <Num_Not_Resolved_Atoms>  (920) 
nan

$$$$
CHEMBL491859
     RDKit          3D

  0  0  0  0  0  0  0  0  0  0999 V3000
M  V30 BEGIN CTAB
M  V30 COUNTS 46 51 0 0 0
M  V30 BEGIN ATOM
M  V30 1 C -2.704191 -0.059101 2.452956 0
M  V30 2 N -1.776292 -0.538857 1.482046 0
M  V30 3 C -0.943179 0.222625 0.758568 0
M  V30 4 C -0.119425 -0.420551 -0.129592 0
M  V30 5 C 0.942763 -0.113848 -1.069054 0
M  V30 6 C 2.115067 0.541783 -1.007786 0
M  V30 7 C 2.847329 1.243516 0.034953 0
M  V30 8 C 4.156826 0.845375 0.351379 0
M  V30 9 O 4.620974 1.624247 1.299786 0
M  V30 10 C 3.755057 2.527692 1.670462 0
M  V30 11 C 3.729763 3.556443 2.588581 0
M  V30 12 C 2.577638 4.324864 2.682005 0
M  V30 13 F 2.616012 5.321505 3.604591 0
M  V30 14 C 1.483604 4.088872 1.895753 0
M  V30 15 F 0.415952 4.890904 2.061052 0
M  V30 16 C 1.517752 3.058367 0.981682 0
M  V30 17 C 2.641802 2.304759 0.890077 0
M  V30 18 C 2.702021 0.501264 -2.367184 0
M  V30 19 O 3.814042 1.004013 -2.752540 0
M  V30 20 N 1.868831 -0.191717 -3.274081 0
M  V30 21 C 0.768188 -0.577304 -2.467835 0
M  V30 22 O -0.181780 -1.234067 -3.009525 0
M  V30 23 C -0.511039 -1.755718 0.089950 0
M  V30 24 C -0.074909 -2.960135 -0.474250 0
M  V30 25 C -0.592101 -4.183983 -0.107908 0
M  V30 26 C -1.583196 -4.221988 0.858304 0
M  V30 27 C -2.082997 -5.453690 1.206367 0
M  V30 28 C -3.064816 -5.488699 2.164166 0
M  V30 29 C -3.511122 -4.327402 2.734947 0
M  V30 30 C -2.970695 -3.108381 2.345530 0
M  V30 31 C -1.988172 -3.019391 1.392990 0
M  V30 32 C -1.501964 -1.781131 1.059017 0
M  V30 33 H -2.598943 1.071615 2.488789 0
M  V30 34 H -2.443776 -0.350495 3.488688 0
M  V30 35 H -3.778889 -0.178441 2.187345 0
M  V30 36 H -0.889505 1.297175 0.830605 0
M  V30 37 H 4.744184 0.033590 -0.082483 0
M  V30 38 H 4.610907 3.702005 3.182409 0
M  V30 39 H 0.673769 2.897329 0.367244 0
M  V30 40 H 2.044151 -0.363049 -4.285633 0
M  V30 41 H 0.697381 -3.019813 -1.219852 0
M  V30 42 H -0.251288 -5.116261 -0.549278 0
M  V30 43 H -1.714556 -6.363756 0.740149 0
M  V30 44 H -3.442983 -6.465234 2.422205 0
M  V30 45 H -4.288586 -4.486748 3.476881 0
M  V30 46 H -3.441312 -2.324656 2.895425 0
M  V30 END ATOM
M  V30 BEGIN BOND
M  V30 1 1 1 2
M  V30 2 1 2 3
M  V30 3 2 3 4
M  V30 4 1 4 5
M  V30 5 2 5 6
M  V30 6 1 6 7
M  V30 7 2 7 8
M  V30 8 1 8 9
M  V30 9 1 9 10
M  V30 10 2 10 11
M  V30 11 1 11 12
M  V30 12 1 12 13
M  V30 13 2 12 14
M  V30 14 1 14 15
M  V30 15 1 14 16
M  V30 16 2 16 17
M  V30 17 1 6 18
M  V30 18 2 18 19
M  V30 19 1 18 20
M  V30 20 1 20 21
M  V30 21 2 21 22
M  V30 22 1 4 23
M  V30 23 2 23 24
M  V30 24 1 24 25
M  V30 25 2 25 26
M  V30 26 1 26 27
M  V30 27 2 27 28
M  V30 28 1 28 29
M  V30 29 2 29 30
M  V30 30 1 30 31
M  V30 31 2 31 32
M  V30 32 1 32 2
M  V30 33 1 21 5
M  V30 34 1 32 23
M  V30 35 1 17 7
M  V30 36 1 31 26
M  V30 37 1 17 10
M  V30 38 1 1 33
M  V30 39 1 1 34
M  V30 40 1 1 35
M  V30 41 1 3 36
M  V30 42 1 8 37
M  V30 43 1 11 38
M  V30 44 1 16 39
M  V30 45 1 20 40
M  V30 46 1 24 41
M  V30 47 1 25 42
M  V30 48 1 27 43
M  V30 49 1 28 44
M  V30 50 1 29 45
M  V30 51 1 30 46
M  V30 END BOND
M  V30 END CTAB
M  END
>  <Dataset>  (921) 
ChEMBL_Kinases

>  <Ligand_Instance>  (921) 
nan

>  <PDB_ID>  (921) 
nan

>  <Standardized_SMILES>  (921) 
Cn1cc(C2=C(c3coc4cc(F)c(F)cc34)C(=O)NC2=O)c2ccc3ccccc3c21

>  <Name>  (921) 
nan

>  <Pocket>  (921) 
nan

>  <ATP_Site>  (921) 
nan

>  <Peripheral>  (921) 
nan

>  <Num_H_Atoms_ProtBoundConf>  (921) 
nan

>  <Num_Resolved_Atoms>  (921) 
nan

>  <Num_Not_Resolved_Atoms>  (921) 
nan

$$$$
CHEMBL3916197
     RDKit          3D

  0  0  0  0  0  0  0  0  0  0999 V3000
M  V30 BEGIN CTAB
M  V30 COUNTS 40 43 0 0 0
M  V30 BEGIN ATOM
M  V30 1 N 2.454509 -7.523321 -0.105654 0
M  V30 2 C 1.219495 -7.243923 -0.748967 0
M  V30 3 O 0.746326 -8.320251 -1.191738 0
M  V30 4 C 0.630082 -5.927386 -0.859720 0
M  V30 5 C -0.577881 -5.833562 -1.518840 0
M  V30 6 C -1.107869 -4.540977 -1.600389 0
M  V30 7 C -0.452585 -3.463543 -1.055624 0
M  V30 8 N -0.738351 -2.139868 -0.995617 0
M  V30 9 C 0.234284 -1.479916 -0.342875 0
M  V30 10 C 0.283686 -0.045932 -0.077360 0
M  V30 11 C -0.721907 0.797719 -0.498912 0
M  V30 12 C -0.659047 2.152274 -0.239095 0
M  V30 13 C 0.412872 2.686703 0.448112 0
M  V30 14 O 0.601447 4.029161 0.776117 0
M  V30 15 C 0.109299 4.513236 1.983908 0
M  V30 16 C 1.015179 4.413593 3.034178 0
M  V30 17 C 0.681820 4.852590 4.311857 0
M  V30 18 C -0.575175 5.407059 4.576078 0
M  V30 19 Cl -1.039820 5.972138 6.163336 0
M  V30 20 C -1.448052 5.490444 3.511839 0
M  V30 21 F -2.683167 6.021751 3.715593 0
M  V30 22 C -1.131687 5.059569 2.240316 0
M  V30 23 C 1.436765 1.832121 0.878070 0
M  V30 24 C 1.359163 0.479672 0.610370 0
M  V30 25 N 1.129856 -2.389002 0.006499 0
M  V30 26 C 0.770616 -3.622624 -0.398823 0
M  V30 27 C 1.343190 -4.892932 -0.289789 0
M  V30 28 H 2.941617 -7.387911 0.809359 0
M  V30 29 H 3.307393 -8.018009 -0.473828 0
M  V30 30 H -1.047686 -6.718373 -1.928055 0
M  V30 31 H -2.053771 -4.415224 -2.107844 0
M  V30 32 H -1.610536 -1.750211 -1.418111 0
M  V30 33 H -1.576489 0.429124 -1.037253 0
M  V30 34 H -1.408964 2.883404 -0.536549 0
M  V30 35 H 2.026273 4.002783 2.967225 0
M  V30 36 H 1.382226 4.780702 5.145205 0
M  V30 37 H -1.784832 5.106879 1.381590 0
M  V30 38 H 2.310987 2.173805 1.422906 0
M  V30 39 H 2.151498 -0.194767 0.940913 0
M  V30 40 H 2.272713 -5.025443 0.207399 0
M  V30 END ATOM
M  V30 BEGIN BOND
M  V30 1 1 1 2
M  V30 2 2 2 3
M  V30 3 1 2 4
M  V30 4 2 4 5
M  V30 5 1 5 6
M  V30 6 2 6 7
M  V30 7 1 7 8
M  V30 8 1 8 9
M  V30 9 1 9 10
M  V30 10 2 10 11
M  V30 11 1 11 12
M  V30 12 2 12 13
M  V30 13 1 13 14
M  V30 14 1 14 15
M  V30 15 2 15 16
M  V30 16 1 16 17
M  V30 17 2 17 18
M  V30 18 1 18 19
M  V30 19 1 18 20
M  V30 20 1 20 21
M  V30 21 2 20 22
M  V30 22 1 13 23
M  V30 23 2 23 24
M  V30 24 2 9 25
M  V30 25 1 25 26
M  V30 26 2 26 27
M  V30 27 1 27 4
M  V30 28 1 26 7
M  V30 29 1 24 10
M  V30 30 1 22 15
M  V30 31 1 1 28
M  V30 32 1 1 29
M  V30 33 1 5 30
M  V30 34 1 6 31
M  V30 35 1 8 32
M  V30 36 1 11 33
M  V30 37 1 12 34
M  V30 38 1 16 35
M  V30 39 1 17 36
M  V30 40 1 22 37
M  V30 41 1 23 38
M  V30 42 1 24 39
M  V30 43 1 27 40
M  V30 END BOND
M  V30 END CTAB
M  END
>  <Dataset>  (922) 
ChEMBL_Kinases

>  <Ligand_Instance>  (922) 
nan

>  <PDB_ID>  (922) 
nan

>  <Standardized_SMILES>  (922) 
NC(=O)c1ccc2[nH]c(-c3ccc(Oc4ccc(Cl)c(F)c4)cc3)nc2c1

>  <Name>  (922) 
nan

>  <Pocket>  (922) 
nan

>  <ATP_Site>  (922) 
nan

>  <Peripheral>  (922) 
nan

>  <Num_H_Atoms_ProtBoundConf>  (922) 
nan

>  <Num_Resolved_Atoms>  (922) 
nan

>  <Num_Not_Resolved_Atoms>  (922) 
nan

$$$$
CHEMBL3916234
     RDKit          3D

  0  0  0  0  0  0  0  0  0  0999 V3000
M  V30 BEGIN CTAB
M  V30 COUNTS 47 51 0 0 0
M  V30 BEGIN ATOM
M  V30 1 C 1.937287 -2.319746 1.485035 0
M  V30 2 C 2.594170 -2.127124 0.183359 0
M  V30 3 C 3.409977 -3.008747 -0.490505 0
M  V30 4 C 3.978240 -2.720704 -1.712631 0
M  V30 5 C 3.709635 -1.491240 -2.274345 0
M  V30 6 C 2.884222 -0.574551 -1.613213 0
M  V30 7 C 2.320944 -0.896138 -0.371883 0
M  V30 8 N 1.533332 0.206652 0.073388 0
M  V30 9 C 2.311807 1.121078 0.880360 0
M  V30 10 O 3.493798 1.198023 1.306181 0
M  V30 11 C 1.419308 2.233308 1.272446 0
M  V30 12 C 1.482951 3.402342 2.000127 0
M  V30 13 C 0.387686 4.227362 2.147557 0
M  V30 14 C -0.835285 3.920745 1.569339 0
M  V30 15 C -0.909986 2.752467 0.838665 0
M  V30 16 C 0.195677 1.939220 0.701856 0
M  V30 17 C 0.189989 0.659614 -0.066601 0
M  V30 18 O -0.031615 0.958698 -1.425553 0
M  V30 19 C -0.873039 -0.244500 0.344676 0
M  V30 20 C -1.856963 -0.719322 -0.532629 0
M  V30 21 C -2.892091 -1.561820 -0.245190 0
M  V30 22 C -2.984049 -2.001774 1.069080 0
M  V30 23 C -2.067362 -1.595819 2.014773 0
M  V30 24 C -1.054022 -0.742265 1.631763 0
M  V30 25 N -2.115226 -2.019871 3.383361 0
M  V30 26 C -3.189012 -2.899156 3.696245 0
M  V30 27 O -3.111242 -3.577105 4.765727 0
M  V30 28 C -4.379783 -3.036490 2.809504 0
M  V30 29 O -3.993161 -2.854394 1.460444 0
M  V30 30 H 1.904110 -1.428204 2.108818 0
M  V30 31 H 0.950610 -2.812163 1.337775 0
M  V30 32 H 2.521384 -3.079817 2.083532 0
M  V30 33 H 3.548081 -3.944989 0.052443 0
M  V30 34 H 4.609463 -3.467271 -2.180236 0
M  V30 35 H 4.174836 -1.306630 -3.231732 0
M  V30 36 H 2.776262 0.340986 -2.190450 0
M  V30 37 H 2.439957 3.633286 2.447251 0
M  V30 38 H 0.497715 5.144189 2.737714 0
M  V30 39 H -1.639442 4.624897 1.737226 0
M  V30 40 H -1.885663 2.565077 0.411929 0
M  V30 41 H 0.249659 0.202213 -2.005823 0
M  V30 42 H -1.773212 -0.362888 -1.572099 0
M  V30 43 H -3.591282 -1.859801 -1.007376 0
M  V30 44 H -0.320054 -0.413967 2.376997 0
M  V30 45 H -1.413642 -1.704707 4.091772 0
M  V30 46 H -5.150312 -2.281231 3.087409 0
M  V30 47 H -4.864574 -4.021992 2.935108 0
M  V30 END ATOM
M  V30 BEGIN BOND
M  V30 1 1 1 2
M  V30 2 2 2 3
M  V30 3 1 3 4
M  V30 4 2 4 5
M  V30 5 1 5 6
M  V30 6 2 6 7
M  V30 7 1 7 8
M  V30 8 1 8 9
M  V30 9 2 9 10
M  V30 10 1 9 11
M  V30 11 2 11 12
M  V30 12 1 12 13
M  V30 13 2 13 14
M  V30 14 1 14 15
M  V30 15 2 15 16
M  V30 16 1 16 17
M  V30 17 1 17 18
M  V30 18 1 17 19
M  V30 19 2 19 20
M  V30 20 1 20 21
M  V30 21 2 21 22
M  V30 22 1 22 23
M  V30 23 2 23 24
M  V30 24 1 23 25
M  V30 25 1 25 26
M  V30 26 2 26 27
M  V30 27 1 26 28
M  V30 28 1 28 29
M  V30 29 1 7 2
M  V30 30 1 17 8
M  V30 31 1 24 19
M  V30 32 1 16 11
M  V30 33 1 29 22
M  V30 34 1 1 30
M  V30 35 1 1 31
M  V30 36 1 1 32
M  V30 37 1 3 33
M  V30 38 1 4 34
M  V30 39 1 5 35
M  V30 40 1 6 36
M  V30 41 1 12 37
M  V30 42 1 13 38
M  V30 43 1 14 39
M  V30 44 1 15 40
M  V30 45 1 18 41
M  V30 46 1 20 42
M  V30 47 1 21 43
M  V30 48 1 24 44
M  V30 49 1 25 45
M  V30 50 1 28 46
M  V30 51 1 28 47
M  V30 END BOND
M  V30 END CTAB
M  END
>  <Dataset>  (923) 
ChEMBL_Kinases

>  <Ligand_Instance>  (923) 
nan

>  <PDB_ID>  (923) 
nan

>  <Standardized_SMILES>  (923) 
Cc1ccccc1N1C(=O)c2ccccc2C1(O)c1ccc2c(c1)NC(=O)CO2

>  <Name>  (923) 
nan

>  <Pocket>  (923) 
nan

>  <ATP_Site>  (923) 
nan

>  <Peripheral>  (923) 
nan

>  <Num_H_Atoms_ProtBoundConf>  (923) 
nan

>  <Num_Resolved_Atoms>  (923) 
nan

>  <Num_Not_Resolved_Atoms>  (923) 
nan

$$$$
CHEMBL3883539
     RDKit          3D

  0  0  0  0  0  0  0  0  0  0999 V3000
M  V30 BEGIN CTAB
M  V30 COUNTS 39 41 0 0 0
M  V30 BEGIN ATOM
M  V30 1 C -1.411036 -3.368198 2.279841 0
M  V30 2 C -1.549853 -3.233350 0.774709 0
M  V30 3 N -0.348273 -2.661290 0.166424 0
M  V30 4 C 0.728131 -3.466330 -0.290795 0
M  V30 5 O 0.811797 -4.713090 -0.256093 0
M  V30 6 C 1.797526 -2.605244 -0.843765 0
M  V30 7 C 2.111002 -2.936139 -2.282614 0
M  V30 8 C 3.018961 -2.814074 0.035429 0
M  V30 9 C 1.212596 -1.255214 -0.667195 0
M  V30 10 C 1.693840 0.021674 -0.989899 0
M  V30 11 N 0.981208 1.132575 -0.734377 0
M  V30 12 C -0.232518 1.087603 -0.155334 0
M  V30 13 N -1.187937 2.077245 0.208792 0
M  V30 14 C -0.963397 2.716087 1.468532 0
M  V30 15 C 0.189363 2.448819 2.196380 0
M  V30 16 C 0.487161 3.022105 3.427682 0
M  V30 17 C -0.446199 3.910924 3.930064 0
M  V30 18 C -1.610987 4.214582 3.249617 0
M  V30 19 C -1.856262 3.624037 2.043835 0
M  V30 20 N -0.731750 -0.145713 0.172509 0
M  V30 21 C -0.031710 -1.285297 -0.075042 0
M  V30 22 H -0.735420 -2.580777 2.673842 0
M  V30 23 H -0.962618 -4.349880 2.536268 0
M  V30 24 H -2.415314 -3.324134 2.739403 0
M  V30 25 H -2.433726 -2.603862 0.583307 0
M  V30 26 H -1.727820 -4.243876 0.359633 0
M  V30 27 H 1.197564 -3.301872 -2.754411 0
M  V30 28 H 2.535304 -2.008732 -2.734974 0
M  V30 29 H 2.884519 -3.725666 -2.256728 0
M  V30 30 H 3.240240 -3.867326 0.204436 0
M  V30 31 H 3.893500 -2.226665 -0.314805 0
M  V30 32 H 2.769295 -2.371791 1.031335 0
M  V30 33 H 2.640655 0.186583 -1.451461 0
M  V30 34 H -2.024994 2.383015 -0.335361 0
M  V30 35 H 0.927223 1.753883 1.810661 0
M  V30 36 H 1.427414 2.751260 3.933391 0
M  V30 37 H -0.197559 4.354619 4.899690 0
M  V30 38 H -2.328858 4.917671 3.669237 0
M  V30 39 H -2.764101 3.845032 1.493954 0
M  V30 END ATOM
M  V30 BEGIN BOND
M  V30 1 1 1 2
M  V30 2 1 2 3
M  V30 3 1 3 4
M  V30 4 2 4 5
M  V30 5 1 4 6
M  V30 6 1 6 7
M  V30 7 1 6 8
M  V30 8 1 6 9
M  V30 9 2 9 10
M  V30 10 1 10 11
M  V30 11 2 11 12
M  V30 12 1 12 13
M  V30 13 1 13 14
M  V30 14 2 14 15
M  V30 15 1 15 16
M  V30 16 2 16 17
M  V30 17 1 17 18
M  V30 18 2 18 19
M  V30 19 1 12 20
M  V30 20 2 20 21
M  V30 21 1 21 3
M  V30 22 1 21 9
M  V30 23 1 19 14
M  V30 24 1 1 22
M  V30 25 1 1 23
M  V30 26 1 1 24
M  V30 27 1 2 25
M  V30 28 1 2 26
M  V30 29 1 7 27
M  V30 30 1 7 28
M  V30 31 1 7 29
M  V30 32 1 8 30
M  V30 33 1 8 31
M  V30 34 1 8 32
M  V30 35 1 10 33
M  V30 36 1 13 34
M  V30 37 1 15 35
M  V30 38 1 16 36
M  V30 39 1 17 37
M  V30 40 1 18 38
M  V30 41 1 19 39
M  V30 END BOND
M  V30 END CTAB
M  END
>  <Dataset>  (924) 
ChEMBL_Kinases

>  <Ligand_Instance>  (924) 
nan

>  <PDB_ID>  (924) 
nan

>  <Standardized_SMILES>  (924) 
CCN1C(=O)C(C)(C)c2cnc(Nc3ccccc3)nc21

>  <Name>  (924) 
nan

>  <Pocket>  (924) 
nan

>  <ATP_Site>  (924) 
nan

>  <Peripheral>  (924) 
nan

>  <Num_H_Atoms_ProtBoundConf>  (924) 
nan

>  <Num_Resolved_Atoms>  (924) 
nan

>  <Num_Not_Resolved_Atoms>  (924) 
nan

$$$$
CHEMBL3916397
     RDKit          3D

  0  0  0  0  0  0  0  0  0  0999 V3000
M  V30 BEGIN CTAB
M  V30 COUNTS 47 50 0 0 0
M  V30 BEGIN ATOM
M  V30 1 N 5.196660 -4.824316 7.004800 0
M  V30 2 C 4.684400 -4.920905 5.668800 0
M  V30 3 O 4.889299 -6.120952 5.447367 0
M  V30 4 C 4.130204 -3.747488 5.003256 0
M  V30 5 C 4.103387 -2.542439 5.674220 0
M  V30 6 C 3.555674 -1.513172 4.936178 0
M  V30 7 C 3.066677 -1.614972 3.652126 0
M  V30 8 N 2.510058 -0.715002 2.812515 0
M  V30 9 C 2.214826 -1.382541 1.666026 0
M  V30 10 C 1.595550 -0.759390 0.499711 0
M  V30 11 C 1.291562 0.583696 0.560704 0
M  V30 12 C 0.701350 1.139375 -0.574364 0
M  V30 13 C 0.404426 0.435381 -1.746168 0
M  V30 14 S -0.331703 1.259892 -3.081482 0
M  V30 15 O 0.062529 0.568651 -4.358443 0
M  V30 16 O 0.073746 2.686902 -3.076542 0
M  V30 17 N -2.061557 1.208737 -2.987004 0
M  V30 18 C -2.541488 1.868819 -1.787454 0
M  V30 19 C -4.035364 1.821821 -1.711007 0
M  V30 20 C -4.720348 0.800308 -1.099382 0
M  V30 21 C -6.108563 0.765284 -1.033203 0
M  V30 22 C -6.789199 1.830439 -1.624731 0
M  V30 23 Cl -8.541137 1.799955 -1.549143 0
M  V30 24 C -6.136234 2.865776 -2.243256 0
M  V30 25 C -4.757752 2.866871 -2.289581 0
M  V30 26 C 0.744698 -0.900025 -1.711815 0
M  V30 27 C 1.330222 -1.514936 -0.624689 0
M  V30 28 N 2.588383 -2.672498 1.809412 0
M  V30 29 C 3.125711 -2.851507 3.042350 0
M  V30 30 C 3.660493 -3.928520 3.718906 0
M  V30 31 H 4.987996 -4.528198 7.977174 0
M  V30 32 H 6.116171 -5.079506 7.465623 0
M  V30 33 H 4.472032 -2.401702 6.681425 0
M  V30 34 H 3.493272 -0.522830 5.386849 0
M  V30 35 H 2.347611 0.284264 3.018600 0
M  V30 36 H 1.475975 1.225442 1.413426 0
M  V30 37 H 0.460024 2.183996 -0.539235 0
M  V30 38 H -2.501177 1.593858 -3.847246 0
M  V30 39 H -2.238576 2.949945 -1.824161 0
M  V30 40 H -2.105022 1.466827 -0.874767 0
M  V30 41 H -4.138660 -0.006192 -0.653676 0
M  V30 42 H -6.610153 -0.054653 -0.543858 0
M  V30 43 H -6.670788 3.704202 -2.708956 0
M  V30 44 H -4.191640 3.660871 -2.766137 0
M  V30 45 H 0.510731 -1.449827 -2.632071 0
M  V30 46 H 1.564998 -2.562833 -0.678296 0
M  V30 47 H 3.710785 -4.901177 3.248794 0
M  V30 END ATOM
M  V30 BEGIN BOND
M  V30 1 1 1 2
M  V30 2 2 2 3
M  V30 3 1 2 4
M  V30 4 2 4 5
M  V30 5 1 5 6
M  V30 6 2 6 7
M  V30 7 1 7 8
M  V30 8 1 8 9
M  V30 9 1 9 10
M  V30 10 2 10 11
M  V30 11 1 11 12
M  V30 12 2 12 13
M  V30 13 1 13 14
M  V30 14 2 14 15
M  V30 15 2 14 16
M  V30 16 1 14 17
M  V30 17 1 17 18
M  V30 18 1 18 19
M  V30 19 2 19 20
M  V30 20 1 20 21
M  V30 21 2 21 22
M  V30 22 1 22 23
M  V30 23 1 22 24
M  V30 24 2 24 25
M  V30 25 1 13 26
M  V30 26 2 26 27
M  V30 27 2 9 28
M  V30 28 1 28 29
M  V30 29 2 29 30
M  V30 30 1 30 4
M  V30 31 1 29 7
M  V30 32 1 27 10
M  V30 33 1 25 19
M  V30 34 1 1 31
M  V30 35 1 1 32
M  V30 36 1 5 33
M  V30 37 1 6 34
M  V30 38 1 8 35
M  V30 39 1 11 36
M  V30 40 1 12 37
M  V30 41 1 17 38
M  V30 42 1 18 39
M  V30 43 1 18 40
M  V30 44 1 20 41
M  V30 45 1 21 42
M  V30 46 1 24 43
M  V30 47 1 25 44
M  V30 48 1 26 45
M  V30 49 1 27 46
M  V30 50 1 30 47
M  V30 END BOND
M  V30 END CTAB
M  END
>  <Dataset>  (925) 
ChEMBL_Kinases

>  <Ligand_Instance>  (925) 
nan

>  <PDB_ID>  (925) 
nan

>  <Standardized_SMILES>  (925) 
NC(=O)c1ccc2[nH]c(-c3ccc(S(=O)(=O)NCc4ccc(Cl)cc4)cc3)nc2c1

>  <Name>  (925) 
nan

>  <Pocket>  (925) 
nan

>  <ATP_Site>  (925) 
nan

>  <Peripheral>  (925) 
nan

>  <Num_H_Atoms_ProtBoundConf>  (925) 
nan

>  <Num_Resolved_Atoms>  (925) 
nan

>  <Num_Not_Resolved_Atoms>  (925) 
nan

$$$$
CHEMBL3883458
     RDKit          3D

  0  0  0  0  0  0  0  0  0  0999 V3000
M  V30 BEGIN CTAB
M  V30 COUNTS 28 31 0 0 0
M  V30 BEGIN ATOM
M  V30 1 N -0.311247 -1.498270 4.812230 0
M  V30 2 C 0.062854 -1.499668 3.738896 0
M  V30 3 C 0.549568 -1.520246 2.392531 0
M  V30 4 C 1.515855 -2.454419 2.068318 0
M  V30 5 C 2.019812 -2.517028 0.782890 0
M  V30 6 C 2.984106 -3.446227 0.451320 0
M  V30 7 N 3.509725 -3.543794 -0.804533 0
M  V30 8 C 3.059270 -2.690237 -1.752559 0
M  V30 9 C 2.090720 -1.719550 -1.517822 0
M  V30 10 C 1.586922 -1.664371 -0.213312 0
M  V30 11 C 0.611707 -0.720661 0.111519 0
M  V30 12 N -0.004462 0.237438 -0.634584 0
M  V30 13 C -0.875899 0.890866 0.154818 0
M  V30 14 C -1.740298 1.950632 -0.144349 0
M  V30 15 C -2.558114 2.471848 0.838381 0
M  V30 16 C -2.475287 1.903983 2.093073 0
M  V30 17 Cl -3.517116 2.575938 3.324122 0
M  V30 18 C -1.630735 0.860029 2.407781 0
M  V30 19 C -0.816522 0.343782 1.422347 0
M  V30 20 C 0.117047 -0.668949 1.398835 0
M  V30 21 H 1.906290 -3.159182 2.797860 0
M  V30 22 H 3.351889 -4.136492 1.207885 0
M  V30 23 H 3.479867 -2.764858 -2.766569 0
M  V30 24 H 1.746662 -1.049040 -2.290724 0
M  V30 25 H 0.188798 0.415473 -1.658735 0
M  V30 26 H -1.768549 2.363185 -1.147738 0
M  V30 27 H -3.230408 3.289301 0.623545 0
M  V30 28 H -1.646847 0.497532 3.407183 0
M  V30 END ATOM
M  V30 BEGIN BOND
M  V30 1 3 1 2
M  V30 2 1 2 3
M  V30 3 2 3 4
M  V30 4 1 4 5
M  V30 5 2 5 6
M  V30 6 1 6 7
M  V30 7 2 7 8
M  V30 8 1 8 9
M  V30 9 2 9 10
M  V30 10 1 10 11
M  V30 11 1 11 12
M  V30 12 1 12 13
M  V30 13 2 13 14
M  V30 14 1 14 15
M  V30 15 2 15 16
M  V30 16 1 16 17
M  V30 17 1 16 18
M  V30 18 2 18 19
M  V30 19 1 19 20
M  V30 20 1 20 3
M  V30 21 1 10 5
M  V30 22 2 20 11
M  V30 23 1 19 13
M  V30 24 1 4 21
M  V30 25 1 6 22
M  V30 26 1 8 23
M  V30 27 1 9 24
M  V30 28 1 12 25
M  V30 29 1 14 26
M  V30 30 1 15 27
M  V30 31 1 18 28
M  V30 END BOND
M  V30 END CTAB
M  END
>  <Dataset>  (926) 
ChEMBL_Kinases

>  <Ligand_Instance>  (926) 
nan

>  <PDB_ID>  (926) 
nan

>  <Standardized_SMILES>  (926) 
N#Cc1cc2cnccc2c2[nH]c3ccc(Cl)cc3c12

>  <Name>  (926) 
nan

>  <Pocket>  (926) 
nan

>  <ATP_Site>  (926) 
nan

>  <Peripheral>  (926) 
nan

>  <Num_H_Atoms_ProtBoundConf>  (926) 
nan

>  <Num_Resolved_Atoms>  (926) 
nan

>  <Num_Not_Resolved_Atoms>  (926) 
nan

$$$$
CHEMBL3884179
     RDKit          3D

  0  0  0  0  0  0  0  0  0  0999 V3000
M  V30 BEGIN CTAB
M  V30 COUNTS 48 51 0 0 0
M  V30 BEGIN ATOM
M  V30 1 C 1.693785 1.299725 -2.145544 0
M  V30 2 C 1.570754 0.110789 -1.218717 0 CFG=1
M  V30 3 C 2.828308 -0.554606 -0.901842 0
M  V30 4 C 4.065582 -0.209549 -1.398183 0
M  V30 5 C 5.209086 -0.889830 -1.069751 0
M  V30 6 C 5.230411 -1.983620 -0.213986 0
M  V30 7 F 6.330627 -2.677104 0.130536 0
M  V30 8 C 3.952017 -2.306028 0.272645 0
M  V30 9 C 2.795613 -1.634280 -0.045539 0
M  V30 10 N 0.834867 0.519998 -0.046572 0
M  V30 11 C 1.412940 1.457340 0.857127 0
M  V30 12 O 2.488836 2.075570 0.964093 0
M  V30 13 C 0.479764 1.786875 1.978142 0
M  V30 14 C 0.089865 3.248966 1.943850 0
M  V30 15 C 1.158489 1.396918 3.255727 0
M  V30 16 C -0.680514 0.917405 1.646436 0
M  V30 17 C -1.881024 0.753206 2.301938 0
M  V30 18 N -2.794736 -0.097412 1.769149 0
M  V30 19 C -2.558385 -0.781859 0.622890 0
M  V30 20 N -3.663777 -1.587435 0.255392 0
M  V30 21 C -4.167585 -2.759819 0.880899 0
M  V30 22 C -3.591252 -3.157564 2.072780 0
M  V30 23 C -4.192194 -4.317043 2.577663 0
M  V30 24 C -5.223967 -4.958148 1.944254 0
M  V30 25 N -5.741894 -4.511261 0.772978 0
M  V30 26 C -5.205510 -3.381844 0.218821 0
M  V30 27 N -1.371699 -0.619467 -0.023026 0
M  V30 28 C -0.435888 0.223569 0.481038 0
M  V30 29 H 2.002622 2.215898 -1.581434 0
M  V30 30 H 0.684750 1.578396 -2.559389 0
M  V30 31 H 2.398811 1.070125 -2.939086 0
M  V30 32 H 0.950099 -0.635422 -1.805672 0
M  V30 33 H 4.133528 0.629316 -2.067412 0
M  V30 34 H 6.159394 -0.580410 -1.483082 0
M  V30 35 H 3.905329 -3.159954 0.952101 0
M  V30 36 H 1.873212 -2.002487 0.407332 0
M  V30 37 H 0.884113 3.827520 2.412508 0
M  V30 38 H -0.083503 3.526460 0.877665 0
M  V30 39 H -0.860019 3.356977 2.506345 0
M  V30 40 H 0.535645 1.497079 4.147087 0
M  V30 41 H 2.135845 1.932124 3.305177 0
M  V30 42 H 1.456554 0.313930 3.145547 0
M  V30 43 H -2.049686 1.311553 3.223100 0
M  V30 44 H -4.073101 -1.148577 -0.604909 0
M  V30 45 H -2.793336 -2.668565 2.573753 0
M  V30 46 H -3.854255 -4.756895 3.513247 0
M  V30 47 H -5.706127 -5.850303 2.310683 0
M  V30 48 H -5.588369 -2.987471 -0.722032 0
M  V30 END ATOM
M  V30 BEGIN BOND
M  V30 1 1 1 2
M  V30 2 1 2 3
M  V30 3 2 3 4
M  V30 4 1 4 5
M  V30 5 2 5 6
M  V30 6 1 6 7
M  V30 7 1 6 8
M  V30 8 2 8 9
M  V30 9 1 2 10
M  V30 10 1 10 11
M  V30 11 2 11 12
M  V30 12 1 11 13
M  V30 13 1 13 14
M  V30 14 1 13 15
M  V30 15 1 13 16
M  V30 16 2 16 17
M  V30 17 1 17 18
M  V30 18 2 18 19
M  V30 19 1 19 20
M  V30 20 1 20 21
M  V30 21 2 21 22
M  V30 22 1 22 23
M  V30 23 2 23 24
M  V30 24 1 24 25
M  V30 25 2 25 26
M  V30 26 1 19 27
M  V30 27 2 27 28
M  V30 28 1 9 3
M  V30 29 1 28 10
M  V30 30 1 28 16
M  V30 31 1 26 21
M  V30 32 1 1 29
M  V30 33 1 1 30
M  V30 34 1 1 31
M  V30 35 1 2 32 CFG=3
M  V30 36 1 4 33
M  V30 37 1 5 34
M  V30 38 1 8 35
M  V30 39 1 9 36
M  V30 40 1 14 37
M  V30 41 1 14 38
M  V30 42 1 14 39
M  V30 43 1 15 40
M  V30 44 1 15 41
M  V30 45 1 15 42
M  V30 46 1 17 43
M  V30 47 1 20 44
M  V30 48 1 22 45
M  V30 49 1 23 46
M  V30 50 1 24 47
M  V30 51 1 26 48
M  V30 END BOND
M  V30 END CTAB
M  END
>  <Dataset>  (927) 
ChEMBL_Kinases

>  <Ligand_Instance>  (927) 
nan

>  <PDB_ID>  (927) 
nan

>  <Standardized_SMILES>  (927) 
C[C@@H](c1ccc(F)cc1)N1C(=O)C(C)(C)c2cnc(Nc3cccnc3)nc21

>  <Name>  (927) 
nan

>  <Pocket>  (927) 
nan

>  <ATP_Site>  (927) 
nan

>  <Peripheral>  (927) 
nan

>  <Num_H_Atoms_ProtBoundConf>  (927) 
nan

>  <Num_Resolved_Atoms>  (927) 
nan

>  <Num_Not_Resolved_Atoms>  (927) 
nan

$$$$
CHEMBL491953
     RDKit          3D

  0  0  0  0  0  0  0  0  0  0999 V3000
M  V30 BEGIN CTAB
M  V30 COUNTS 45 48 0 0 0
M  V30 BEGIN ATOM
M  V30 1 C -2.427112 -3.990838 0.023124 0
M  V30 2 O -1.773219 -2.872807 -0.560985 0
M  V30 3 C -1.109205 -3.018257 -1.751696 0
M  V30 4 C -0.977926 -4.163174 -2.507861 0
M  V30 5 C -0.277402 -4.171359 -3.696267 0
M  V30 6 C 0.326742 -3.029141 -4.184962 0
M  V30 7 C 0.201127 -1.867850 -3.430735 0
M  V30 8 C -0.507363 -1.851720 -2.225152 0
M  V30 9 C -0.559754 -0.557383 -1.532708 0
M  V30 10 C -0.839397 0.546877 -2.327791 0
M  V30 11 C -0.891023 1.753439 -1.698675 0
M  V30 12 C -0.679441 1.885529 -0.348344 0
M  V30 13 N -0.749433 3.119298 0.193358 0
M  V30 14 C -0.539219 3.235054 1.522892 0
M  V30 15 N -0.273580 2.156263 2.255195 0
M  V30 16 C -0.183766 0.895055 1.809178 0
M  V30 17 N 0.099391 -0.226575 2.631672 0
M  V30 18 C 0.336888 -0.181129 4.056743 0
M  V30 19 C 1.534963 0.629623 4.402507 0
M  V30 20 C 1.666748 1.952882 4.755836 0
M  V30 21 C 2.921049 2.458475 5.015970 0
M  V30 22 C 4.072120 1.712881 4.944621 0
M  V30 23 C 3.963308 0.393996 4.595213 0
M  V30 24 C 2.709310 -0.131730 4.329751 0
M  V30 25 C -0.401949 0.813278 0.458848 0
M  V30 26 C -0.353558 -0.397862 -0.192936 0
M  V30 27 H -3.048633 -4.551987 -0.704089 0
M  V30 28 H -1.671630 -4.693137 0.434072 0
M  V30 29 H -3.101998 -3.708589 0.846509 0
M  V30 30 H -1.472934 -5.035099 -2.077610 0
M  V30 31 H -0.222375 -5.113918 -4.229079 0
M  V30 32 H 0.877621 -3.031892 -5.117782 0
M  V30 33 H 0.679630 -0.981058 -3.826139 0
M  V30 34 H -1.016281 0.518988 -3.392833 0
M  V30 35 H -1.106065 2.643394 -2.278542 0
M  V30 36 H -0.559739 4.154124 2.112905 0
M  V30 37 H 0.149177 -1.174338 2.211220 0
M  V30 38 H -0.559863 0.259626 4.593185 0
M  V30 39 H 0.406367 -1.202945 4.450518 0
M  V30 40 H 0.733701 2.465883 4.797925 0
M  V30 41 H 2.959968 3.505721 5.288483 0
M  V30 42 H 5.013762 2.176226 5.161384 0
M  V30 43 H 4.870105 -0.170929 4.544920 0
M  V30 44 H 2.756267 -1.195553 4.061960 0
M  V30 45 H -0.146545 -1.330344 0.306337 0
M  V30 END ATOM
M  V30 BEGIN BOND
M  V30 1 1 1 2
M  V30 2 1 2 3
M  V30 3 2 3 4
M  V30 4 1 4 5
M  V30 5 2 5 6
M  V30 6 1 6 7
M  V30 7 2 7 8
M  V30 8 1 8 9
M  V30 9 2 9 10
M  V30 10 1 10 11
M  V30 11 2 11 12
M  V30 12 1 12 13
M  V30 13 2 13 14
M  V30 14 1 14 15
M  V30 15 2 15 16
M  V30 16 1 16 17
M  V30 17 1 17 18
M  V30 18 1 18 19
M  V30 19 2 19 20
M  V30 20 1 20 21
M  V30 21 2 21 22
M  V30 22 1 22 23
M  V30 23 2 23 24
M  V30 24 1 16 25
M  V30 25 2 25 26
M  V30 26 1 8 3
M  V30 27 1 26 9
M  V30 28 1 25 12
M  V30 29 1 24 19
M  V30 30 1 1 27
M  V30 31 1 1 28
M  V30 32 1 1 29
M  V30 33 1 4 30
M  V30 34 1 5 31
M  V30 35 1 6 32
M  V30 36 1 7 33
M  V30 37 1 10 34
M  V30 38 1 11 35
M  V30 39 1 14 36
M  V30 40 1 17 37
M  V30 41 1 18 38
M  V30 42 1 18 39
M  V30 43 1 20 40
M  V30 44 1 21 41
M  V30 45 1 22 42
M  V30 46 1 23 43
M  V30 47 1 24 44
M  V30 48 1 26 45
M  V30 END BOND
M  V30 END CTAB
M  END
>  <Dataset>  (928) 
ChEMBL_Kinases

>  <Ligand_Instance>  (928) 
nan

>  <PDB_ID>  (928) 
nan

>  <Standardized_SMILES>  (928) 
COc1ccccc1-c1ccc2ncnc(NCc3ccccc3)c2c1

>  <Name>  (928) 
nan

>  <Pocket>  (928) 
nan

>  <ATP_Site>  (928) 
nan

>  <Peripheral>  (928) 
nan

>  <Num_H_Atoms_ProtBoundConf>  (928) 
nan

>  <Num_Resolved_Atoms>  (928) 
nan

>  <Num_Not_Resolved_Atoms>  (928) 
nan

$$$$
CHEMBL491978
     RDKit          3D

  0  0  0  0  0  0  0  0  0  0999 V3000
M  V30 BEGIN CTAB
M  V30 COUNTS 53 55 0 0 0
M  V30 BEGIN ATOM
M  V30 1 C -2.444716 -1.645723 -5.045345 0
M  V30 2 O -1.328264 -2.172546 -4.401953 0
M  V30 3 C -0.475625 -1.383101 -3.654778 0
M  V30 4 C -0.616519 -0.026758 -3.461372 0
M  V30 5 C 0.252228 0.737816 -2.708294 0
M  V30 6 C 1.326949 0.103330 -2.113940 0
M  V30 7 C 2.225903 0.939529 -1.305340 0
M  V30 8 N 2.018667 0.831987 0.123328 0
M  V30 9 C 2.586209 1.391552 1.292015 0
M  V30 10 N 3.650193 2.215647 1.104346 0
M  V30 11 C 4.297529 2.766397 2.177286 0
M  V30 12 N 3.814402 2.439176 3.367184 0
M  V30 13 C 2.791126 1.648795 3.607342 0
M  V30 14 C 2.109043 1.071947 2.546069 0
M  V30 15 C 0.953872 0.226811 2.807631 0
M  V30 16 C -0.285321 0.402269 2.206780 0
M  V30 17 C -1.370583 -0.412802 2.469437 0
M  V30 18 C -1.230002 -1.465892 3.379240 0
M  V30 19 C -2.401045 -2.296006 3.623676 0
M  V30 20 O -2.032752 -3.518615 3.613263 0
M  V30 21 N -3.739576 -1.883168 3.841844 0
M  V30 22 C -4.246851 -0.508148 3.874112 0
M  V30 23 C -4.721124 -2.925284 4.060485 0
M  V30 24 C 0.004331 -1.639870 3.976228 0
M  V30 25 C 1.092897 -0.821134 3.711736 0
M  V30 26 C 1.509502 -1.264398 -2.281116 0
M  V30 27 O 2.624403 -1.761558 -1.630945 0
M  V30 28 C 2.947348 -3.131621 -1.707757 0
M  V30 29 C 0.624207 -1.977587 -3.033974 0
M  V30 30 H -2.941852 -0.867490 -4.408505 0
M  V30 31 H -2.177827 -1.270802 -6.052386 0
M  V30 32 H -3.222735 -2.438046 -5.238045 0
M  V30 33 H -1.468014 0.458514 -3.940839 0
M  V30 34 H 0.097271 1.782115 -2.590022 0
M  V30 35 H 2.237946 2.007778 -1.657759 0
M  V30 36 H 3.270132 0.555915 -1.540163 0
M  V30 37 H 1.232925 0.134898 0.297333 0
M  V30 38 H 5.140068 3.423935 2.193656 0
M  V30 39 H 2.436948 1.413385 4.600962 0
M  V30 40 H -0.444898 1.211021 1.506456 0
M  V30 41 H -2.295267 -0.226501 1.972867 0
M  V30 42 H -5.194881 -0.450863 4.447699 0
M  V30 43 H -3.544209 0.176183 4.388898 0
M  V30 44 H -4.521475 -0.171929 2.847056 0
M  V30 45 H -4.258728 -3.908521 4.302410 0
M  V30 46 H -5.508693 -2.631801 4.786278 0
M  V30 47 H -5.289942 -3.108881 3.106499 0
M  V30 48 H 0.077127 -2.467022 4.677842 0
M  V30 49 H 2.021611 -1.029059 4.225367 0
M  V30 50 H 3.554090 -3.459514 -0.826605 0
M  V30 51 H 2.057863 -3.770152 -1.709015 0
M  V30 52 H 3.589219 -3.287397 -2.623558 0
M  V30 53 H 0.802959 -3.030795 -3.136010 0
M  V30 END ATOM
M  V30 BEGIN BOND
M  V30 1 1 1 2
M  V30 2 1 2 3
M  V30 3 2 3 4
M  V30 4 1 4 5
M  V30 5 2 5 6
M  V30 6 1 6 7
M  V30 7 1 7 8
M  V30 8 1 8 9
M  V30 9 2 9 10
M  V30 10 1 10 11
M  V30 11 2 11 12
M  V30 12 1 12 13
M  V30 13 2 13 14
M  V30 14 1 14 15
M  V30 15 2 15 16
M  V30 16 1 16 17
M  V30 17 2 17 18
M  V30 18 1 18 19
M  V30 19 2 19 20
M  V30 20 1 19 21
M  V30 21 1 21 22
M  V30 22 1 21 23
M  V30 23 1 18 24
M  V30 24 2 24 25
M  V30 25 1 6 26
M  V30 26 1 26 27
M  V30 27 1 27 28
M  V30 28 2 26 29
M  V30 29 1 29 3
M  V30 30 1 14 9
M  V30 31 1 25 15
M  V30 32 1 1 30
M  V30 33 1 1 31
M  V30 34 1 1 32
M  V30 35 1 4 33
M  V30 36 1 5 34
M  V30 37 1 7 35
M  V30 38 1 7 36
M  V30 39 1 8 37
M  V30 40 1 11 38
M  V30 41 1 13 39
M  V30 42 1 16 40
M  V30 43 1 17 41
M  V30 44 1 22 42
M  V30 45 1 22 43
M  V30 46 1 22 44
M  V30 47 1 23 45
M  V30 48 1 23 46
M  V30 49 1 23 47
M  V30 50 1 24 48
M  V30 51 1 25 49
M  V30 52 1 28 50
M  V30 53 1 28 51
M  V30 54 1 28 52
M  V30 55 1 29 53
M  V30 END BOND
M  V30 END CTAB
M  END
>  <Dataset>  (929) 
ChEMBL_Kinases

>  <Ligand_Instance>  (929) 
nan

>  <PDB_ID>  (929) 
nan

>  <Standardized_SMILES>  (929) 
COc1ccc(CNc2ncncc2-c2ccc(C(=O)N(C)C)cc2)c(OC)c1

>  <Name>  (929) 
nan

>  <Pocket>  (929) 
nan

>  <ATP_Site>  (929) 
nan

>  <Peripheral>  (929) 
nan

>  <Num_H_Atoms_ProtBoundConf>  (929) 
nan

>  <Num_Resolved_Atoms>  (929) 
nan

>  <Num_Not_Resolved_Atoms>  (929) 
nan

$$$$
CHEMBL609582
     RDKit          3D

  0  0  0  0  0  0  0  0  0  0999 V3000
M  V30 BEGIN CTAB
M  V30 COUNTS 37 40 0 0 0
M  V30 BEGIN ATOM
M  V30 1 C 1.773508 -3.314961 1.802630 0
M  V30 2 N 0.558502 -2.563635 2.038341 0
M  V30 3 C 0.299422 -1.390093 1.417699 0
M  V30 4 C 1.060729 -0.605532 0.437906 0
M  V30 5 C 2.337086 -0.105465 0.618713 0
M  V30 6 C 2.958759 0.628752 -0.373816 0
M  V30 7 C 2.250089 0.838509 -1.547281 0
M  V30 8 N 2.829608 1.560673 -2.550888 0
M  V30 9 C 2.156307 1.777832 -3.701406 0
M  V30 10 C 0.880203 1.285106 -3.898151 0
M  V30 11 N 0.305977 0.571828 -2.908685 0
M  V30 12 C 0.970322 0.341983 -1.739512 0
M  V30 13 C 0.350008 -0.397658 -0.734290 0
M  V30 14 C -0.946240 -0.964179 1.892892 0
M  V30 15 C -1.639344 0.261627 1.499744 0
M  V30 16 C -1.180785 1.532433 1.690504 0
M  V30 17 C -2.175701 2.332658 1.158268 0
M  V30 18 O -3.167533 1.631298 0.677568 0
M  V30 19 C -2.865756 0.356089 0.873411 0
M  V30 20 C -1.419518 -1.895290 2.798145 0
M  V30 21 O -2.497188 -1.864744 3.433405 0
M  V30 22 N -0.455399 -2.836610 2.835932 0
M  V30 23 C -0.549341 -4.020854 3.678088 0
M  V30 24 H 2.458351 -3.262203 2.688145 0
M  V30 25 H 1.537026 -4.409691 1.698859 0
M  V30 26 H 2.266579 -3.008630 0.880869 0
M  V30 27 H 2.783876 -0.339510 1.580828 0
M  V30 28 H 3.957113 1.005515 -0.201334 0
M  V30 29 H 2.689519 2.362308 -4.450594 0
M  V30 30 H 0.369956 1.482720 -4.842351 0
M  V30 31 H -0.632210 -0.748427 -0.947676 0
M  V30 32 H -0.243363 1.801503 2.157868 0
M  V30 33 H -2.111106 3.427736 1.154947 0
M  V30 34 H -3.517979 -0.441751 0.568733 0
M  V30 35 H -0.551440 -3.712442 4.745723 0
M  V30 36 H 0.268055 -4.728375 3.505707 0
M  V30 37 H -1.510444 -4.544945 3.504028 0
M  V30 END ATOM
M  V30 BEGIN BOND
M  V30 1 1 1 2
M  V30 2 1 2 3
M  V30 3 1 3 4
M  V30 4 2 4 5
M  V30 5 1 5 6
M  V30 6 2 6 7
M  V30 7 1 7 8
M  V30 8 2 8 9
M  V30 9 1 9 10
M  V30 10 2 10 11
M  V30 11 1 11 12
M  V30 12 2 12 13
M  V30 13 2 3 14
M  V30 14 1 14 15
M  V30 15 1 15 16
M  V30 16 2 16 17
M  V30 17 1 17 18
M  V30 18 1 18 19
M  V30 19 1 14 20
M  V30 20 2 20 21
M  V30 21 1 20 22
M  V30 22 1 22 23
M  V30 23 1 22 2
M  V30 24 1 13 4
M  V30 25 2 19 15
M  V30 26 1 12 7
M  V30 27 1 1 24
M  V30 28 1 1 25
M  V30 29 1 1 26
M  V30 30 1 5 27
M  V30 31 1 6 28
M  V30 32 1 9 29
M  V30 33 1 10 30
M  V30 34 1 13 31
M  V30 35 1 16 32
M  V30 36 1 17 33
M  V30 37 1 19 34
M  V30 38 1 23 35
M  V30 39 1 23 36
M  V30 40 1 23 37
M  V30 END BOND
M  V30 END CTAB
M  END
>  <Dataset>  (930) 
ChEMBL_Kinases

>  <Ligand_Instance>  (930) 
nan

>  <PDB_ID>  (930) 
nan

>  <Standardized_SMILES>  (930) 
Cn1c(-c2ccc3nccnc3c2)c(-c2ccoc2)c(=O)n1C

>  <Name>  (930) 
nan

>  <Pocket>  (930) 
nan

>  <ATP_Site>  (930) 
nan

>  <Peripheral>  (930) 
nan

>  <Num_H_Atoms_ProtBoundConf>  (930) 
nan

>  <Num_Resolved_Atoms>  (930) 
nan

>  <Num_Not_Resolved_Atoms>  (930) 
nan

$$$$
CHEMBL597321
     RDKit          3D

  0  0  0  0  0  0  0  0  0  0999 V3000
M  V30 BEGIN CTAB
M  V30 COUNTS 50 51 0 0 0
M  V30 BEGIN ATOM
M  V30 1 C 4.788611 -4.015941 3.811440 0
M  V30 2 C 5.543625 -4.465671 2.601890 0
M  V30 3 C 4.797540 -4.443097 1.309905 0
M  V30 4 N 4.321071 -3.194498 0.843729 0
M  V30 5 C 3.434178 -2.152876 1.201037 0
M  V30 6 O 2.847623 -2.382229 2.290330 0
M  V30 7 C 3.182170 -0.934448 0.449525 0
M  V30 8 C 3.731915 -0.605676 -0.769469 0
M  V30 9 C 3.488663 0.560853 -1.462293 0
M  V30 10 C 2.609674 1.465654 -0.856149 0
M  V30 11 C 2.053975 1.138384 0.371438 0
M  V30 12 C 1.155291 2.204880 0.876386 0
M  V30 13 N -0.187613 2.017329 0.420192 0
M  V30 14 C -1.158943 1.100113 0.898490 0
M  V30 15 O -0.818297 0.350682 1.839618 0
M  V30 16 C -2.493035 0.992011 0.364380 0
M  V30 17 C -2.871532 1.782784 -0.700482 0
M  V30 18 C -4.142397 1.709728 -1.234775 0
M  V30 19 C -5.091439 0.845784 -0.731479 0
M  V30 20 O -6.384263 0.739134 -1.239122 0
M  V30 21 C -6.706877 1.583020 -2.340873 0
M  V30 22 C -4.688447 0.060177 0.339481 0
M  V30 23 O -5.637028 -0.817301 0.858756 0
M  V30 24 C -5.301803 -1.659632 1.962338 0
M  V30 25 C -3.413212 0.114147 0.897082 0
M  V30 26 C 2.325282 -0.033984 1.022585 0
M  V30 27 H 4.844670 -2.913777 3.984014 0
M  V30 28 H 5.268185 -4.534502 4.698588 0
M  V30 29 H 3.749028 -4.383129 3.827946 0
M  V30 30 H 5.942012 -5.505423 2.805985 0
M  V30 31 H 6.478561 -3.819555 2.539310 0
M  V30 32 H 5.457800 -4.897897 0.521058 0
M  V30 33 H 3.970757 -5.211241 1.395608 0
M  V30 34 H 4.756351 -2.902336 -0.094543 0
M  V30 35 H 4.409221 -1.301470 -1.238587 0
M  V30 36 H 3.967668 0.738268 -2.421060 0
M  V30 37 H 2.427870 2.380024 -1.412814 0
M  V30 38 H 1.547352 3.215300 0.736438 0
M  V30 39 H 1.121731 2.039757 1.997196 0
M  V30 40 H -0.424250 2.661103 -0.361562 0
M  V30 41 H -2.251287 2.502840 -1.202444 0
M  V30 42 H -4.478432 2.317889 -2.075980 0
M  V30 43 H -7.717030 1.386790 -2.739345 0
M  V30 44 H -6.001190 1.395889 -3.192041 0
M  V30 45 H -6.609051 2.657419 -2.112298 0
M  V30 46 H -4.837797 -1.074406 2.779233 0
M  V30 47 H -4.595703 -2.463479 1.692711 0
M  V30 48 H -6.229407 -2.156588 2.327571 0
M  V30 49 H -3.143070 -0.513258 1.727106 0
M  V30 50 H 1.862799 -0.218988 1.963215 0
M  V30 END ATOM
M  V30 BEGIN BOND
M  V30 1 1 1 2
M  V30 2 1 2 3
M  V30 3 1 3 4
M  V30 4 1 4 5
M  V30 5 2 5 6
M  V30 6 1 5 7
M  V30 7 2 7 8
M  V30 8 1 8 9
M  V30 9 2 9 10
M  V30 10 1 10 11
M  V30 11 1 11 12
M  V30 12 1 12 13
M  V30 13 1 13 14
M  V30 14 2 14 15
M  V30 15 1 14 16
M  V30 16 2 16 17
M  V30 17 1 17 18
M  V30 18 2 18 19
M  V30 19 1 19 20
M  V30 20 1 20 21
M  V30 21 1 19 22
M  V30 22 1 22 23
M  V30 23 1 23 24
M  V30 24 2 22 25
M  V30 25 2 11 26
M  V30 26 1 26 7
M  V30 27 1 25 16
M  V30 28 1 1 27
M  V30 29 1 1 28
M  V30 30 1 1 29
M  V30 31 1 2 30
M  V30 32 1 2 31
M  V30 33 1 3 32
M  V30 34 1 3 33
M  V30 35 1 4 34
M  V30 36 1 8 35
M  V30 37 1 9 36
M  V30 38 1 10 37
M  V30 39 1 12 38
M  V30 40 1 12 39
M  V30 41 1 13 40
M  V30 42 1 17 41
M  V30 43 1 18 42
M  V30 44 1 21 43
M  V30 45 1 21 44
M  V30 46 1 21 45
M  V30 47 1 24 46
M  V30 48 1 24 47
M  V30 49 1 24 48
M  V30 50 1 25 49
M  V30 51 1 26 50
M  V30 END BOND
M  V30 END CTAB
M  END
>  <Dataset>  (931) 
ChEMBL_Kinases

>  <Ligand_Instance>  (931) 
nan

>  <PDB_ID>  (931) 
nan

>  <Standardized_SMILES>  (931) 
CCCNC(=O)c1cccc(CNC(=O)c2ccc(OC)c(OC)c2)c1

>  <Name>  (931) 
nan

>  <Pocket>  (931) 
nan

>  <ATP_Site>  (931) 
nan

>  <Peripheral>  (931) 
nan

>  <Num_H_Atoms_ProtBoundConf>  (931) 
nan

>  <Num_Resolved_Atoms>  (931) 
nan

>  <Num_Not_Resolved_Atoms>  (931) 
nan

$$$$
CHEMBL3883412
     RDKit          3D

  0  0  0  0  0  0  0  0  0  0999 V3000
M  V30 BEGIN CTAB
M  V30 COUNTS 48 50 0 0 0
M  V30 BEGIN ATOM
M  V30 1 C -0.764581 -4.403125 1.291796 0
M  V30 2 C 0.376873 -3.417520 1.410364 0
M  V30 3 C 0.201353 -2.658681 2.704466 0
M  V30 4 C 0.361546 -2.454574 0.243988 0 CFG=2
M  V30 5 C 0.505064 -3.178675 -1.075872 0
M  V30 6 N 1.311232 -1.379161 0.418076 0
M  V30 7 C 2.726775 -1.440530 0.488522 0
M  V30 8 O 3.341974 -2.547391 0.396432 0
M  V30 9 C 3.323775 -0.084491 0.675210 0
M  V30 10 C 4.165494 0.176480 -0.572359 0
M  V30 11 C 4.143980 0.013947 1.923541 0
M  V30 12 C 2.120791 0.790499 0.708761 0
M  V30 13 C 1.950651 2.149329 0.853762 0
M  V30 14 N 0.711166 2.652264 0.843080 0
M  V30 15 C -0.414241 1.941317 0.700790 0
M  V30 16 N -1.674775 2.589940 0.705495 0
M  V30 17 C -2.955355 2.003423 0.568961 0
M  V30 18 C -3.228871 0.665882 0.402328 0
M  V30 19 C -4.478377 0.106490 0.270572 0
M  V30 20 C -5.566080 0.952963 0.307087 0
M  V30 21 C -5.352496 2.303158 0.471876 0
M  V30 22 C -4.076822 2.801823 0.598178 0
M  V30 23 N -0.202136 0.625977 0.563021 0
M  V30 24 C 0.990693 0.019080 0.559345 0
M  V30 25 H -1.473724 -4.318068 2.154199 0
M  V30 26 H -1.393916 -4.200153 0.394041 0
M  V30 27 H -0.330023 -5.434953 1.230750 0
M  V30 28 H 1.353278 -3.938537 1.444564 0
M  V30 29 H 1.143376 -2.547109 3.272840 0
M  V30 30 H -0.199197 -1.620208 2.535209 0
M  V30 31 H -0.539413 -3.147424 3.381259 0
M  V30 32 H -0.674950 -2.027506 0.235828 0
M  V30 33 H -0.465086 -3.470735 -1.520163 0
M  V30 34 H 0.923708 -2.411407 -1.788801 0
M  V30 35 H 1.239047 -3.990908 -1.064547 0
M  V30 36 H 5.174310 0.553500 -0.253043 0
M  V30 37 H 4.386495 -0.765674 -1.127108 0
M  V30 38 H 3.675215 0.852989 -1.281765 0
M  V30 39 H 3.872495 -0.764258 2.674843 0
M  V30 40 H 5.210666 -0.067705 1.662119 0
M  V30 41 H 4.013021 1.040211 2.345318 0
M  V30 42 H 2.809546 2.806575 0.975378 0
M  V30 43 H -1.652098 3.636663 0.825501 0
M  V30 44 H -2.416469 -0.034332 0.367351 0
M  V30 45 H -4.619440 -0.956184 0.142358 0
M  V30 46 H -6.566976 0.569860 0.208909 0
M  V30 47 H -6.221109 2.948092 0.497519 0
M  V30 48 H -4.022362 3.891636 0.724746 0
M  V30 END ATOM
M  V30 BEGIN BOND
M  V30 1 1 1 2
M  V30 2 1 2 3
M  V30 3 1 2 4
M  V30 4 1 4 5
M  V30 5 1 4 6
M  V30 6 1 6 7
M  V30 7 2 7 8
M  V30 8 1 7 9
M  V30 9 1 9 10
M  V30 10 1 9 11
M  V30 11 1 9 12
M  V30 12 2 12 13
M  V30 13 1 13 14
M  V30 14 2 14 15
M  V30 15 1 15 16
M  V30 16 1 16 17
M  V30 17 2 17 18
M  V30 18 1 18 19
M  V30 19 2 19 20
M  V30 20 1 20 21
M  V30 21 2 21 22
M  V30 22 1 15 23
M  V30 23 2 23 24
M  V30 24 1 24 6
M  V30 25 1 24 12
M  V30 26 1 22 17
M  V30 27 1 1 25
M  V30 28 1 1 26
M  V30 29 1 1 27
M  V30 30 1 2 28
M  V30 31 1 3 29
M  V30 32 1 3 30
M  V30 33 1 3 31
M  V30 34 1 4 32 CFG=3
M  V30 35 1 5 33
M  V30 36 1 5 34
M  V30 37 1 5 35
M  V30 38 1 10 36
M  V30 39 1 10 37
M  V30 40 1 10 38
M  V30 41 1 11 39
M  V30 42 1 11 40
M  V30 43 1 11 41
M  V30 44 1 13 42
M  V30 45 1 16 43
M  V30 46 1 18 44
M  V30 47 1 19 45
M  V30 48 1 20 46
M  V30 49 1 21 47
M  V30 50 1 22 48
M  V30 END BOND
M  V30 END CTAB
M  END
>  <Dataset>  (932) 
ChEMBL_Kinases

>  <Ligand_Instance>  (932) 
nan

>  <PDB_ID>  (932) 
nan

>  <Standardized_SMILES>  (932) 
CC(C)[C@H](C)N1C(=O)C(C)(C)c2cnc(Nc3ccccc3)nc21

>  <Name>  (932) 
nan

>  <Pocket>  (932) 
nan

>  <ATP_Site>  (932) 
nan

>  <Peripheral>  (932) 
nan

>  <Num_H_Atoms_ProtBoundConf>  (932) 
nan

>  <Num_Resolved_Atoms>  (932) 
nan

>  <Num_Not_Resolved_Atoms>  (932) 
nan

$$$$
CHEMBL3883398
     RDKit          3D

  0  0  0  0  0  0  0  0  0  0999 V3000
M  V30 BEGIN CTAB
M  V30 COUNTS 43 46 0 0 0
M  V30 BEGIN ATOM
M  V30 1 C 2.370430 -4.451449 1.260713 0
M  V30 2 C 1.415717 -3.537502 0.563604 0
M  V30 3 C 0.221904 -4.308086 -0.016122 0
M  V30 4 C 2.013044 -2.794043 -0.575895 0
M  V30 5 O 2.570758 -3.208091 -1.629168 0
M  V30 6 N 1.879963 -1.376573 -0.336613 0
M  V30 7 C 2.314342 -0.298314 -1.153700 0
M  V30 8 C 1.301565 0.072034 -2.048137 0
M  V30 9 C 1.455084 1.088383 -2.954207 0
M  V30 10 C 2.656038 1.762889 -2.976093 0
M  V30 11 C 3.685249 1.417742 -2.097324 0
M  V30 12 C 3.508507 0.391752 -1.193679 0
M  V30 13 C 1.209061 -1.164182 0.893768 0
M  V30 14 N 0.806515 -0.096919 1.604574 0
M  V30 15 C 0.161426 -0.178187 2.762607 0
M  V30 16 N -0.307179 0.845414 3.621997 0
M  V30 17 C -1.537726 1.481908 3.320822 0
M  V30 18 C -2.185492 1.190970 2.122679 0
M  V30 19 C -3.382015 1.806361 1.826493 0
M  V30 20 C -4.011594 2.730214 2.670195 0
M  V30 21 C -3.356263 3.006500 3.853349 0
M  V30 22 C -2.161418 2.400901 4.162409 0
M  V30 23 N -0.106501 -1.399025 3.257600 0
M  V30 24 C 0.247700 -2.535659 2.634451 0
M  V30 25 C 0.924866 -2.414582 1.418396 0
M  V30 26 H 1.978651 -5.504904 1.137471 0
M  V30 27 H 3.422878 -4.374378 0.927448 0
M  V30 28 H 2.335764 -4.299729 2.377624 0
M  V30 29 H -0.618451 -4.352312 0.730552 0
M  V30 30 H 0.571443 -5.307606 -0.306479 0
M  V30 31 H -0.142270 -3.827131 -0.949680 0
M  V30 32 H 0.306950 -0.386978 -2.126884 0
M  V30 33 H 0.708972 1.412509 -3.665078 0
M  V30 34 H 2.837263 2.573928 -3.671517 0
M  V30 35 H 4.639858 1.885227 -2.049722 0
M  V30 36 H 4.204553 0.011790 -0.457223 0
M  V30 37 H 0.177566 1.195645 4.493086 0
M  V30 38 H -1.797683 0.495492 1.396669 0
M  V30 39 H -3.939968 1.626897 0.910784 0
M  V30 40 H -4.939361 3.201521 2.432470 0
M  V30 41 H -3.789052 3.715466 4.558051 0
M  V30 42 H -1.691479 2.650095 5.099479 0
M  V30 43 H 0.015352 -3.527375 3.059022 0
M  V30 END ATOM
M  V30 BEGIN BOND
M  V30 1 1 1 2
M  V30 2 1 2 3
M  V30 3 1 2 4
M  V30 4 2 4 5
M  V30 5 1 4 6
M  V30 6 1 6 7
M  V30 7 2 7 8
M  V30 8 1 8 9
M  V30 9 2 9 10
M  V30 10 1 10 11
M  V30 11 2 11 12
M  V30 12 1 6 13
M  V30 13 2 13 14
M  V30 14 1 14 15
M  V30 15 1 15 16
M  V30 16 1 16 17
M  V30 17 2 17 18
M  V30 18 1 18 19
M  V30 19 2 19 20
M  V30 20 1 20 21
M  V30 21 2 21 22
M  V30 22 2 15 23
M  V30 23 1 23 24
M  V30 24 2 24 25
M  V30 25 1 25 2
M  V30 26 1 12 7
M  V30 27 1 25 13
M  V30 28 1 22 17
M  V30 29 1 1 26
M  V30 30 1 1 27
M  V30 31 1 1 28
M  V30 32 1 3 29
M  V30 33 1 3 30
M  V30 34 1 3 31
M  V30 35 1 8 32
M  V30 36 1 9 33
M  V30 37 1 10 34
M  V30 38 1 11 35
M  V30 39 1 12 36
M  V30 40 1 16 37
M  V30 41 1 18 38
M  V30 42 1 19 39
M  V30 43 1 20 40
M  V30 44 1 21 41
M  V30 45 1 22 42
M  V30 46 1 24 43
M  V30 END BOND
M  V30 END CTAB
M  END
>  <Dataset>  (933) 
ChEMBL_Kinases

>  <Ligand_Instance>  (933) 
nan

>  <PDB_ID>  (933) 
nan

>  <Standardized_SMILES>  (933) 
CC1(C)C(=O)N(c2ccccc2)c2nc(Nc3ccccc3)ncc21

>  <Name>  (933) 
nan

>  <Pocket>  (933) 
nan

>  <ATP_Site>  (933) 
nan

>  <Peripheral>  (933) 
nan

>  <Num_H_Atoms_ProtBoundConf>  (933) 
nan

>  <Num_Resolved_Atoms>  (933) 
nan

>  <Num_Not_Resolved_Atoms>  (933) 
nan

$$$$
CHEMBL492025
     RDKit          3D

  0  0  0  0  0  0  0  0  0  0999 V3000
M  V30 BEGIN CTAB
M  V30 COUNTS 31 32 0 0 0
M  V30 BEGIN ATOM
M  V30 1 C -1.098191 -2.314080 3.099269 0
M  V30 2 C -0.502560 -1.201186 2.282070 0
M  V30 3 C 0.529135 -1.357820 1.428845 0
M  V30 4 S 1.012718 -3.054511 1.462834 0
M  V30 5 C 2.007158 -3.627674 0.110433 0
M  V30 6 C 1.307567 -3.828667 -1.197983 0
M  V30 7 C 0.658227 -2.667601 -1.770128 0
M  V30 8 O 0.119198 -2.991054 -2.879484 0
M  V30 9 O 0.044801 -1.546714 -2.298770 0
M  V30 10 C 0.957977 -0.172633 0.706181 0
M  V30 11 O 1.923723 -0.419701 -0.054947 0
M  V30 12 C 0.315981 1.119385 0.883077 0
M  V30 13 C 0.852939 2.131524 0.116211 0
M  V30 14 C 0.280705 3.390417 0.243194 0
M  V30 15 C -0.773285 3.582740 1.104860 0
M  V30 16 C -1.282219 2.544307 1.855024 0
M  V30 17 C -0.738099 1.281683 1.753772 0
M  V30 18 C -1.175356 0.099105 2.484688 0
M  V30 19 O -2.142475 0.298715 3.269395 0
M  V30 20 H -2.199556 -2.240578 3.131664 0
M  V30 21 H -0.673043 -2.275842 4.102577 0
M  V30 22 H -0.859749 -3.312701 2.664231 0
M  V30 23 H 2.922728 -3.008916 -0.066086 0
M  V30 24 H 2.410230 -4.638111 0.399037 0
M  V30 25 H 0.639889 -4.728326 -1.148421 0
M  V30 26 H 2.120239 -4.153982 -1.918249 0
M  V30 27 H -0.467402 -0.880998 -1.735408 0
M  V30 28 H 1.675479 2.013562 -0.565738 0
M  V30 29 H 0.654657 4.235448 -0.332087 0
M  V30 30 H -1.256552 4.540833 1.242725 0
M  V30 31 H -2.110229 2.659063 2.542679 0
M  V30 END ATOM
M  V30 BEGIN BOND
M  V30 1 1 1 2
M  V30 2 2 2 3
M  V30 3 1 3 4
M  V30 4 1 4 5
M  V30 5 1 5 6
M  V30 6 1 6 7
M  V30 7 2 7 8
M  V30 8 1 7 9
M  V30 9 1 3 10
M  V30 10 2 10 11
M  V30 11 1 10 12
M  V30 12 2 12 13
M  V30 13 1 13 14
M  V30 14 2 14 15
M  V30 15 1 15 16
M  V30 16 2 16 17
M  V30 17 1 17 18
M  V30 18 2 18 19
M  V30 19 1 18 2
M  V30 20 1 17 12
M  V30 21 1 1 20
M  V30 22 1 1 21
M  V30 23 1 1 22
M  V30 24 1 5 23
M  V30 25 1 5 24
M  V30 26 1 6 25
M  V30 27 1 6 26
M  V30 28 1 9 27
M  V30 29 1 13 28
M  V30 30 1 14 29
M  V30 31 1 15 30
M  V30 32 1 16 31
M  V30 END BOND
M  V30 END CTAB
M  END
>  <Dataset>  (934) 
ChEMBL_Kinases

>  <Ligand_Instance>  (934) 
nan

>  <PDB_ID>  (934) 
nan

>  <Standardized_SMILES>  (934) 
CC1=C(SCCC(=O)O)C(=O)c2ccccc2C1=O

>  <Name>  (934) 
nan

>  <Pocket>  (934) 
nan

>  <ATP_Site>  (934) 
nan

>  <Peripheral>  (934) 
nan

>  <Num_H_Atoms_ProtBoundConf>  (934) 
nan

>  <Num_Resolved_Atoms>  (934) 
nan

>  <Num_Not_Resolved_Atoms>  (934) 
nan

$$$$
CHEMBL388312
     RDKit          3D

  0  0  0  0  0  0  0  0  0  0999 V3000
M  V30 BEGIN CTAB
M  V30 COUNTS 48 51 0 0 0
M  V30 BEGIN ATOM
M  V30 1 N -2.465419 -1.215693 1.195062 0
M  V30 2 C -1.643700 -1.504086 2.361098 0 CFG=2
M  V30 3 C -0.254457 -1.897051 1.988031 0
M  V30 4 O 0.486435 -0.965716 1.272653 0
M  V30 5 C 0.898296 0.290446 1.607584 0
M  V30 6 C 0.778719 1.099776 2.707036 0
M  V30 7 N 1.293488 2.336820 2.779297 0
M  V30 8 C 1.975480 2.870323 1.751280 0
M  V30 9 C 2.153289 2.142227 0.601710 0
M  V30 10 C 2.891898 2.718492 -0.512486 0
M  V30 11 C 3.441888 3.975736 -0.500191 0
M  V30 12 C 4.143047 4.533728 -1.546801 0
M  V30 13 C 4.766090 5.739742 -1.754735 0
M  V30 14 Cl 4.866414 7.074130 -0.628970 0
M  V30 15 N 5.301027 5.717405 -3.008754 0
M  V30 16 N 5.015897 4.529763 -3.559937 0
M  V30 17 C 4.310566 3.770801 -2.708077 0
M  V30 18 C 3.754504 2.509313 -2.710697 0
M  V30 19 N 3.071993 2.017375 -1.639849 0
M  V30 20 C 1.616114 0.870438 0.545069 0
M  V30 21 C -2.344784 -2.560436 3.187380 0
M  V30 22 C -2.560988 -3.823735 2.445593 0
M  V30 23 C -1.650668 -4.859969 2.433451 0
M  V30 24 C -1.811291 -6.051106 1.757738 0
M  V30 25 C -3.012170 -6.156701 1.047252 0
M  V30 26 C -3.949972 -5.142574 1.033415 0
M  V30 27 C -5.230605 -5.269333 0.268730 0
M  V30 28 F -5.294245 -6.542621 -0.269100 0
M  V30 29 F -5.321664 -4.316755 -0.727284 0
M  V30 30 F -6.315929 -5.027758 1.110876 0
M  V30 31 C -3.731179 -3.971568 1.731095 0
M  V30 32 H -1.964523 -0.597305 0.522338 0
M  V30 33 H -3.283594 -0.635273 1.537927 0
M  V30 34 H -1.648720 -0.588404 2.964656 0
M  V30 35 H 0.353445 -2.114862 2.920500 0
M  V30 36 H -0.215943 -2.865617 1.433790 0
M  V30 37 H 0.236836 0.634667 3.511318 0
M  V30 38 H 2.338938 3.869946 1.930532 0
M  V30 39 H 3.348629 4.609552 0.358927 0
M  V30 40 H 5.242535 4.126539 -4.491544 0
M  V30 41 H 3.875948 1.895758 -3.614017 0
M  V30 42 H 1.816240 0.376593 -0.417716 0
M  V30 43 H -1.752393 -2.756944 4.103080 0
M  V30 44 H -3.330345 -2.141523 3.505124 0
M  V30 45 H -0.713389 -4.759613 2.996843 0
M  V30 46 H -1.073639 -6.838999 1.773434 0
M  V30 47 H -3.184314 -7.076530 0.499053 0
M  V30 48 H -4.479762 -3.196614 1.703012 0
M  V30 END ATOM
M  V30 BEGIN BOND
M  V30 1 1 1 2
M  V30 2 1 2 3
M  V30 3 1 3 4
M  V30 4 1 4 5
M  V30 5 2 5 6
M  V30 6 1 6 7
M  V30 7 2 7 8
M  V30 8 1 8 9
M  V30 9 1 9 10
M  V30 10 2 10 11
M  V30 11 1 11 12
M  V30 12 1 12 13
M  V30 13 1 13 14
M  V30 14 2 13 15
M  V30 15 1 15 16
M  V30 16 1 16 17
M  V30 17 1 17 18
M  V30 18 2 18 19
M  V30 19 2 9 20
M  V30 20 1 2 21
M  V30 21 1 21 22
M  V30 22 2 22 23
M  V30 23 1 23 24
M  V30 24 2 24 25
M  V30 25 1 25 26
M  V30 26 1 26 27
M  V30 27 1 27 28
M  V30 28 1 27 29
M  V30 29 1 27 30
M  V30 30 2 26 31
M  V30 31 1 20 5
M  V30 32 1 31 22
M  V30 33 1 19 10
M  V30 34 2 17 12
M  V30 35 1 1 32
M  V30 36 1 1 33
M  V30 37 1 2 34 CFG=1
M  V30 38 1 3 35
M  V30 39 1 3 36
M  V30 40 1 6 37
M  V30 41 1 8 38
M  V30 42 1 11 39
M  V30 43 1 16 40
M  V30 44 1 18 41
M  V30 45 1 20 42
M  V30 46 1 21 43
M  V30 47 1 21 44
M  V30 48 1 23 45
M  V30 49 1 24 46
M  V30 50 1 25 47
M  V30 51 1 31 48
M  V30 END BOND
M  V30 END CTAB
M  END
>  <Dataset>  (935) 
ChEMBL_Kinases

>  <Ligand_Instance>  (935) 
nan

>  <PDB_ID>  (935) 
nan

>  <Standardized_SMILES>  (935) 
N[C@H](COc1cncc(-c2cc3c(Cl)n[nH]c3cn2)c1)Cc1cccc(C(F)(F)F)c1

>  <Name>  (935) 
nan

>  <Pocket>  (935) 
nan

>  <ATP_Site>  (935) 
nan

>  <Peripheral>  (935) 
nan

>  <Num_H_Atoms_ProtBoundConf>  (935) 
nan

>  <Num_Resolved_Atoms>  (935) 
nan

>  <Num_Not_Resolved_Atoms>  (935) 
nan

$$$$
CHEMBL491940
     RDKit          3D

  0  0  0  0  0  0  0  0  0  0999 V3000
M  V30 BEGIN CTAB
M  V30 COUNTS 49 52 0 0 0
M  V30 BEGIN ATOM
M  V30 1 C 1.117502 -6.474767 -0.525288 0
M  V30 2 O 1.099551 -5.058864 -0.566283 0
M  V30 3 C 2.224455 -4.289764 -0.369002 0
M  V30 4 C 3.452424 -4.897325 -0.114495 0
M  V30 5 C 4.577738 -4.092385 0.081845 0
M  V30 6 C 4.508558 -2.713651 0.031090 0
M  V30 7 C 3.272316 -2.126785 -0.224491 0
M  V30 8 C 3.118946 -0.653366 -0.295736 0
M  V30 9 C 4.131707 0.172785 -0.752945 0
M  V30 10 C 3.899258 1.542776 -0.785134 0
M  V30 11 C 2.691101 2.106693 -0.375487 0
M  V30 12 N 2.514530 3.456977 -0.426621 0
M  V30 13 C 1.326145 3.987150 -0.021451 0
M  V30 14 N 0.318571 3.186534 0.431790 0
M  V30 15 C 0.501677 1.875577 0.477196 0
M  V30 16 N -0.558143 1.033561 0.960421 0
M  V30 17 C -1.808271 1.612474 1.390932 0
M  V30 18 C -2.786808 0.647791 1.922980 0
M  V30 19 C -2.586346 -0.639008 2.365576 0
M  V30 20 C -3.532647 -1.499561 2.865474 0
M  V30 21 C -4.842709 -1.039586 2.940796 0
M  V30 22 C -5.094830 0.250322 2.506840 0
M  V30 23 C -4.115000 1.088423 2.009135 0
M  V30 24 O -4.432709 2.371883 1.590502 0
M  V30 25 C -5.779148 2.789638 1.690346 0
M  V30 26 C 1.689108 1.264021 0.078935 0
M  V30 27 C 1.935618 -0.068169 0.102256 0
M  V30 28 C 2.141166 -2.915259 -0.422353 0
M  V30 29 H 1.931247 -6.909439 -1.158355 0
M  V30 30 H 1.291296 -6.864563 0.509600 0
M  V30 31 H 0.143489 -6.878423 -0.864081 0
M  V30 32 H 3.510561 -5.966477 -0.074703 0
M  V30 33 H 5.506942 -4.610578 0.276406 0
M  V30 34 H 5.388828 -2.102576 0.184954 0
M  V30 35 H 5.060409 -0.276848 -1.065553 0
M  V30 36 H 4.708467 2.163481 -1.147291 0
M  V30 37 H 1.293885 5.064802 -0.103267 0
M  V30 38 H -0.528123 0.002939 1.033001 0
M  V30 39 H -2.288888 2.068707 0.476551 0
M  V30 40 H -1.650577 2.468424 2.083186 0
M  V30 41 H -1.581497 -1.027075 2.325828 0
M  V30 42 H -3.255815 -2.496310 3.185649 0
M  V30 43 H -5.602948 -1.700048 3.330889 0
M  V30 44 H -6.137337 0.541372 2.595470 0
M  V30 45 H -6.443119 2.248469 0.985242 0
M  V30 46 H -6.192030 2.574195 2.711309 0
M  V30 47 H -5.879427 3.904817 1.575868 0
M  V30 48 H 1.187131 -0.734382 0.445693 0
M  V30 49 H 1.146644 -2.496053 -0.627624 0
M  V30 END ATOM
M  V30 BEGIN BOND
M  V30 1 1 1 2
M  V30 2 1 2 3
M  V30 3 2 3 4
M  V30 4 1 4 5
M  V30 5 2 5 6
M  V30 6 1 6 7
M  V30 7 1 7 8
M  V30 8 2 8 9
M  V30 9 1 9 10
M  V30 10 2 10 11
M  V30 11 1 11 12
M  V30 12 2 12 13
M  V30 13 1 13 14
M  V30 14 2 14 15
M  V30 15 1 15 16
M  V30 16 1 16 17
M  V30 17 1 17 18
M  V30 18 2 18 19
M  V30 19 1 19 20
M  V30 20 2 20 21
M  V30 21 1 21 22
M  V30 22 2 22 23
M  V30 23 1 23 24
M  V30 24 1 24 25
M  V30 25 1 15 26
M  V30 26 2 26 27
M  V30 27 2 7 28
M  V30 28 1 28 3
M  V30 29 1 27 8
M  V30 30 1 26 11
M  V30 31 1 23 18
M  V30 32 1 1 29
M  V30 33 1 1 30
M  V30 34 1 1 31
M  V30 35 1 4 32
M  V30 36 1 5 33
M  V30 37 1 6 34
M  V30 38 1 9 35
M  V30 39 1 10 36
M  V30 40 1 13 37
M  V30 41 1 16 38
M  V30 42 1 17 39
M  V30 43 1 17 40
M  V30 44 1 19 41
M  V30 45 1 20 42
M  V30 46 1 21 43
M  V30 47 1 22 44
M  V30 48 1 25 45
M  V30 49 1 25 46
M  V30 50 1 25 47
M  V30 51 1 27 48
M  V30 52 1 28 49
M  V30 END BOND
M  V30 END CTAB
M  END
>  <Dataset>  (936) 
ChEMBL_Kinases

>  <Ligand_Instance>  (936) 
nan

>  <PDB_ID>  (936) 
nan

>  <Standardized_SMILES>  (936) 
COc1cccc(-c2ccc3ncnc(NCc4ccccc4OC)c3c2)c1

>  <Name>  (936) 
nan

>  <Pocket>  (936) 
nan

>  <ATP_Site>  (936) 
nan

>  <Peripheral>  (936) 
nan

>  <Num_H_Atoms_ProtBoundConf>  (936) 
nan

>  <Num_Resolved_Atoms>  (936) 
nan

>  <Num_Not_Resolved_Atoms>  (936) 
nan

$$$$
CHEMBL608394
     RDKit          3D

  0  0  0  0  0  0  0  0  0  0999 V3000
M  V30 BEGIN CTAB
M  V30 COUNTS 16 17 0 0 0
M  V30 BEGIN ATOM
M  V30 1 S -0.885258 -0.205935 4.337335 0
M  V30 2 C -0.018355 -0.088300 2.955117 0
M  V30 3 N 0.976968 -0.880733 2.532134 0
M  V30 4 C 1.454488 -0.481552 1.351084 0
M  V30 5 C 2.465598 -0.965030 0.517871 0
M  V30 6 Br 3.460392 -2.515762 1.047323 0
M  V30 7 C 2.731654 -0.313504 -0.678712 0
M  V30 8 Br 4.114498 -0.979219 -1.812627 0
M  V30 9 C 1.990373 0.799975 -1.020447 0
M  V30 10 Br 2.385898 1.667198 -2.672122 0
M  V30 11 C 0.983655 1.296244 -0.209542 0
M  V30 12 Br -0.037858 2.840444 -0.692774 0
M  V30 13 C 0.724071 0.642779 0.980263 0
M  V30 14 N -0.134510 0.823437 1.976297 0
M  V30 15 H 1.321170 -1.715056 3.089008 0
M  V30 16 H -0.824875 1.610795 1.971339 0
M  V30 END ATOM
M  V30 BEGIN BOND
M  V30 1 2 1 2
M  V30 2 1 2 3
M  V30 3 1 3 4
M  V30 4 2 4 5
M  V30 5 1 5 6
M  V30 6 1 5 7
M  V30 7 1 7 8
M  V30 8 2 7 9
M  V30 9 1 9 10
M  V30 10 1 9 11
M  V30 11 1 11 12
M  V30 12 2 11 13
M  V30 13 1 13 14
M  V30 14 1 14 2
M  V30 15 1 13 4
M  V30 16 1 3 15
M  V30 17 1 14 16
M  V30 END BOND
M  V30 END CTAB
M  END
>  <Dataset>  (937) 
ChEMBL_Kinases

>  <Ligand_Instance>  (937) 
nan

>  <PDB_ID>  (937) 
nan

>  <Standardized_SMILES>  (937) 
S=c1[nH]c2c(Br)c(Br)c(Br)c(Br)c2[nH]1

>  <Name>  (937) 
nan

>  <Pocket>  (937) 
nan

>  <ATP_Site>  (937) 
nan

>  <Peripheral>  (937) 
nan

>  <Num_H_Atoms_ProtBoundConf>  (937) 
nan

>  <Num_Resolved_Atoms>  (937) 
nan

>  <Num_Not_Resolved_Atoms>  (937) 
nan

$$$$
CHEMBL3915550
     RDKit          3D

  0  0  0  0  0  0  0  0  0  0999 V3000
M  V30 BEGIN CTAB
M  V30 COUNTS 53 55 0 0 0
M  V30 BEGIN ATOM
M  V30 1 C -3.878741 -2.895815 -2.712070 0
M  V30 2 C -4.182441 -3.279282 -1.261122 0
M  V30 3 C -3.740499 -2.207218 -0.336026 0
M  V30 4 C -2.481094 -2.214099 0.188882 0
M  V30 5 C -2.019289 -1.239535 1.044622 0
M  V30 6 C -2.876044 -0.213544 1.380717 0
M  V30 7 N -2.693048 0.950902 2.226622 0
M  V30 8 C -1.928606 1.910974 1.831648 0
M  V30 9 S -1.375096 1.288110 0.223357 0
M  V30 10 C -0.329448 2.727811 -0.124509 0
M  V30 11 C 0.422629 2.910335 -1.177347 0
M  V30 12 C 0.507331 1.918216 -2.240244 0
M  V30 13 C 0.482963 2.125723 -3.594777 0
M  V30 14 C 0.597761 1.128410 -4.531814 0
M  V30 15 N 0.741368 -0.108869 -4.029139 0
M  V30 16 C 0.774279 -0.389068 -2.729143 0
M  V30 17 N 0.949699 -1.749551 -2.289148 0
M  V30 18 C 2.363064 -1.828773 -2.159146 0
M  V30 19 O 2.888514 -0.704017 -2.476754 0
M  V30 20 C 3.225965 -2.973738 -1.730637 0
M  V30 21 C 4.687440 -2.569240 -1.765498 0
M  V30 22 C 4.950050 -1.418422 -0.861032 0
M  V30 23 O 4.072107 -0.834264 -0.137187 0
M  V30 24 O 6.231758 -0.906467 -0.761725 0
M  V30 25 C 0.658822 0.612801 -1.758972 0
M  V30 26 C -0.494824 3.607110 1.005641 0
M  V30 27 O 0.044098 4.752627 1.183361 0
M  V30 28 N -1.334526 3.176695 2.031851 0
M  V30 29 C -1.755964 3.737233 3.299337 0
M  V30 30 C -4.170714 -0.174496 0.863778 0
M  V30 31 C -4.606598 -1.169225 0.005129 0
M  V30 32 H -4.827157 -2.789735 -3.287314 0
M  V30 33 H -3.262019 -3.663418 -3.220994 0
M  V30 34 H -3.327726 -1.934914 -2.684122 0
M  V30 35 H -5.274916 -3.389579 -1.164478 0
M  V30 36 H -3.736448 -4.264029 -1.066200 0
M  V30 37 H -1.749867 -2.981199 -0.024159 0
M  V30 38 H -1.073005 -1.111136 1.528830 0
M  V30 39 H 1.017524 3.815463 -1.297920 0
M  V30 40 H 0.362528 3.162837 -3.863004 0
M  V30 41 H 0.570180 1.364004 -5.585657 0
M  V30 42 H 0.456616 -2.649125 -2.043284 0
M  V30 43 H 2.950626 -3.291028 -0.701853 0
M  V30 44 H 3.056686 -3.820208 -2.423075 0
M  V30 45 H 5.024184 -2.345451 -2.796976 0
M  V30 46 H 5.305276 -3.415749 -1.401651 0
M  V30 47 H 6.383772 0.109538 -0.673748 0
M  V30 48 H 0.705484 0.259548 -0.726334 0
M  V30 49 H -1.254920 3.114065 4.098077 0
M  V30 50 H -1.330225 4.755096 3.452222 0
M  V30 51 H -2.841389 3.767461 3.414310 0
M  V30 52 H -4.947934 0.553755 1.033348 0
M  V30 53 H -5.595411 -1.222063 -0.444263 0
M  V30 END ATOM
M  V30 BEGIN BOND
M  V30 1 1 1 2
M  V30 2 1 2 3
M  V30 3 2 3 4
M  V30 4 1 4 5
M  V30 5 2 5 6
M  V30 6 1 6 7
M  V30 7 2 7 8
M  V30 8 1 8 9
M  V30 9 1 9 10
M  V30 10 2 10 11
M  V30 11 1 11 12
M  V30 12 2 12 13
M  V30 13 1 13 14
M  V30 14 2 14 15
M  V30 15 1 15 16
M  V30 16 1 16 17
M  V30 17 1 17 18
M  V30 18 2 18 19
M  V30 19 1 18 20
M  V30 20 1 20 21
M  V30 21 1 21 22
M  V30 22 2 22 23
M  V30 23 1 22 24
M  V30 24 2 16 25
M  V30 25 1 10 26
M  V30 26 2 26 27
M  V30 27 1 26 28
M  V30 28 1 28 29
M  V30 29 1 6 30
M  V30 30 2 30 31
M  V30 31 1 31 3
M  V30 32 1 28 8
M  V30 33 1 25 12
M  V30 34 1 1 32
M  V30 35 1 1 33
M  V30 36 1 1 34
M  V30 37 1 2 35
M  V30 38 1 2 36
M  V30 39 1 4 37
M  V30 40 1 5 38
M  V30 41 1 11 39
M  V30 42 1 13 40
M  V30 43 1 14 41
M  V30 44 1 17 42
M  V30 45 1 20 43
M  V30 46 1 20 44
M  V30 47 1 21 45
M  V30 48 1 21 46
M  V30 49 1 24 47
M  V30 50 1 25 48
M  V30 51 1 29 49
M  V30 52 1 29 50
M  V30 53 1 29 51
M  V30 54 1 30 52
M  V30 55 1 31 53
M  V30 END BOND
M  V30 END CTAB
M  END
>  <Dataset>  (938) 
ChEMBL_Kinases

>  <Ligand_Instance>  (938) 
nan

>  <PDB_ID>  (938) 
nan

>  <Standardized_SMILES>  (938) 
CCc1ccc(/N=C2\S/C(=C\c3ccnc(NC(=O)CCC(=O)O)c3)C(=O)N2C)cc1

>  <Name>  (938) 
nan

>  <Pocket>  (938) 
nan

>  <ATP_Site>  (938) 
nan

>  <Peripheral>  (938) 
nan

>  <Num_H_Atoms_ProtBoundConf>  (938) 
nan

>  <Num_Resolved_Atoms>  (938) 
nan

>  <Num_Not_Resolved_Atoms>  (938) 
nan

$$$$
CHEMBL3915686
     RDKit          3D

  0  0  0  0  0  0  0  0  0  0999 V3000
M  V30 BEGIN CTAB
M  V30 COUNTS 68 72 0 0 0
M  V30 BEGIN ATOM
M  V30 1 C 7.654749 -3.794726 4.437858 0
M  V30 2 N 6.666465 -4.150222 5.449175 0
M  V30 3 C 5.290786 -3.792134 5.404231 0
M  V30 4 N 4.415709 -4.098752 6.366101 0
M  V30 5 C 3.121514 -3.755445 6.317779 0
M  V30 6 C 2.673915 -3.047542 5.214270 0
M  V30 7 C 3.560979 -2.723128 4.214310 0
M  V30 8 C 3.112725 -1.987941 3.036290 0
M  V30 9 C 1.827733 -1.532042 2.822255 0
M  V30 10 C 1.877826 -0.882954 1.588305 0
M  V30 11 C 0.855100 -0.244568 0.904132 0
M  V30 12 C 1.073384 0.351254 -0.316908 0
M  V30 13 C 0.044358 1.043990 -1.077233 0
M  V30 14 O 0.132446 1.540963 -2.208828 0
M  V30 15 N -1.255491 1.221091 -0.532457 0
M  V30 16 C -2.395054 1.877705 -1.146218 0 CFG=1
M  V30 17 C -3.571425 0.947456 -1.109489 0
M  V30 18 N -3.389505 -0.297752 -1.790578 0
M  V30 19 C -3.297297 -0.540448 -3.166668 0
M  V30 20 C -3.387514 0.374634 -4.175001 0
M  V30 21 C -3.288100 0.130238 -5.523112 0
M  V30 22 C -3.075175 -1.167310 -5.915257 0
M  V30 23 C -2.971631 -2.163443 -4.944304 0
M  V30 24 C -3.083726 -1.832279 -3.611222 0
M  V30 25 C -3.271279 -1.404058 -0.880090 0
M  V30 26 C -2.097877 -2.118770 -0.778310 0
M  V30 27 C -1.856265 -3.183509 0.061483 0
M  V30 28 C -2.919450 -3.567394 0.890312 0
M  V30 29 C -4.103978 -2.849013 0.790046 0
M  V30 30 N -4.267416 -1.800308 -0.071330 0
M  V30 31 C -2.730810 3.008217 -0.202710 0
M  V30 32 O -1.919864 2.933002 0.760018 0
M  V30 33 N -3.789726 3.962149 -0.414460 0
M  V30 34 O -3.859491 4.865419 0.606652 0
M  V30 35 C -3.080376 5.981783 0.391316 0
M  V30 36 C 2.357995 0.291335 -0.842723 0
M  V30 37 C 3.372841 -0.343794 -0.159551 0
M  V30 38 C 3.173641 -0.948216 1.068147 0
M  V30 39 N 3.877484 -1.628768 1.988614 0
M  V30 40 N 4.866575 -3.092612 4.304564 0
M  V30 41 H 8.575416 -3.349878 4.898791 0
M  V30 42 H 7.202304 -3.061936 3.709461 0
M  V30 43 H 7.909975 -4.691923 3.868198 0
M  V30 44 H 6.989814 -4.709651 6.277060 0
M  V30 45 H 2.472371 -4.042222 7.143314 0
M  V30 46 H 1.644662 -2.755467 5.139995 0
M  V30 47 H 0.977120 -1.656727 3.477063 0
M  V30 48 H -0.124392 -0.220553 1.346070 0
M  V30 49 H -1.547470 0.882380 0.412093 0
M  V30 50 H -2.214062 2.231315 -2.150050 0
M  V30 51 H -3.906978 0.844658 -0.070726 0
M  V30 52 H -4.426687 1.456578 -1.664402 0
M  V30 53 H -3.564504 1.416831 -3.904397 0
M  V30 54 H -3.379360 0.947730 -6.244497 0
M  V30 55 H -2.995721 -1.355313 -6.982907 0
M  V30 56 H -2.803776 -3.154709 -5.328678 0
M  V30 57 H -2.981741 -2.703187 -2.985279 0
M  V30 58 H -1.245911 -1.845584 -1.421088 0
M  V30 59 H -0.919473 -3.721534 0.107378 0
M  V30 60 H -2.839954 -4.398287 1.593982 0
M  V30 61 H -4.978034 -3.074155 1.392616 0
M  V30 62 H -4.275350 3.746601 -1.319298 0
M  V30 63 H -2.972273 6.154886 -0.714868 0
M  V30 64 H -2.108407 5.901506 0.914966 0
M  V30 65 H -3.584533 6.904142 0.780111 0
M  V30 66 H 2.646558 0.719423 -1.788941 0
M  V30 67 H 4.382524 -0.394352 -0.564945 0
M  V30 68 H 4.905886 -1.833543 1.864340 0
M  V30 END ATOM
M  V30 BEGIN BOND
M  V30 1 1 1 2
M  V30 2 1 2 3
M  V30 3 2 3 4
M  V30 4 1 4 5
M  V30 5 2 5 6
M  V30 6 1 6 7
M  V30 7 1 7 8
M  V30 8 2 8 9
M  V30 9 1 9 10
M  V30 10 2 10 11
M  V30 11 1 11 12
M  V30 12 1 12 13
M  V30 13 2 13 14
M  V30 14 1 13 15
M  V30 15 1 15 16
M  V30 16 1 16 17
M  V30 17 1 17 18
M  V30 18 1 18 19
M  V30 19 2 19 20
M  V30 20 1 20 21
M  V30 21 2 21 22
M  V30 22 1 22 23
M  V30 23 2 23 24
M  V30 24 1 18 25
M  V30 25 2 25 26
M  V30 26 1 26 27
M  V30 27 2 27 28
M  V30 28 1 28 29
M  V30 29 2 29 30
M  V30 30 1 16 31
M  V30 31 2 31 32
M  V30 32 1 31 33
M  V30 33 1 33 34
M  V30 34 1 34 35
M  V30 35 2 12 36
M  V30 36 1 36 37
M  V30 37 2 37 38
M  V30 38 1 38 39
M  V30 39 2 7 40
M  V30 40 1 40 3
M  V30 41 1 39 8
M  V30 42 1 38 10
M  V30 43 1 24 19
M  V30 44 1 30 25
M  V30 45 1 1 41
M  V30 46 1 1 42
M  V30 47 1 1 43
M  V30 48 1 2 44
M  V30 49 1 5 45
M  V30 50 1 6 46
M  V30 51 1 9 47
M  V30 52 1 11 48
M  V30 53 1 15 49
M  V30 54 1 16 50 CFG=3
M  V30 55 1 17 51
M  V30 56 1 17 52
M  V30 57 1 20 53
M  V30 58 1 21 54
M  V30 59 1 22 55
M  V30 60 1 23 56
M  V30 61 1 24 57
M  V30 62 1 26 58
M  V30 63 1 27 59
M  V30 64 1 28 60
M  V30 65 1 29 61
M  V30 66 1 33 62
M  V30 67 1 35 63
M  V30 68 1 35 64
M  V30 69 1 35 65
M  V30 70 1 36 66
M  V30 71 1 37 67
M  V30 72 1 39 68
M  V30 END BOND
M  V30 END CTAB
M  END
>  <Dataset>  (939) 
ChEMBL_Kinases

>  <Ligand_Instance>  (939) 
nan

>  <PDB_ID>  (939) 
nan

>  <Standardized_SMILES>  (939) 
CNc1nccc(-c2cc3cc(C(=O)N[C@@H](CN(c4ccccc4)c4ccccn4)C(=O)NOC)ccc3[nH]2)n1

>  <Name>  (939) 
nan

>  <Pocket>  (939) 
nan

>  <ATP_Site>  (939) 
nan

>  <Peripheral>  (939) 
nan

>  <Num_H_Atoms_ProtBoundConf>  (939) 
nan

>  <Num_Resolved_Atoms>  (939) 
nan

>  <Num_Not_Resolved_Atoms>  (939) 
nan

$$$$
CHEMBL597640
     RDKit          3D

  0  0  0  0  0  0  0  0  0  0999 V3000
M  V30 BEGIN CTAB
M  V30 COUNTS 52 57 0 0 0
M  V30 BEGIN ATOM
M  V30 1 N -3.417224 -2.262616 3.476997 0
M  V30 2 C -2.206356 -1.901600 2.820155 0
M  V30 3 N -1.111063 -1.425172 3.440134 0
M  V30 4 N -0.151740 -1.183258 2.563508 0
M  V30 5 C 1.187349 -0.690641 2.594210 0
M  V30 6 C 2.124410 -1.559177 3.166554 0
M  V30 7 C 3.463582 -1.217687 3.265267 0
M  V30 8 C 3.836339 0.016537 2.775073 0
M  V30 9 C 2.924186 0.889388 2.205494 0
M  V30 10 C 3.244571 2.204746 1.668069 0
M  V30 11 C 2.550385 2.760767 0.612512 0
M  V30 12 C 2.835633 3.988000 0.097210 0
M  V30 13 C 3.868174 4.732397 0.642740 0
M  V30 14 N 4.417359 5.947275 0.398969 0
M  V30 15 C 5.430307 6.143072 1.282570 0
M  V30 16 N 5.537609 5.081228 2.081945 0
M  V30 17 C 4.592746 4.202629 1.711492 0
M  V30 18 C 4.267525 2.971318 2.189595 0
M  V30 19 C 1.589490 0.546397 2.108342 0
M  V30 20 C -0.619592 -1.507370 1.322345 0
M  V30 21 C -1.931485 -1.968549 1.465999 0
M  V30 22 C -2.847371 -2.434618 0.400948 0
M  V30 23 C -4.175255 -2.080495 0.281494 0
M  V30 24 C -4.898906 -2.602855 -0.773122 0
M  V30 25 C -4.296659 -3.453071 -1.672795 0
M  V30 26 C -2.977452 -3.832932 -1.592929 0
M  V30 27 C -2.254395 -3.300818 -0.525112 0
M  V30 28 C -2.288500 -4.745416 -2.538955 0
M  V30 29 C -2.961222 -4.681343 -3.894043 0
M  V30 30 N -4.385969 -4.879459 -3.686488 0
M  V30 31 C -5.053776 -4.004204 -2.782384 0
M  V30 32 O -6.276702 -3.727417 -2.960621 0
M  V30 33 H -3.840930 -3.136990 3.859440 0
M  V30 34 H -3.988142 -1.373353 3.570586 0
M  V30 35 H 1.862427 -2.536476 3.561074 0
M  V30 36 H 4.196339 -1.881837 3.706004 0
M  V30 37 H 4.873148 0.363103 2.813937 0
M  V30 38 H 1.728566 2.192802 0.162244 0
M  V30 39 H 2.299004 4.428738 -0.725759 0
M  V30 40 H 5.951574 7.087407 1.187310 0
M  V30 41 H 6.240757 5.021296 2.823008 0
M  V30 42 H 4.804412 2.511269 3.025567 0
M  V30 43 H 0.806144 1.159809 1.681187 0
M  V30 44 H -0.187125 -1.473799 0.315975 0
M  V30 45 H -4.560509 -1.410723 1.031147 0
M  V30 46 H -5.941302 -2.325877 -0.868560 0
M  V30 47 H -1.195768 -3.593456 -0.444257 0
M  V30 48 H -1.220302 -4.414762 -2.673836 0
M  V30 49 H -2.227586 -5.771824 -2.142204 0
M  V30 50 H -2.789021 -3.675103 -4.299284 0
M  V30 51 H -2.545432 -5.456226 -4.567399 0
M  V30 52 H -4.917909 -5.635595 -4.177665 0
M  V30 END ATOM
M  V30 BEGIN BOND
M  V30 1 1 1 2
M  V30 2 2 2 3
M  V30 3 1 3 4
M  V30 4 1 4 5
M  V30 5 2 5 6
M  V30 6 1 6 7
M  V30 7 2 7 8
M  V30 8 1 8 9
M  V30 9 1 9 10
M  V30 10 2 10 11
M  V30 11 1 11 12
M  V30 12 2 12 13
M  V30 13 1 13 14
M  V30 14 2 14 15
M  V30 15 1 15 16
M  V30 16 1 16 17
M  V30 17 2 17 18
M  V30 18 2 9 19
M  V30 19 1 4 20
M  V30 20 2 20 21
M  V30 21 1 21 22
M  V30 22 2 22 23
M  V30 23 1 23 24
M  V30 24 2 24 25
M  V30 25 1 25 26
M  V30 26 2 26 27
M  V30 27 1 26 28
M  V30 28 1 28 29
M  V30 29 1 29 30
M  V30 30 1 30 31
M  V30 31 2 31 32
M  V30 32 1 21 2
M  V30 33 1 27 22
M  V30 34 1 19 5
M  V30 35 1 31 25
M  V30 36 1 18 10
M  V30 37 1 17 13
M  V30 38 1 1 33
M  V30 39 1 1 34
M  V30 40 1 6 35
M  V30 41 1 7 36
M  V30 42 1 8 37
M  V30 43 1 11 38
M  V30 44 1 12 39
M  V30 45 1 15 40
M  V30 46 1 16 41
M  V30 47 1 18 42
M  V30 48 1 19 43
M  V30 49 1 20 44
M  V30 50 1 23 45
M  V30 51 1 24 46
M  V30 52 1 27 47
M  V30 53 1 28 48
M  V30 54 1 28 49
M  V30 55 1 29 50
M  V30 56 1 29 51
M  V30 57 1 30 52
M  V30 END BOND
M  V30 END CTAB
M  END
>  <Dataset>  (940) 
ChEMBL_Kinases

>  <Ligand_Instance>  (940) 
nan

>  <PDB_ID>  (940) 
nan

>  <Standardized_SMILES>  (940) 
Nc1nn(-c2cccc(-c3ccc4nc[nH]c4c3)c2)cc1-c1ccc2c(c1)CCNC2=O

>  <Name>  (940) 
nan

>  <Pocket>  (940) 
nan

>  <ATP_Site>  (940) 
nan

>  <Peripheral>  (940) 
nan

>  <Num_H_Atoms_ProtBoundConf>  (940) 
nan

>  <Num_Resolved_Atoms>  (940) 
nan

>  <Num_Not_Resolved_Atoms>  (940) 
nan

$$$$
CHEMBL597523
     RDKit          3D

  0  0  0  0  0  0  0  0  0  0999 V3000
M  V30 BEGIN CTAB
M  V30 COUNTS 51 53 0 0 0
M  V30 BEGIN ATOM
M  V30 1 N 6.911980 -4.006509 3.781087 0
M  V30 2 C 6.444957 -3.882559 2.715324 0
M  V30 3 C 5.874921 -3.741567 1.402352 0
M  V30 4 C 6.065517 -4.751209 0.483269 0
M  V30 5 C 5.502678 -4.571926 -0.756124 0
M  V30 6 C 4.788401 -3.444902 -1.059772 0
M  V30 7 C 4.579635 -2.420457 -0.167948 0
M  V30 8 N 3.824782 -1.300839 -0.587373 0
M  V30 9 C 3.488341 -0.143582 0.141413 0
M  V30 10 O 3.877811 -0.026154 1.324198 0
M  V30 11 N 2.719574 0.922171 -0.389147 0
M  V30 12 C 2.341819 2.127569 0.310321 0
M  V30 13 C 1.218523 1.814300 1.224657 0
M  V30 14 C 1.281952 1.444461 2.547963 0
M  V30 15 C 0.180602 1.164291 3.323015 0
M  V30 16 C -1.047695 1.258490 2.748043 0
M  V30 17 C -1.192634 1.623497 1.426977 0
M  V30 18 C -2.496070 1.733382 0.783044 0
M  V30 19 O -2.603387 2.082596 -0.425993 0
M  V30 20 N -3.736298 1.469025 1.424028 0
M  V30 21 C -4.999763 1.585570 0.767632 0
M  V30 22 C -5.182179 0.701141 -0.428552 0
M  V30 23 C -5.067821 -0.745143 -0.133745 0
M  V30 24 C -6.138180 -1.533326 0.233002 0
M  V30 25 C -5.894385 -2.886918 0.481636 0
M  V30 26 N -4.680484 -3.422031 0.375083 0
M  V30 27 C -3.605019 -2.677061 0.016656 0
M  V30 28 C -3.800754 -1.323435 -0.240563 0
M  V30 29 C -0.068091 1.893173 0.692313 0
M  V30 30 C 5.151153 -2.630247 1.051261 0
M  V30 31 H 6.628085 -5.635777 0.723855 0
M  V30 32 H 5.626975 -5.335942 -1.503508 0
M  V30 33 H 4.368812 -3.375661 -2.074184 0
M  V30 34 H 3.445635 -1.284286 -1.557736 0
M  V30 35 H 2.393005 0.830799 -1.379123 0
M  V30 36 H 3.249897 2.441365 0.909707 0
M  V30 37 H 2.082354 2.925571 -0.407410 0
M  V30 38 H 2.267346 1.383127 2.982802 0
M  V30 39 H 0.341372 0.881111 4.356232 0
M  V30 40 H -1.904828 1.036554 3.366680 0
M  V30 41 H -3.700355 1.173898 2.431934 0
M  V30 42 H -5.231891 2.632531 0.420157 0
M  V30 43 H -5.820469 1.350161 1.471782 0
M  V30 44 H -6.224914 0.847862 -0.806787 0
M  V30 45 H -4.497569 0.994406 -1.261517 0
M  V30 46 H -7.104816 -1.075957 0.310936 0
M  V30 47 H -6.728364 -3.521572 0.772213 0
M  V30 48 H -2.642791 -3.167217 -0.053058 0
M  V30 49 H -2.893398 -0.824415 -0.515637 0
M  V30 50 H -0.194588 2.178615 -0.345767 0
M  V30 51 H 5.048318 -1.893680 1.819032 0
M  V30 END ATOM
M  V30 BEGIN BOND
M  V30 1 3 1 2
M  V30 2 1 2 3
M  V30 3 2 3 4
M  V30 4 1 4 5
M  V30 5 2 5 6
M  V30 6 1 6 7
M  V30 7 1 7 8
M  V30 8 1 8 9
M  V30 9 2 9 10
M  V30 10 1 9 11
M  V30 11 1 11 12
M  V30 12 1 12 13
M  V30 13 2 13 14
M  V30 14 1 14 15
M  V30 15 2 15 16
M  V30 16 1 16 17
M  V30 17 1 17 18
M  V30 18 2 18 19
M  V30 19 1 18 20
M  V30 20 1 20 21
M  V30 21 1 21 22
M  V30 22 1 22 23
M  V30 23 2 23 24
M  V30 24 1 24 25
M  V30 25 2 25 26
M  V30 26 1 26 27
M  V30 27 2 27 28
M  V30 28 2 17 29
M  V30 29 2 7 30
M  V30 30 1 30 3
M  V30 31 1 29 13
M  V30 32 1 28 23
M  V30 33 1 4 31
M  V30 34 1 5 32
M  V30 35 1 6 33
M  V30 36 1 8 34
M  V30 37 1 11 35
M  V30 38 1 12 36
M  V30 39 1 12 37
M  V30 40 1 14 38
M  V30 41 1 15 39
M  V30 42 1 16 40
M  V30 43 1 20 41
M  V30 44 1 21 42
M  V30 45 1 21 43
M  V30 46 1 22 44
M  V30 47 1 22 45
M  V30 48 1 24 46
M  V30 49 1 25 47
M  V30 50 1 27 48
M  V30 51 1 28 49
M  V30 52 1 29 50
M  V30 53 1 30 51
M  V30 END BOND
M  V30 END CTAB
M  END
>  <Dataset>  (941) 
ChEMBL_Kinases

>  <Ligand_Instance>  (941) 
nan

>  <PDB_ID>  (941) 
nan

>  <Standardized_SMILES>  (941) 
N#Cc1cccc(NC(=O)NCc2cccc(C(=O)NCCc3ccncc3)c2)c1

>  <Name>  (941) 
nan

>  <Pocket>  (941) 
nan

>  <ATP_Site>  (941) 
nan

>  <Peripheral>  (941) 
nan

>  <Num_H_Atoms_ProtBoundConf>  (941) 
nan

>  <Num_Resolved_Atoms>  (941) 
nan

>  <Num_Not_Resolved_Atoms>  (941) 
nan

$$$$
CHEMBL3915966
     RDKit          3D

  0  0  0  0  0  0  0  0  0  0999 V3000
M  V30 BEGIN CTAB
M  V30 COUNTS 30 33 0 0 0
M  V30 BEGIN ATOM
M  V30 1 O -1.036373 2.497053 1.673578 0
M  V30 2 C 0.105834 2.094558 1.345391 0
M  V30 3 N 1.287248 2.725018 1.227569 0
M  V30 4 C 2.234680 1.849586 0.840680 0
M  V30 5 C 3.582434 2.016413 0.589313 0
M  V30 6 C 4.283088 0.891724 0.202146 0
M  V30 7 C 3.710992 -0.357377 0.059373 0
M  V30 8 O 4.417841 -1.487277 -0.330215 0
M  V30 9 C 2.360458 -0.424891 0.332359 0
M  V30 10 C 1.581398 0.638755 0.723280 0
M  V30 11 N 0.270039 0.776598 1.031415 0
M  V30 12 C -0.616470 -0.339848 0.983608 0
M  V30 13 N -1.020635 -1.010091 2.098642 0
M  V30 14 C -1.851476 -2.009454 1.722680 0
M  V30 15 C -2.534683 -2.975460 2.430286 0
M  V30 16 C -3.328445 -3.880430 1.720028 0
M  V30 17 C -3.413185 -3.790521 0.329203 0
M  V30 18 C -2.709695 -2.802412 -0.353056 0
M  V30 19 C -1.927564 -1.911791 0.354464 0
M  V30 20 N -1.169479 -0.884814 -0.114147 0
M  V30 21 H 1.412151 3.751518 1.418339 0
M  V30 22 H 4.080958 2.959049 0.682850 0
M  V30 23 H 5.359823 0.934131 -0.017914 0
M  V30 24 H 4.509905 -2.234045 0.346027 0
M  V30 25 H 1.897171 -1.415005 0.221273 0
M  V30 26 H -2.464319 -3.040280 3.515832 0
M  V30 27 H -3.878033 -4.651644 2.247890 0
M  V30 28 H -4.060846 -4.543495 -0.147569 0
M  V30 29 H -2.842567 -2.815944 -1.444530 0
M  V30 30 H -1.037375 -0.576765 -1.105892 0
M  V30 END ATOM
M  V30 BEGIN BOND
M  V30 1 2 1 2
M  V30 2 1 2 3
M  V30 3 1 3 4
M  V30 4 2 4 5
M  V30 5 1 5 6
M  V30 6 2 6 7
M  V30 7 1 7 8
M  V30 8 1 7 9
M  V30 9 2 9 10
M  V30 10 1 10 11
M  V30 11 1 11 12
M  V30 12 2 12 13
M  V30 13 1 13 14
M  V30 14 2 14 15
M  V30 15 1 15 16
M  V30 16 2 16 17
M  V30 17 1 17 18
M  V30 18 2 18 19
M  V30 19 1 19 20
M  V30 20 1 11 2
M  V30 21 1 20 12
M  V30 22 1 10 4
M  V30 23 1 19 14
M  V30 24 1 3 21
M  V30 25 1 5 22
M  V30 26 1 6 23
M  V30 27 1 8 24
M  V30 28 1 9 25
M  V30 29 1 15 26
M  V30 30 1 16 27
M  V30 31 1 17 28
M  V30 32 1 18 29
M  V30 33 1 20 30
M  V30 END BOND
M  V30 END CTAB
M  END
>  <Dataset>  (942) 
ChEMBL_Kinases

>  <Ligand_Instance>  (942) 
nan

>  <PDB_ID>  (942) 
nan

>  <Standardized_SMILES>  (942) 
O=c1[nH]c2ccc(O)cc2n1-c1nc2ccccc2[nH]1

>  <Name>  (942) 
nan

>  <Pocket>  (942) 
nan

>  <ATP_Site>  (942) 
nan

>  <Peripheral>  (942) 
nan

>  <Num_H_Atoms_ProtBoundConf>  (942) 
nan

>  <Num_Resolved_Atoms>  (942) 
nan

>  <Num_Not_Resolved_Atoms>  (942) 
nan

$$$$
CHEMBL3915993
     RDKit          3D

  0  0  0  0  0  0  0  0  0  0999 V3000
M  V30 BEGIN CTAB
M  V30 COUNTS 59 62 0 0 0
M  V30 BEGIN ATOM
M  V30 1 C 1.578114 -2.134483 5.122447 0
M  V30 2 C 1.758592 -1.688941 3.687477 0
M  V30 3 N 2.896505 -2.277868 3.063733 0
M  V30 4 C 2.830872 -3.681102 2.821209 0
M  V30 5 C 2.326751 -4.073092 1.461752 0
M  V30 6 N 2.128448 -2.860666 0.651356 0
M  V30 7 C 0.855993 -2.689669 0.068089 0
M  V30 8 O 0.968467 -1.614112 -0.560196 0
M  V30 9 N -0.274381 -2.261401 -0.623672 0
M  V30 10 C -0.665794 -1.148653 -1.460374 0
M  V30 11 C -2.024568 -0.851907 -0.877237 0
M  V30 12 C -2.967825 0.148282 -0.662865 0
M  V30 13 N -2.829561 1.514077 -1.061611 0
M  V30 14 C -2.248306 2.541711 -0.275441 0
M  V30 15 O -1.824265 2.202742 0.866368 0
M  V30 16 C -2.150966 3.914769 -0.769796 0
M  V30 17 C -1.569892 4.856034 0.052432 0
M  V30 18 C -1.468175 6.172036 -0.403033 0
M  V30 19 C -1.929288 6.578036 -1.656005 0
M  V30 20 C -2.500377 5.570840 -2.421240 0
M  V30 21 N -2.603138 4.283282 -1.983061 0
M  V30 22 N -3.992958 -0.455440 -0.022605 0
M  V30 23 N -3.728155 -1.733424 0.157347 0
M  V30 24 C -2.524205 -2.026216 -0.353334 0
M  V30 25 C -1.503212 -3.071511 -0.596343 0
M  V30 26 C -1.691823 -3.682967 -1.963402 0
M  V30 27 C -1.485589 -4.113848 0.491690 0
M  V30 28 C 3.366870 -2.117154 0.670053 0 CFG=1
M  V30 29 C 3.407436 -1.013477 -0.373097 0
M  V30 30 C 3.491161 -1.491055 2.041320 0
M  V30 31 H 1.357685 -3.218884 5.204083 0
M  V30 32 H 0.898969 -1.481789 5.671204 0
M  V30 33 H 2.588291 -1.994846 5.604250 0
M  V30 34 H 1.941421 -0.590843 3.734833 0
M  V30 35 H 0.798996 -1.865123 3.175940 0
M  V30 36 H 2.207334 -4.161796 3.607570 0
M  V30 37 H 3.857352 -4.120729 2.957535 0
M  V30 38 H 1.397609 -4.681670 1.497576 0
M  V30 39 H 3.104223 -4.713821 0.975333 0
M  V30 40 H -0.018171 -0.278560 -1.436197 0
M  V30 41 H -0.782456 -1.582829 -2.490345 0
M  V30 42 H -3.177487 1.821622 -2.011832 0
M  V30 43 H -1.170314 4.663578 1.051838 0
M  V30 44 H -1.023138 6.941676 0.200867 0
M  V30 45 H -1.852525 7.586170 -2.008459 0
M  V30 46 H -2.890708 5.783308 -3.414258 0
M  V30 47 H -4.388252 -2.393797 0.634225 0
M  V30 48 H -0.742235 -3.657976 -2.548366 0
M  V30 49 H -2.114145 -4.701661 -1.889340 0
M  V30 50 H -2.430093 -3.074906 -2.553945 0
M  V30 51 H -0.804160 -4.951437 0.238446 0
M  V30 52 H -2.509508 -4.541530 0.520133 0
M  V30 53 H -1.301879 -3.691280 1.486095 0
M  V30 54 H 4.240777 -2.791952 0.438927 0
M  V30 55 H 4.480289 -0.684395 -0.507700 0
M  V30 56 H 2.747927 -0.173716 -0.163567 0
M  V30 57 H 3.145329 -1.466047 -1.349653 0
M  V30 58 H 2.930532 -0.517736 1.987271 0
M  V30 59 H 4.550480 -1.268792 2.305125 0
M  V30 END ATOM
M  V30 BEGIN BOND
M  V30 1 1 1 2
M  V30 2 1 2 3
M  V30 3 1 3 4
M  V30 4 1 4 5
M  V30 5 1 5 6
M  V30 6 1 6 7
M  V30 7 2 7 8
M  V30 8 1 7 9
M  V30 9 1 9 10
M  V30 10 1 10 11
M  V30 11 1 11 12
M  V30 12 1 12 13
M  V30 13 1 13 14
M  V30 14 2 14 15
M  V30 15 1 14 16
M  V30 16 2 16 17
M  V30 17 1 17 18
M  V30 18 2 18 19
M  V30 19 1 19 20
M  V30 20 2 20 21
M  V30 21 2 12 22
M  V30 22 1 22 23
M  V30 23 1 23 24
M  V30 24 1 24 25
M  V30 25 1 25 26
M  V30 26 1 25 27
M  V30 27 1 6 28
M  V30 28 1 28 29
M  V30 29 1 28 30
M  V30 30 1 30 3
M  V30 31 1 25 9
M  V30 32 2 24 11
M  V30 33 1 21 16
M  V30 34 1 1 31
M  V30 35 1 1 32
M  V30 36 1 1 33
M  V30 37 1 2 34
M  V30 38 1 2 35
M  V30 39 1 4 36
M  V30 40 1 4 37
M  V30 41 1 5 38
M  V30 42 1 5 39
M  V30 43 1 10 40
M  V30 44 1 10 41
M  V30 45 1 13 42
M  V30 46 1 17 43
M  V30 47 1 18 44
M  V30 48 1 19 45
M  V30 49 1 20 46
M  V30 50 1 23 47
M  V30 51 1 26 48
M  V30 52 1 26 49
M  V30 53 1 26 50
M  V30 54 1 27 51
M  V30 55 1 27 52
M  V30 56 1 27 53
M  V30 57 1 28 54 CFG=3
M  V30 58 1 29 55
M  V30 59 1 29 56
M  V30 60 1 29 57
M  V30 61 1 30 58
M  V30 62 1 30 59
M  V30 END BOND
M  V30 END CTAB
M  END
>  <Dataset>  (943) 
ChEMBL_Kinases

>  <Ligand_Instance>  (943) 
nan

>  <PDB_ID>  (943) 
nan

>  <Standardized_SMILES>  (943) 
CCN1CCN(C(=O)N2Cc3c(NC(=O)c4ccccn4)n[nH]c3C2(C)C)[C@@H](C)C1

>  <Name>  (943) 
nan

>  <Pocket>  (943) 
nan

>  <ATP_Site>  (943) 
nan

>  <Peripheral>  (943) 
nan

>  <Num_H_Atoms_ProtBoundConf>  (943) 
nan

>  <Num_Resolved_Atoms>  (943) 
nan

>  <Num_Not_Resolved_Atoms>  (943) 
nan

$$$$
CHEMBL597522
     RDKit          3D

  0  0  0  0  0  0  0  0  0  0999 V3000
M  V30 BEGIN CTAB
M  V30 COUNTS 55 57 0 0 0
M  V30 BEGIN ATOM
M  V30 1 C 0.317087 -7.897089 0.794497 0
M  V30 2 O 1.476079 -7.249839 0.344031 0
M  V30 3 C 1.636883 -5.903660 0.629280 0
M  V30 4 C 0.655261 -5.231377 1.348037 0
M  V30 5 C 0.770857 -3.871270 1.661841 0
M  V30 6 C 1.898231 -3.168555 1.244681 0
M  V30 7 C 1.976926 -1.757835 1.597674 0
M  V30 8 O 1.013282 -1.277506 2.249950 0
M  V30 9 N 3.030198 -0.893064 1.274892 0
M  V30 10 C 3.132094 0.509899 1.615921 0
M  V30 11 C 2.282864 1.388124 0.774355 0
M  V30 12 C 2.888760 1.872933 -0.387468 0
M  V30 13 C 2.271857 2.709908 -1.303833 0
M  V30 14 C 0.949966 3.093540 -1.042895 0
M  V30 15 C 0.354868 2.616665 0.099162 0
M  V30 16 C -1.009363 3.035910 0.342637 0
M  V30 17 O -1.555866 3.832132 -0.488636 0
M  V30 18 N -1.852040 2.664235 1.425399 0
M  V30 19 C -3.181104 3.167696 1.526243 0
M  V30 20 C -4.091970 2.844328 0.384878 0
M  V30 21 C -5.503547 3.237495 0.842996 0
M  V30 22 C -6.384587 2.405156 -0.065126 0
M  V30 23 C -5.394860 1.423443 -0.653419 0
M  V30 24 O -4.263360 1.482509 0.191839 0
M  V30 25 C 1.002513 1.785157 0.986431 0
M  V30 26 C 2.868298 -3.839812 0.532326 0
M  V30 27 C 2.739404 -5.178633 0.231603 0
M  V30 28 O 3.677887 -5.906724 -0.479239 0
M  V30 29 C 4.858506 -5.286220 -0.947492 0
M  V30 30 H 0.373004 -8.000836 1.910340 0
M  V30 31 H -0.570090 -7.349486 0.448798 0
M  V30 32 H 0.234938 -8.916704 0.339464 0
M  V30 33 H -0.241493 -5.755399 1.689453 0
M  V30 34 H -0.051355 -3.424488 2.231764 0
M  V30 35 H 3.814992 -1.351271 0.722791 0
M  V30 36 H 2.911695 0.664723 2.710234 0
M  V30 37 H 4.204009 0.809123 1.521006 0
M  V30 38 H 3.912994 1.617316 -0.655285 0
M  V30 39 H 2.761645 3.065188 -2.184528 0
M  V30 40 H 0.472208 3.741289 -1.752180 0
M  V30 41 H -1.403501 1.998294 2.122818 0
M  V30 42 H -3.631589 2.696973 2.448346 0
M  V30 43 H -3.120941 4.245481 1.748597 0
M  V30 44 H -3.829280 3.305551 -0.562404 0
M  V30 45 H -5.651203 4.313613 0.764030 0
M  V30 46 H -5.589638 2.834671 1.873634 0
M  V30 47 H -7.183510 1.906499 0.496697 0
M  V30 48 H -6.825618 3.079635 -0.842790 0
M  V30 49 H -5.806924 0.411804 -0.698907 0
M  V30 50 H -5.136753 1.757634 -1.679982 0
M  V30 51 H 0.542550 1.403524 1.889616 0
M  V30 52 H 3.742600 -3.312362 0.203701 0
M  V30 53 H 5.607926 -6.027056 -1.280934 0
M  V30 54 H 5.293001 -4.558287 -0.229336 0
M  V30 55 H 4.550291 -4.703908 -1.858260 0
M  V30 END ATOM
M  V30 BEGIN BOND
M  V30 1 1 1 2
M  V30 2 1 2 3
M  V30 3 2 3 4
M  V30 4 1 4 5
M  V30 5 2 5 6
M  V30 6 1 6 7
M  V30 7 2 7 8
M  V30 8 1 7 9
M  V30 9 1 9 10
M  V30 10 1 10 11
M  V30 11 2 11 12
M  V30 12 1 12 13
M  V30 13 2 13 14
M  V30 14 1 14 15
M  V30 15 1 15 16
M  V30 16 2 16 17
M  V30 17 1 16 18
M  V30 18 1 18 19
M  V30 19 1 19 20
M  V30 20 1 20 21
M  V30 21 1 21 22
M  V30 22 1 22 23
M  V30 23 1 23 24
M  V30 24 2 15 25
M  V30 25 1 6 26
M  V30 26 2 26 27
M  V30 27 1 27 28
M  V30 28 1 28 29
M  V30 29 1 27 3
M  V30 30 1 25 11
M  V30 31 1 24 20
M  V30 32 1 1 30
M  V30 33 1 1 31
M  V30 34 1 1 32
M  V30 35 1 4 33
M  V30 36 1 5 34
M  V30 37 1 9 35
M  V30 38 1 10 36
M  V30 39 1 10 37
M  V30 40 1 12 38
M  V30 41 1 13 39
M  V30 42 1 14 40
M  V30 43 1 18 41
M  V30 44 1 19 42
M  V30 45 1 19 43
M  V30 46 1 20 44
M  V30 47 1 21 45
M  V30 48 1 21 46
M  V30 49 1 22 47
M  V30 50 1 22 48
M  V30 51 1 23 49
M  V30 52 1 23 50
M  V30 53 1 25 51
M  V30 54 1 26 52
M  V30 55 1 29 53
M  V30 56 1 29 54
M  V30 57 1 29 55
M  V30 END BOND
M  V30 END CTAB
M  END
>  <Dataset>  (944) 
ChEMBL_Kinases

>  <Ligand_Instance>  (944) 
nan

>  <PDB_ID>  (944) 
nan

>  <Standardized_SMILES>  (944) 
COc1ccc(C(=O)NCc2cccc(C(=O)NCC3CCCO3)c2)cc1OC

>  <Name>  (944) 
nan

>  <Pocket>  (944) 
nan

>  <ATP_Site>  (944) 
nan

>  <Peripheral>  (944) 
nan

>  <Num_H_Atoms_ProtBoundConf>  (944) 
nan

>  <Num_Resolved_Atoms>  (944) 
nan

>  <Num_Not_Resolved_Atoms>  (944) 
nan

$$$$
CHEMBL491748
     RDKit          3D

  0  0  0  0  0  0  0  0  0  0999 V3000
M  V30 BEGIN CTAB
M  V30 COUNTS 46 49 0 0 0
M  V30 BEGIN ATOM
M  V30 1 C 2.433284 -4.214590 2.038503 0
M  V30 2 O 2.631294 -3.053880 1.264728 0
M  V30 3 C 3.480813 -2.063252 1.745893 0
M  V30 4 C 4.123948 -2.220813 2.976991 0
M  V30 5 C 4.966141 -1.252034 3.466101 0
M  V30 6 C 5.187707 -0.108209 2.744969 0
M  V30 7 C 4.554724 0.055728 1.524597 0
M  V30 8 C 3.694435 -0.917777 1.009893 0
M  V30 9 C 3.050905 -0.687016 -0.313677 0
M  V30 10 N 1.645199 -0.349700 -0.215407 0
M  V30 11 C 1.199910 0.804202 0.508035 0
M  V30 12 N 2.097174 1.599494 1.120152 0
M  V30 13 C 1.770624 2.699133 1.821246 0
M  V30 14 N 0.482672 3.080068 1.955362 0
M  V30 15 C -0.459985 2.336024 1.373297 0
M  V30 16 C -1.785032 2.699910 1.494346 0
M  V30 17 C -2.773335 1.924722 0.889334 0
M  V30 18 C -2.416305 0.786256 0.165593 0
M  V30 19 C -3.474475 -0.000078 -0.454080 0
M  V30 20 C -4.646663 0.579643 -0.925310 0
M  V30 21 C -5.574744 -0.267792 -1.490736 0
M  V30 22 C -5.426342 -1.643261 -1.622879 0
M  V30 23 C -4.251537 -2.195978 -1.146479 0
M  V30 24 C -4.058386 -3.626199 -1.264014 0
M  V30 25 N -3.904258 -4.753574 -1.369542 0
M  V30 26 C -3.307668 -1.365408 -0.576034 0
M  V30 27 C -1.081917 0.459150 0.069558 0
M  V30 28 C -0.108554 1.210875 0.657505 0
M  V30 29 H 3.410155 -4.650766 2.352127 0
M  V30 30 H 1.825660 -4.973417 1.542479 0
M  V30 31 H 1.891949 -3.875320 2.961876 0
M  V30 32 H 3.980591 -3.108866 3.584319 0
M  V30 33 H 5.457733 -1.397751 4.431222 0
M  V30 34 H 5.854269 0.616184 3.170731 0
M  V30 35 H 4.795346 0.983696 1.029974 0
M  V30 36 H 3.618009 0.110866 -0.860186 0
M  V30 37 H 3.131385 -1.639072 -0.876776 0
M  V30 38 H 0.969393 -0.980750 -0.692956 0
M  V30 39 H 2.626596 3.233611 2.255892 0
M  V30 40 H -2.092115 3.575591 2.047410 0
M  V30 41 H -3.811720 2.248915 1.010176 0
M  V30 42 H -4.790408 1.632080 -0.838361 0
M  V30 43 H -6.503715 0.155777 -1.869648 0
M  V30 44 H -6.224163 -2.227244 -2.087647 0
M  V30 45 H -2.401392 -1.833134 -0.214372 0
M  V30 46 H -0.898906 -0.432514 -0.506306 0
M  V30 END ATOM
M  V30 BEGIN BOND
M  V30 1 1 1 2
M  V30 2 1 2 3
M  V30 3 2 3 4
M  V30 4 1 4 5
M  V30 5 2 5 6
M  V30 6 1 6 7
M  V30 7 2 7 8
M  V30 8 1 8 9
M  V30 9 1 9 10
M  V30 10 1 10 11
M  V30 11 2 11 12
M  V30 12 1 12 13
M  V30 13 2 13 14
M  V30 14 1 14 15
M  V30 15 2 15 16
M  V30 16 1 16 17
M  V30 17 2 17 18
M  V30 18 1 18 19
M  V30 19 2 19 20
M  V30 20 1 20 21
M  V30 21 2 21 22
M  V30 22 1 22 23
M  V30 23 1 23 24
M  V30 24 3 24 25
M  V30 25 2 23 26
M  V30 26 1 18 27
M  V30 27 2 27 28
M  V30 28 1 8 3
M  V30 29 1 28 11
M  V30 30 1 28 15
M  V30 31 1 26 19
M  V30 32 1 1 29
M  V30 33 1 1 30
M  V30 34 1 1 31
M  V30 35 1 4 32
M  V30 36 1 5 33
M  V30 37 1 6 34
M  V30 38 1 7 35
M  V30 39 1 9 36
M  V30 40 1 9 37
M  V30 41 1 10 38
M  V30 42 1 13 39
M  V30 43 1 16 40
M  V30 44 1 17 41
M  V30 45 1 20 42
M  V30 46 1 21 43
M  V30 47 1 22 44
M  V30 48 1 26 45
M  V30 49 1 27 46
M  V30 END BOND
M  V30 END CTAB
M  END
>  <Dataset>  (945) 
ChEMBL_Kinases

>  <Ligand_Instance>  (945) 
nan

>  <PDB_ID>  (945) 
nan

>  <Standardized_SMILES>  (945) 
COc1ccccc1CNc1ncnc2ccc(-c3cccc(C#N)c3)cc12

>  <Name>  (945) 
nan

>  <Pocket>  (945) 
nan

>  <ATP_Site>  (945) 
nan

>  <Peripheral>  (945) 
nan

>  <Num_H_Atoms_ProtBoundConf>  (945) 
nan

>  <Num_Resolved_Atoms>  (945) 
nan

>  <Num_Not_Resolved_Atoms>  (945) 
nan

$$$$
CHEMBL3883764
     RDKit          3D

  0  0  0  0  0  0  0  0  0  0999 V3000
M  V30 BEGIN CTAB
M  V30 COUNTS 28 31 0 0 0
M  V30 BEGIN ATOM
M  V30 1 N 0.524324 -4.599928 2.138460 0
M  V30 2 C 0.779510 -3.551097 1.722664 0
M  V30 3 C 1.119854 -2.257977 1.206046 0
M  V30 4 C 2.457069 -2.019740 0.904799 0
M  V30 5 C 2.823443 -0.770088 0.399478 0
M  V30 6 C 4.162278 -0.507888 0.089418 0
M  V30 7 N 4.530508 0.686184 -0.396358 0
M  V30 8 C 3.640520 1.654104 -0.597977 0
M  V30 9 C 2.301321 1.432139 -0.302222 0
M  V30 10 C 1.867613 0.206443 0.205429 0
M  V30 11 C 0.534916 -0.005850 0.496684 0
M  V30 12 N -0.567483 0.767916 0.398716 0
M  V30 13 C -1.628892 0.026935 0.834836 0
M  V30 14 C -2.951151 0.417545 0.909189 0
M  V30 15 C -3.865830 -0.517878 1.390995 0
M  V30 16 C -3.405260 -1.764987 1.761706 0
M  V30 17 C -2.074674 -2.120176 1.673360 0
M  V30 18 C -1.152056 -1.216971 1.201771 0
M  V30 19 C 0.209156 -1.250895 0.993794 0
M  V30 20 H 3.259472 -2.736052 1.030763 0
M  V30 21 H 4.906930 -1.259688 0.237383 0
M  V30 22 H 3.917729 2.640268 -0.994824 0
M  V30 23 H 1.564239 2.226335 -0.466542 0
M  V30 24 H -0.570392 1.764110 0.043582 0
M  V30 25 H -3.283957 1.383980 0.618011 0
M  V30 26 H -4.935202 -0.289648 1.482419 0
M  V30 27 H -4.142581 -2.490463 2.139897 0
M  V30 28 H -1.815798 -3.099619 1.981131 0
M  V30 END ATOM
M  V30 BEGIN BOND
M  V30 1 3 1 2
M  V30 2 1 2 3
M  V30 3 2 3 4
M  V30 4 1 4 5
M  V30 5 2 5 6
M  V30 6 1 6 7
M  V30 7 2 7 8
M  V30 8 1 8 9
M  V30 9 2 9 10
M  V30 10 1 10 11
M  V30 11 1 11 12
M  V30 12 1 12 13
M  V30 13 2 13 14
M  V30 14 1 14 15
M  V30 15 2 15 16
M  V30 16 1 16 17
M  V30 17 2 17 18
M  V30 18 1 18 19
M  V30 19 1 19 3
M  V30 20 1 10 5
M  V30 21 2 19 11
M  V30 22 1 18 13
M  V30 23 1 4 20
M  V30 24 1 6 21
M  V30 25 1 8 22
M  V30 26 1 9 23
M  V30 27 1 12 24
M  V30 28 1 14 25
M  V30 29 1 15 26
M  V30 30 1 16 27
M  V30 31 1 17 28
M  V30 END BOND
M  V30 END CTAB
M  END
>  <Dataset>  (946) 
ChEMBL_Kinases

>  <Ligand_Instance>  (946) 
nan

>  <PDB_ID>  (946) 
nan

>  <Standardized_SMILES>  (946) 
N#Cc1cc2cnccc2c2[nH]c3ccccc3c12

>  <Name>  (946) 
nan

>  <Pocket>  (946) 
nan

>  <ATP_Site>  (946) 
nan

>  <Peripheral>  (946) 
nan

>  <Num_H_Atoms_ProtBoundConf>  (946) 
nan

>  <Num_Resolved_Atoms>  (946) 
nan

>  <Num_Not_Resolved_Atoms>  (946) 
nan

$$$$
CHEMBL597429
     RDKit          3D

  0  0  0  0  0  0  0  0  0  0999 V3000
M  V30 BEGIN CTAB
M  V30 COUNTS 61 64 0 0 0
M  V30 BEGIN ATOM
M  V30 1 C 1.235533 -3.991430 3.355589 0
M  V30 2 O 0.347123 -2.973687 2.927262 0
M  V30 3 C 0.856049 -1.687837 2.806842 0
M  V30 4 N 2.136478 -1.373674 3.075417 0
M  V30 5 C 2.601111 -0.118915 2.949825 0
M  V30 6 N 3.807587 0.423561 3.154909 0
M  V30 7 C 3.840245 1.733838 2.907187 0
M  V30 8 C 2.558953 2.122291 2.500795 0
M  V30 9 C 2.222548 3.470646 2.149791 0
M  V30 10 O 3.203018 4.288283 2.243987 0
M  V30 11 C 1.095272 4.241483 1.706657 0
M  V30 12 O -0.088744 3.877077 1.472837 0
M  V30 13 N 1.159347 5.661074 1.442978 0
M  V30 14 C 2.342267 6.485603 1.583921 0
M  V30 15 C -0.022985 6.372160 0.999264 0
M  V30 16 C 1.840661 0.952996 2.544176 0
M  V30 17 C 0.529986 0.655703 2.264459 0
M  V30 18 C 0.069034 -0.634268 2.397900 0
M  V30 19 C -1.326701 -0.902476 2.090850 0
M  V30 20 O -2.329856 -0.868397 2.852339 0
M  V30 21 N -1.814897 -1.264270 0.822709 0
M  V30 22 C -3.237343 -1.498135 0.681843 0
M  V30 23 C -3.595406 -2.689002 -0.127058 0
M  V30 24 C -2.594194 -3.162782 -1.114655 0
M  V30 25 C -2.824538 -4.600198 -1.533826 0
M  V30 26 C -1.787488 -4.977892 -2.510017 0
M  V30 27 C -0.561194 -5.543017 -2.225039 0
M  V30 28 C 0.347819 -5.862725 -3.213494 0
M  V30 29 C 0.055627 -5.624281 -4.536093 0
M  V30 30 F 0.917074 -5.920089 -5.559638 0
M  V30 31 C -1.149064 -5.063852 -4.881014 0
M  V30 32 C -2.019055 -4.764581 -3.853102 0
M  V30 33 C -1.175096 -2.913514 -0.739355 0
M  V30 34 C -1.041805 -1.431199 -0.377898 0
M  V30 35 H 2.210760 -3.580229 3.680633 0
M  V30 36 H 1.464360 -4.605423 2.446447 0
M  V30 37 H 0.782601 -4.612996 4.167363 0
M  V30 38 H 4.629646 -0.140781 3.476877 0
M  V30 39 H 4.775186 2.305187 3.036536 0
M  V30 40 H 2.640773 6.468797 2.647312 0
M  V30 41 H 3.190350 6.169059 0.952922 0
M  V30 42 H 2.085911 7.519593 1.285445 0
M  V30 43 H -0.891381 5.724793 1.182957 0
M  V30 44 H 0.079598 6.463948 -0.111286 0
M  V30 45 H -0.108110 7.358398 1.500901 0
M  V30 46 H -0.120212 1.414079 1.948638 0
M  V30 47 H -3.767718 -1.436598 1.651264 0
M  V30 48 H -3.615103 -0.599640 0.109603 0
M  V30 49 H -3.759106 -3.545137 0.591390 0
M  V30 50 H -4.599825 -2.560038 -0.609342 0
M  V30 51 H -2.774530 -2.563646 -2.056692 0
M  V30 52 H -3.805380 -4.728111 -2.038902 0
M  V30 53 H -2.784060 -5.231488 -0.619040 0
M  V30 54 H -0.346351 -5.725671 -1.164901 0
M  V30 55 H 1.294059 -6.302460 -2.949430 0
M  V30 56 H -1.406426 -4.865012 -5.916038 0
M  V30 57 H -2.964469 -4.322867 -4.145985 0
M  V30 58 H -0.854927 -3.494185 0.157349 0
M  V30 59 H -0.460566 -3.185060 -1.540952 0
M  V30 60 H -1.533361 -0.880959 -1.218592 0
M  V30 61 H 0.013100 -1.122667 -0.289396 0
M  V30 END ATOM
M  V30 BEGIN BOND
M  V30 1 1 1 2
M  V30 2 1 2 3
M  V30 3 2 3 4
M  V30 4 1 4 5
M  V30 5 1 5 6
M  V30 6 1 6 7
M  V30 7 2 7 8
M  V30 8 1 8 9
M  V30 9 2 9 10
M  V30 10 1 9 11
M  V30 11 2 11 12
M  V30 12 1 11 13
M  V30 13 1 13 14
M  V30 14 1 13 15
M  V30 15 1 8 16
M  V30 16 1 16 17
M  V30 17 2 17 18
M  V30 18 1 18 19
M  V30 19 2 19 20
M  V30 20 1 19 21
M  V30 21 1 21 22
M  V30 22 1 22 23
M  V30 23 1 23 24
M  V30 24 1 24 25
M  V30 25 1 25 26
M  V30 26 2 26 27
M  V30 27 1 27 28
M  V30 28 2 28 29
M  V30 29 1 29 30
M  V30 30 1 29 31
M  V30 31 2 31 32
M  V30 32 1 24 33
M  V30 33 1 33 34
M  V30 34 1 18 3
M  V30 35 1 34 21
M  V30 36 2 16 5
M  V30 37 1 32 26
M  V30 38 1 1 35
M  V30 39 1 1 36
M  V30 40 1 1 37
M  V30 41 1 6 38
M  V30 42 1 7 39
M  V30 43 1 14 40
M  V30 44 1 14 41
M  V30 45 1 14 42
M  V30 46 1 15 43
M  V30 47 1 15 44
M  V30 48 1 15 45
M  V30 49 1 17 46
M  V30 50 1 22 47
M  V30 51 1 22 48
M  V30 52 1 23 49
M  V30 53 1 23 50
M  V30 54 1 24 51
M  V30 55 1 25 52
M  V30 56 1 25 53
M  V30 57 1 27 54
M  V30 58 1 28 55
M  V30 59 1 31 56
M  V30 60 1 32 57
M  V30 61 1 33 58
M  V30 62 1 33 59
M  V30 63 1 34 60
M  V30 64 1 34 61
M  V30 END BOND
M  V30 END CTAB
M  END
>  <Dataset>  (947) 
ChEMBL_Kinases

>  <Ligand_Instance>  (947) 
nan

>  <PDB_ID>  (947) 
nan

>  <Standardized_SMILES>  (947) 
COc1nc2[nH]cc(C(=O)C(=O)N(C)C)c2cc1C(=O)N1CCC(Cc2ccc(F)cc2)CC1

>  <Name>  (947) 
nan

>  <Pocket>  (947) 
nan

>  <ATP_Site>  (947) 
nan

>  <Peripheral>  (947) 
nan

>  <Num_H_Atoms_ProtBoundConf>  (947) 
nan

>  <Num_Resolved_Atoms>  (947) 
nan

>  <Num_Not_Resolved_Atoms>  (947) 
nan

$$$$
CHEMBL597428
     RDKit          3D

  0  0  0  0  0  0  0  0  0  0999 V3000
M  V30 BEGIN CTAB
M  V30 COUNTS 61 64 0 0 0
M  V30 BEGIN ATOM
M  V30 1 C 2.078737 -3.870762 2.336697 0
M  V30 2 O 1.068220 -2.865061 2.393472 0
M  V30 3 C 1.470734 -1.562060 2.127937 0
M  V30 4 C 2.764136 -1.206198 1.820980 0
M  V30 5 C 3.031106 0.116238 1.579515 0
M  V30 6 O 4.144535 0.720149 1.272823 0
M  V30 7 C 4.008391 2.002484 1.116911 0
M  V30 8 C 2.685030 2.338679 1.331117 0
M  V30 9 C 2.174833 3.674787 1.241443 0
M  V30 10 O 3.076432 4.534955 0.940220 0
M  V30 11 C 0.954114 4.426814 1.375746 0
M  V30 12 O -0.204499 3.973661 1.669130 0
M  V30 13 N 0.852790 5.843190 1.194352 0
M  V30 14 C 1.965334 6.723670 0.850394 0
M  V30 15 C -0.422532 6.502343 1.350683 0
M  V30 16 C 2.126356 1.139319 1.612846 0
M  V30 17 C 0.845399 0.746798 1.922584 0
M  V30 18 C 0.496090 -0.559423 2.178042 0
M  V30 19 C -0.890721 -0.930977 2.505529 0
M  V30 20 O -1.224798 -0.922804 3.739465 0
M  V30 21 N -1.661282 -1.252015 1.332062 0
M  V30 22 C -1.218476 -1.241105 -0.048415 0
M  V30 23 C -1.913550 -2.320985 -0.803186 0
M  V30 24 C -2.261173 -3.493844 0.050316 0
M  V30 25 C -2.995268 -4.564007 -0.717904 0
M  V30 26 C -2.122335 -5.024436 -1.822489 0
M  V30 27 C -1.238039 -6.068640 -1.608399 0
M  V30 28 C -0.371111 -6.604497 -2.538562 0
M  V30 29 C -0.376353 -6.058428 -3.801544 0
M  V30 30 F 0.431158 -6.507546 -4.785138 0
M  V30 31 C -1.236555 -5.019120 -4.064837 0
M  V30 32 C -2.083454 -4.514516 -3.111990 0
M  V30 33 C -3.060039 -3.144940 1.267696 0
M  V30 34 C -3.048882 -1.634168 1.536510 0
M  V30 35 H 1.703915 -4.864564 2.602234 0
M  V30 36 H 2.510990 -3.956378 1.305852 0
M  V30 37 H 2.936746 -3.550261 2.987833 0
M  V30 38 H 3.525950 -1.963532 1.778110 0
M  V30 39 H 4.893445 2.568666 0.860843 0
M  V30 40 H 2.722404 6.673064 1.673037 0
M  V30 41 H 1.583617 7.765391 0.813322 0
M  V30 42 H 2.392770 6.436997 -0.135492 0
M  V30 43 H -1.230157 5.758125 1.571021 0
M  V30 44 H -0.722351 7.021491 0.425091 0
M  V30 45 H -0.370719 7.259253 2.183083 0
M  V30 46 H 0.077162 1.483556 1.969712 0
M  V30 47 H -0.119717 -1.253865 -0.141431 0
M  V30 48 H -1.525151 -0.246323 -0.469395 0
M  V30 49 H -1.285155 -2.720982 -1.648289 0
M  V30 50 H -2.851949 -1.939695 -1.281112 0
M  V30 51 H -1.275081 -3.978266 0.319854 0
M  V30 52 H -3.981933 -4.217181 -1.087148 0
M  V30 53 H -3.105824 -5.419358 -0.003096 0
M  V30 54 H -1.206365 -6.525022 -0.621661 0
M  V30 55 H 0.286032 -7.421653 -2.283163 0
M  V30 56 H -1.298902 -4.530985 -5.048742 0
M  V30 57 H -2.768391 -3.690223 -3.313917 0
M  V30 58 H -4.099199 -3.484989 1.119552 0
M  V30 59 H -2.577712 -3.645600 2.140139 0
M  V30 60 H -3.688860 -1.195219 0.734761 0
M  V30 61 H -3.397708 -1.400616 2.540426 0
M  V30 END ATOM
M  V30 BEGIN BOND
M  V30 1 1 1 2
M  V30 2 1 2 3
M  V30 3 2 3 4
M  V30 4 1 4 5
M  V30 5 1 5 6
M  V30 6 1 6 7
M  V30 7 2 7 8
M  V30 8 1 8 9
M  V30 9 2 9 10
M  V30 10 1 9 11
M  V30 11 2 11 12
M  V30 12 1 11 13
M  V30 13 1 13 14
M  V30 14 1 13 15
M  V30 15 1 8 16
M  V30 16 1 16 17
M  V30 17 2 17 18
M  V30 18 1 18 19
M  V30 19 2 19 20
M  V30 20 1 19 21
M  V30 21 1 21 22
M  V30 22 1 22 23
M  V30 23 1 23 24
M  V30 24 1 24 25
M  V30 25 1 25 26
M  V30 26 2 26 27
M  V30 27 1 27 28
M  V30 28 2 28 29
M  V30 29 1 29 30
M  V30 30 1 29 31
M  V30 31 2 31 32
M  V30 32 1 24 33
M  V30 33 1 33 34
M  V30 34 1 18 3
M  V30 35 1 34 21
M  V30 36 2 16 5
M  V30 37 1 32 26
M  V30 38 1 1 35
M  V30 39 1 1 36
M  V30 40 1 1 37
M  V30 41 1 4 38
M  V30 42 1 7 39
M  V30 43 1 14 40
M  V30 44 1 14 41
M  V30 45 1 14 42
M  V30 46 1 15 43
M  V30 47 1 15 44
M  V30 48 1 15 45
M  V30 49 1 17 46
M  V30 50 1 22 47
M  V30 51 1 22 48
M  V30 52 1 23 49
M  V30 53 1 23 50
M  V30 54 1 24 51
M  V30 55 1 25 52
M  V30 56 1 25 53
M  V30 57 1 27 54
M  V30 58 1 28 55
M  V30 59 1 31 56
M  V30 60 1 32 57
M  V30 61 1 33 58
M  V30 62 1 33 59
M  V30 63 1 34 60
M  V30 64 1 34 61
M  V30 END BOND
M  V30 END CTAB
M  END
>  <Dataset>  (948) 
ChEMBL_Kinases

>  <Ligand_Instance>  (948) 
nan

>  <PDB_ID>  (948) 
nan

>  <Standardized_SMILES>  (948) 
COc1cc2occ(C(=O)C(=O)N(C)C)c2cc1C(=O)N1CCC(Cc2ccc(F)cc2)CC1

>  <Name>  (948) 
nan

>  <Pocket>  (948) 
nan

>  <ATP_Site>  (948) 
nan

>  <Peripheral>  (948) 
nan

>  <Num_H_Atoms_ProtBoundConf>  (948) 
nan

>  <Num_Resolved_Atoms>  (948) 
nan

>  <Num_Not_Resolved_Atoms>  (948) 
nan

$$$$
CHEMBL3916120
     RDKit          3D

  0  0  0  0  0  0  0  0  0  0999 V3000
M  V30 BEGIN CTAB
M  V30 COUNTS 48 51 0 0 0
M  V30 BEGIN ATOM
M  V30 1 O -4.945672 -2.790397 -4.096199 0
M  V30 2 C -3.672164 -2.278288 -4.382232 0
M  V30 3 C -2.737431 -3.413770 -4.622244 0
M  V30 4 O -2.636795 -4.245459 -3.531985 0
M  V30 5 C -2.186821 -3.971640 -2.288403 0
M  V30 6 C -1.669787 -2.899957 -1.601616 0
M  V30 7 C -1.289368 -2.932492 -0.280829 0
M  V30 8 C -0.766289 -1.682389 0.252107 0
M  V30 9 C 0.184436 -1.701990 1.240643 0
M  V30 10 C 0.702636 -0.545090 1.769793 0
M  V30 11 C 0.264714 0.667302 1.304506 0
M  V30 12 C 0.653496 1.918947 1.698569 0
M  V30 13 C 1.568910 2.498872 2.644488 0
M  V30 14 C 2.422882 2.097536 3.532276 0
M  V30 15 C 3.292369 2.840108 4.429729 0
M  V30 16 C 3.369115 4.212665 4.501931 0
M  V30 17 C 4.193644 4.917101 5.352961 0
M  V30 18 C 4.999217 4.175563 6.192108 0
M  V30 19 C 4.950364 2.797771 6.148852 0
M  V30 20 C 4.110149 2.134073 5.281333 0
M  V30 21 N -0.101618 2.732061 0.907014 0
M  V30 22 N -0.860906 2.007936 0.123514 0
M  V30 23 C -0.688070 0.690732 0.313821 0
M  V30 24 C -1.211709 -0.465604 -0.220994 0
M  V30 25 C -1.428429 -4.111741 0.417231 0
M  V30 26 C -1.939013 -5.236457 -0.197202 0
M  V30 27 C -2.314922 -5.158765 -1.546495 0
M  V30 28 O -2.802890 -6.418717 -1.950473 0
M  V30 29 H -4.833016 -3.527711 -3.444275 0
M  V30 30 H -3.822485 -1.671986 -5.324163 0
M  V30 31 H -3.378252 -1.544776 -3.626671 0
M  V30 32 H -1.699623 -2.996356 -4.813040 0
M  V30 33 H -3.044444 -3.977618 -5.550558 0
M  V30 34 H -1.593572 -2.036938 -2.241287 0
M  V30 35 H 0.510223 -2.656420 1.587253 0
M  V30 36 H 1.440962 -0.615790 2.538113 0
M  V30 37 H 1.636218 3.598729 2.708217 0
M  V30 38 H 2.457796 1.022520 3.574251 0
M  V30 39 H 2.751545 4.814254 3.858480 0
M  V30 40 H 4.215459 5.996915 5.369805 0
M  V30 41 H 5.680841 4.633051 6.896346 0
M  V30 42 H 5.590845 2.205157 6.816079 0
M  V30 43 H 4.125255 1.040438 5.302794 0
M  V30 44 H -1.516571 2.450836 -0.561620 0
M  V30 45 H -1.958818 -0.383535 -0.998368 0
M  V30 46 H -1.106303 -4.050013 1.446832 0
M  V30 47 H -1.991833 -6.076806 0.456176 0
M  V30 48 H -2.180249 -7.229075 -1.891838 0
M  V30 END ATOM
M  V30 BEGIN BOND
M  V30 1 1 1 2
M  V30 2 1 2 3
M  V30 3 1 3 4
M  V30 4 1 4 5
M  V30 5 2 5 6
M  V30 6 1 6 7
M  V30 7 1 7 8
M  V30 8 2 8 9
M  V30 9 1 9 10
M  V30 10 2 10 11
M  V30 11 1 11 12
M  V30 12 1 12 13
M  V30 13 2 13 14
M  V30 14 1 14 15
M  V30 15 2 15 16
M  V30 16 1 16 17
M  V30 17 2 17 18
M  V30 18 1 18 19
M  V30 19 2 19 20
M  V30 20 2 12 21
M  V30 21 1 21 22
M  V30 22 1 22 23
M  V30 23 2 23 24
M  V30 24 2 7 25
M  V30 25 1 25 26
M  V30 26 2 26 27
M  V30 27 1 27 28
M  V30 28 1 27 5
M  V30 29 1 24 8
M  V30 30 1 23 11
M  V30 31 1 20 15
M  V30 32 1 1 29
M  V30 33 1 2 30
M  V30 34 1 2 31
M  V30 35 1 3 32
M  V30 36 1 3 33
M  V30 37 1 6 34
M  V30 38 1 9 35
M  V30 39 1 10 36
M  V30 40 1 13 37
M  V30 41 1 14 38
M  V30 42 1 16 39
M  V30 43 1 17 40
M  V30 44 1 18 41
M  V30 45 1 19 42
M  V30 46 1 20 43
M  V30 47 1 22 44
M  V30 48 1 24 45
M  V30 49 1 25 46
M  V30 50 1 26 47
M  V30 51 1 28 48
M  V30 END BOND
M  V30 END CTAB
M  END
>  <Dataset>  (949) 
ChEMBL_Kinases

>  <Ligand_Instance>  (949) 
nan

>  <PDB_ID>  (949) 
nan

>  <Standardized_SMILES>  (949) 
OCCOc1cc(-c2ccc3c(/C=C/c4ccccc4)n[nH]c3c2)ccc1O

>  <Name>  (949) 
nan

>  <Pocket>  (949) 
nan

>  <ATP_Site>  (949) 
nan

>  <Peripheral>  (949) 
nan

>  <Num_H_Atoms_ProtBoundConf>  (949) 
nan

>  <Num_Resolved_Atoms>  (949) 
nan

>  <Num_Not_Resolved_Atoms>  (949) 
nan

$$$$
CHEMBL491621
     RDKit          3D

  0  0  0  0  0  0  0  0  0  0999 V3000
M  V30 BEGIN CTAB
M  V30 COUNTS 49 52 0 0 0
M  V30 BEGIN ATOM
M  V30 1 C 0.337958 -4.525207 2.147135 0
M  V30 2 O -0.471708 -4.068076 1.107621 0
M  V30 3 C -0.033371 -3.213265 0.088876 0
M  V30 4 C 1.356278 -2.762080 -0.078594 0
M  V30 5 C 1.380727 -1.907224 -1.185337 0
M  V30 6 C 0.438307 -1.541607 -1.906933 0
M  V30 7 C 0.591534 -0.382227 -2.784766 0
M  V30 8 N 0.610237 0.219072 -3.966125 0
M  V30 9 O 0.918256 1.537643 -3.826067 0
M  V30 10 C 1.132017 1.870637 -2.620934 0
M  V30 11 C 1.453278 3.044671 -1.913551 0
M  V30 12 N 1.603819 3.069306 -0.579635 0
M  V30 13 C 1.469974 1.991273 0.179432 0
M  V30 14 N 1.652201 2.000807 1.576898 0
M  V30 15 C 1.279242 0.919069 2.538611 0 CFG=1
M  V30 16 C 1.993523 1.040488 3.817403 0
M  V30 17 C -0.187950 0.823498 2.490971 0
M  V30 18 C -0.762475 -0.423569 2.505053 0
M  V30 19 C -2.108666 -0.512037 2.298509 0
M  V30 20 C -2.727697 0.735177 2.086364 0
M  V30 21 C -2.225382 1.972547 2.062045 0
M  V30 22 C -0.859903 2.068088 2.288510 0
M  V30 23 C 1.143939 0.862083 -0.515650 0
M  V30 24 C 0.938397 0.726267 -1.950888 0
M  V30 25 C -0.916933 -1.953849 -1.818997 0
M  V30 26 C -1.321448 -2.889840 -0.778974 0
M  V30 27 O -2.006599 -3.633401 -0.159756 0
M  V30 28 C -2.834126 -4.502422 0.549638 0
M  V30 29 H 0.220255 -5.532342 2.458301 0
M  V30 30 H 1.340257 -4.058938 2.106944 0
M  V30 31 H -0.076272 -3.876768 3.097214 0
M  V30 32 H 2.132174 -3.200026 0.409437 0
M  V30 33 H 2.398080 -1.707135 -1.652924 0
M  V30 34 H 1.574201 3.954332 -2.508095 0
M  V30 35 H 2.063968 2.880929 2.004541 0
M  V30 36 H 1.715570 -0.010670 2.039202 0
M  V30 37 H 2.893306 0.277377 3.920453 0
M  V30 38 H 2.612855 1.992509 3.915808 0
M  V30 39 H 1.431677 0.828313 4.759904 0
M  V30 40 H -0.201978 -1.326613 2.785993 0
M  V30 41 H -2.654142 -1.385011 2.318935 0
M  V30 42 H -3.836258 0.648243 1.934839 0
M  V30 43 H -2.830527 2.882805 1.904795 0
M  V30 44 H -0.347995 2.997638 2.350371 0
M  V30 45 H 1.032123 0.005992 0.143839 0
M  V30 46 H -1.797948 -1.729451 -2.323222 0
M  V30 47 H -3.789106 -4.540282 0.125310 0
M  V30 48 H -2.675488 -4.226452 1.586303 0
M  V30 49 H -2.455279 -5.547722 0.216790 0
M  V30 END ATOM
M  V30 BEGIN BOND
M  V30 1 1 1 2
M  V30 2 1 2 3
M  V30 3 2 3 4
M  V30 4 1 4 5
M  V30 5 2 5 6
M  V30 6 1 6 7
M  V30 7 2 7 8
M  V30 8 1 8 9
M  V30 9 1 9 10
M  V30 10 2 10 11
M  V30 11 1 11 12
M  V30 12 2 12 13
M  V30 13 1 13 14
M  V30 14 1 14 15
M  V30 15 1 15 16
M  V30 16 1 15 17
M  V30 17 2 17 18
M  V30 18 1 18 19
M  V30 19 2 19 20
M  V30 20 1 20 21
M  V30 21 2 21 22
M  V30 22 1 13 23
M  V30 23 2 23 24
M  V30 24 1 6 25
M  V30 25 2 25 26
M  V30 26 1 26 27
M  V30 27 1 27 28
M  V30 28 1 26 3
M  V30 29 1 24 7
M  V30 30 1 24 10
M  V30 31 1 22 17
M  V30 32 1 1 29
M  V30 33 1 1 30
M  V30 34 1 1 31
M  V30 35 1 4 32
M  V30 36 1 5 33
M  V30 37 1 11 34
M  V30 38 1 14 35
M  V30 39 1 15 36 CFG=3
M  V30 40 1 16 37
M  V30 41 1 16 38
M  V30 42 1 16 39
M  V30 43 1 18 40
M  V30 44 1 19 41
M  V30 45 1 20 42
M  V30 46 1 21 43
M  V30 47 1 22 44
M  V30 48 1 23 45
M  V30 49 1 25 46
M  V30 50 1 28 47
M  V30 51 1 28 48
M  V30 52 1 28 49
M  V30 END BOND
M  V30 END CTAB
M  END
>  <Dataset>  (950) 
ChEMBL_Kinases

>  <Ligand_Instance>  (950) 
nan

>  <PDB_ID>  (950) 
nan

>  <Standardized_SMILES>  (950) 
COc1ccc(-c2noc3cnc(N[C@@H](C)c4ccccc4)cc23)cc1OC

>  <Name>  (950) 
nan

>  <Pocket>  (950) 
nan

>  <ATP_Site>  (950) 
nan

>  <Peripheral>  (950) 
nan

>  <Num_H_Atoms_ProtBoundConf>  (950) 
nan

>  <Num_Resolved_Atoms>  (950) 
nan

>  <Num_Not_Resolved_Atoms>  (950) 
nan

$$$$
CHEMBL491635
     RDKit          3D

  0  0  0  0  0  0  0  0  0  0999 V3000
M  V30 BEGIN CTAB
M  V30 COUNTS 42 46 0 0 0
M  V30 BEGIN ATOM
M  V30 1 N 1.243024 -7.710207 -0.362828 0
M  V30 2 C 1.055808 -6.299578 -0.463412 0
M  V30 3 C -0.150728 -5.757090 -0.876400 0
M  V30 4 C -0.285901 -4.370242 -0.958995 0
M  V30 5 C 0.727593 -3.515850 -0.647967 0
M  V30 6 C 0.619042 -2.061217 -0.724393 0
M  V30 7 C 1.350029 -1.286210 0.152829 0
M  V30 8 C 1.291434 0.092547 0.131082 0
M  V30 9 C 0.488016 0.740950 -0.782010 0
M  V30 10 O 0.235945 2.078378 -1.028102 0
M  V30 11 C 0.793281 3.051532 -0.215768 0
M  V30 12 C 1.645007 3.968216 -0.750918 0
M  V30 13 N 2.280138 4.979206 -0.133936 0
M  V30 14 C 2.042790 5.098895 1.179399 0
M  V30 15 C 1.175509 4.186174 1.786988 0
M  V30 16 S 0.635060 4.063119 3.517622 0
M  V30 17 C -0.409463 2.650180 3.264650 0
M  V30 18 C -1.176467 2.008215 4.289319 0
M  V30 19 N -1.047354 0.749645 4.792569 0
M  V30 20 N -1.949613 0.533571 5.731620 0
M  V30 21 N -2.651355 1.657707 5.823116 0
M  V30 22 N -2.203434 2.556172 4.965579 0
M  V30 23 C -0.288445 2.361790 1.910856 0
M  V30 24 C 0.522063 3.139752 1.132747 0
M  V30 25 C -0.260165 -0.028001 -1.679238 0
M  V30 26 C -0.201041 -1.426770 -1.657819 0
M  V30 27 C 1.948040 -4.032672 -0.231075 0
M  V30 28 C 2.053083 -5.407662 -0.158779 0
M  V30 29 H 1.696970 -8.264420 0.389116 0
M  V30 30 H 0.922527 -8.408227 -1.086071 0
M  V30 31 H -0.990251 -6.390822 -1.135917 0
M  V30 32 H -1.220985 -3.940497 -1.279552 0
M  V30 33 H 2.013614 -1.692000 0.911304 0
M  V30 34 H 1.817703 0.796067 0.758966 0
M  V30 35 H 1.857264 3.891716 -1.830100 0
M  V30 36 H 2.471289 5.853266 1.819943 0
M  V30 37 H -3.445459 1.734788 6.517511 0
M  V30 38 H -0.857869 1.517115 1.545236 0
M  V30 39 H -0.942634 0.311272 -2.462765 0
M  V30 40 H -0.753964 -2.074040 -2.323305 0
M  V30 41 H 2.775186 -3.382402 0.023913 0
M  V30 42 H 3.039606 -5.764910 0.176700 0
M  V30 END ATOM
M  V30 BEGIN BOND
M  V30 1 1 1 2
M  V30 2 2 2 3
M  V30 3 1 3 4
M  V30 4 2 4 5
M  V30 5 1 5 6
M  V30 6 2 6 7
M  V30 7 1 7 8
M  V30 8 2 8 9
M  V30 9 1 9 10
M  V30 10 1 10 11
M  V30 11 2 11 12
M  V30 12 1 12 13
M  V30 13 2 13 14
M  V30 14 1 14 15
M  V30 15 1 15 16
M  V30 16 1 16 17
M  V30 17 1 17 18
M  V30 18 1 18 19
M  V30 19 2 19 20
M  V30 20 1 20 21
M  V30 21 1 21 22
M  V30 22 2 17 23
M  V30 23 1 23 24
M  V30 24 1 9 25
M  V30 25 2 25 26
M  V30 26 1 5 27
M  V30 27 2 27 28
M  V30 28 1 28 2
M  V30 29 1 26 6
M  V30 30 1 24 11
M  V30 31 2 24 15
M  V30 32 2 22 18
M  V30 33 1 1 29
M  V30 34 1 1 30
M  V30 35 1 3 31
M  V30 36 1 4 32
M  V30 37 1 7 33
M  V30 38 1 8 34
M  V30 39 1 12 35
M  V30 40 1 14 36
M  V30 41 1 21 37
M  V30 42 1 23 38
M  V30 43 1 25 39
M  V30 44 1 26 40
M  V30 45 1 27 41
M  V30 46 1 28 42
M  V30 END BOND
M  V30 END CTAB
M  END
>  <Dataset>  (951) 
ChEMBL_Kinases

>  <Ligand_Instance>  (951) 
nan

>  <PDB_ID>  (951) 
nan

>  <Standardized_SMILES>  (951) 
Nc1ccc(-c2ccc(Oc3cncc4sc(-c5nn[nH]n5)cc34)cc2)cc1

>  <Name>  (951) 
nan

>  <Pocket>  (951) 
nan

>  <ATP_Site>  (951) 
nan

>  <Peripheral>  (951) 
nan

>  <Num_H_Atoms_ProtBoundConf>  (951) 
nan

>  <Num_Resolved_Atoms>  (951) 
nan

>  <Num_Not_Resolved_Atoms>  (951) 
nan

$$$$
CHEMBL491647
     RDKit          3D

  0  0  0  0  0  0  0  0  0  0999 V3000
M  V30 BEGIN CTAB
M  V30 COUNTS 47 51 0 0 0
M  V30 BEGIN ATOM
M  V30 1 C -0.418905 -5.580346 2.371787 0
M  V30 2 O -0.466879 -4.507536 3.249104 0
M  V30 3 C 0.644548 -3.678975 3.107989 0
M  V30 4 C 0.763704 -3.096798 1.746129 0
M  V30 5 C 1.613953 -3.662885 0.801111 0
M  V30 6 C 1.740457 -3.176908 -0.503680 0
M  V30 7 C 0.977161 -2.073972 -0.870986 0
M  V30 8 C 0.147355 -1.534681 0.080364 0
M  V30 9 C -0.660957 -0.440625 -0.102885 0
M  V30 10 C -0.982050 0.455373 -1.210237 0
M  V30 11 C -1.037683 1.772091 -1.265269 0
M  V30 12 C -0.756278 2.655909 -0.118872 0
M  V30 13 C -1.387760 3.689769 0.536322 0
M  V30 14 O -0.633166 4.152786 1.499843 0
M  V30 15 C 0.514928 3.476071 1.546435 0
M  V30 16 C 1.601498 3.638865 2.411239 0
M  V30 17 C 2.705053 2.796510 2.250285 0
M  V30 18 C 2.693790 1.822372 1.239740 0
M  V30 19 C 1.568199 1.746722 0.440114 0
M  V30 20 C 0.461562 2.542169 0.551318 0
M  V30 21 C -1.408849 2.235090 -2.591349 0
M  V30 22 O -1.566010 3.401392 -3.040102 0
M  V30 23 N -1.600455 1.110314 -3.433375 0
M  V30 24 C -1.332878 -0.005248 -2.564585 0
M  V30 25 O -1.391072 -1.200617 -2.908501 0
M  V30 26 C -1.296337 -0.246211 1.113637 0
M  V30 27 N -0.894449 -1.191395 2.020717 0
M  V30 28 C -1.321339 -1.322993 3.400358 0
M  V30 29 C -0.003165 -1.985559 1.375901 0
M  V30 30 H 0.497374 -6.211577 2.554896 0
M  V30 31 H -1.284676 -6.222690 2.624167 0
M  V30 32 H -0.503389 -5.295646 1.309022 0
M  V30 33 H 1.524653 -4.344921 3.270981 0
M  V30 34 H 0.719859 -2.938202 3.924296 0
M  V30 35 H 2.229657 -4.521264 1.025759 0
M  V30 36 H 2.414894 -3.643112 -1.212043 0
M  V30 37 H 1.075660 -1.700625 -1.875038 0
M  V30 38 H -2.385228 3.972029 0.180756 0
M  V30 39 H 1.629224 4.378051 3.193592 0
M  V30 40 H 3.583496 2.885527 2.906373 0
M  V30 41 H 3.569559 1.176886 1.129794 0
M  V30 42 H 1.685639 0.991257 -0.293577 0
M  V30 43 H -1.871689 1.014144 -4.456030 0
M  V30 44 H -2.020479 0.524597 1.385843 0
M  V30 45 H -1.834670 -2.262088 3.638935 0
M  V30 46 H -2.145691 -0.552332 3.540376 0
M  V30 47 H -0.568083 -0.984985 4.140941 0
M  V30 END ATOM
M  V30 BEGIN BOND
M  V30 1 1 1 2
M  V30 2 1 2 3
M  V30 3 1 3 4
M  V30 4 2 4 5
M  V30 5 1 5 6
M  V30 6 2 6 7
M  V30 7 1 7 8
M  V30 8 1 8 9
M  V30 9 1 9 10
M  V30 10 2 10 11
M  V30 11 1 11 12
M  V30 12 2 12 13
M  V30 13 1 13 14
M  V30 14 1 14 15
M  V30 15 2 15 16
M  V30 16 1 16 17
M  V30 17 2 17 18
M  V30 18 1 18 19
M  V30 19 2 19 20
M  V30 20 1 11 21
M  V30 21 2 21 22
M  V30 22 1 21 23
M  V30 23 1 23 24
M  V30 24 2 24 25
M  V30 25 2 9 26
M  V30 26 1 26 27
M  V30 27 1 27 28
M  V30 28 1 27 29
M  V30 29 1 29 4
M  V30 30 2 29 8
M  V30 31 1 24 10
M  V30 32 1 20 12
M  V30 33 1 20 15
M  V30 34 1 1 30
M  V30 35 1 1 31
M  V30 36 1 1 32
M  V30 37 1 3 33
M  V30 38 1 3 34
M  V30 39 1 5 35
M  V30 40 1 6 36
M  V30 41 1 7 37
M  V30 42 1 13 38
M  V30 43 1 16 39
M  V30 44 1 17 40
M  V30 45 1 18 41
M  V30 46 1 19 42
M  V30 47 1 23 43
M  V30 48 1 26 44
M  V30 49 1 28 45
M  V30 50 1 28 46
M  V30 51 1 28 47
M  V30 END BOND
M  V30 END CTAB
M  END
>  <Dataset>  (952) 
ChEMBL_Kinases

>  <Ligand_Instance>  (952) 
nan

>  <PDB_ID>  (952) 
nan

>  <Standardized_SMILES>  (952) 
COCc1cccc2c(C3=C(c4coc5ccccc45)C(=O)NC3=O)cn(C)c12

>  <Name>  (952) 
nan

>  <Pocket>  (952) 
nan

>  <ATP_Site>  (952) 
nan

>  <Peripheral>  (952) 
nan

>  <Num_H_Atoms_ProtBoundConf>  (952) 
nan

>  <Num_Resolved_Atoms>  (952) 
nan

>  <Num_Not_Resolved_Atoms>  (952) 
nan

$$$$
CHEMBL3883637
     RDKit          3D

  0  0  0  0  0  0  0  0  0  0999 V3000
M  V30 BEGIN CTAB
M  V30 COUNTS 46 49 0 0 0
M  V30 BEGIN ATOM
M  V30 1 C -0.066270 -4.446721 1.699793 0
M  V30 2 C 0.703540 -3.280710 2.226919 0
M  V30 3 C 1.145370 -3.597744 3.657256 0
M  V30 4 C 1.844946 -2.978106 1.360184 0
M  V30 5 O 2.725942 -3.832233 1.088247 0
M  V30 6 N 1.819084 -1.617637 0.880233 0
M  V30 7 C 2.819056 -1.056820 0.024692 0
M  V30 8 C 2.329463 -0.574589 -1.300709 0
M  V30 9 C 3.036085 0.760826 -1.558919 0
M  V30 10 C 4.254229 0.652967 -0.636028 0
M  V30 11 C 3.579703 0.100670 0.609402 0
M  V30 12 C 0.637489 -1.077224 1.448477 0
M  V30 13 N 0.123580 0.165802 1.318420 0
M  V30 14 C -1.034207 0.520402 1.929223 0
M  V30 15 N -1.717163 1.766300 1.909311 0
M  V30 16 C -2.649293 1.974493 0.827954 0
M  V30 17 C -2.773719 0.950068 -0.115554 0
M  V30 18 C -3.661610 1.103217 -1.184964 0
M  V30 19 C -4.402171 2.260758 -1.294936 0
M  V30 20 C -4.271465 3.280747 -0.346071 0
M  V30 21 C -3.389925 3.138708 0.723043 0
M  V30 22 N -1.671758 -0.397821 2.677184 0
M  V30 23 C -1.223227 -1.652329 2.853762 0
M  V30 24 C -0.042934 -1.999677 2.226058 0
M  V30 25 H -0.752213 -4.915231 2.438826 0
M  V30 26 H -0.693011 -4.179862 0.822130 0
M  V30 27 H 0.655951 -5.215367 1.352930 0
M  V30 28 H 1.553601 -2.632122 4.056417 0
M  V30 29 H 0.299137 -3.923146 4.261409 0
M  V30 30 H 1.946688 -4.343544 3.702490 0
M  V30 31 H 3.605334 -1.835427 -0.204171 0
M  V30 32 H 2.645525 -1.233788 -2.149786 0
M  V30 33 H 1.242156 -0.499982 -1.369927 0
M  V30 34 H 2.420287 1.611679 -1.238370 0
M  V30 35 H 3.375780 0.844909 -2.614563 0
M  V30 36 H 4.905147 -0.125744 -1.083069 0
M  V30 37 H 4.750161 1.611741 -0.479410 0
M  V30 38 H 2.941889 0.890677 1.054580 0
M  V30 39 H 4.388181 -0.262213 1.266015 0
M  V30 40 H -1.572126 2.502365 2.620978 0
M  V30 41 H -2.216827 0.023239 -0.074862 0
M  V30 42 H -3.770137 0.309443 -1.934818 0
M  V30 43 H -5.109923 2.441536 -2.103626 0
M  V30 44 H -4.849157 4.210284 -0.411977 0
M  V30 45 H -3.241745 3.890234 1.492421 0
M  V30 46 H -1.751146 -2.379496 3.461306 0
M  V30 END ATOM
M  V30 BEGIN BOND
M  V30 1 1 1 2
M  V30 2 1 2 3
M  V30 3 1 2 4
M  V30 4 2 4 5
M  V30 5 1 4 6
M  V30 6 1 6 7
M  V30 7 1 7 8
M  V30 8 1 8 9
M  V30 9 1 9 10
M  V30 10 1 10 11
M  V30 11 1 6 12
M  V30 12 2 12 13
M  V30 13 1 13 14
M  V30 14 1 14 15
M  V30 15 1 15 16
M  V30 16 2 16 17
M  V30 17 1 17 18
M  V30 18 2 18 19
M  V30 19 1 19 20
M  V30 20 2 20 21
M  V30 21 2 14 22
M  V30 22 1 22 23
M  V30 23 2 23 24
M  V30 24 1 24 2
M  V30 25 1 11 7
M  V30 26 1 24 12
M  V30 27 1 21 16
M  V30 28 1 1 25
M  V30 29 1 1 26
M  V30 30 1 1 27
M  V30 31 1 3 28
M  V30 32 1 3 29
M  V30 33 1 3 30
M  V30 34 1 7 31
M  V30 35 1 8 32
M  V30 36 1 8 33
M  V30 37 1 9 34
M  V30 38 1 9 35
M  V30 39 1 10 36
M  V30 40 1 10 37
M  V30 41 1 11 38
M  V30 42 1 11 39
M  V30 43 1 15 40
M  V30 44 1 17 41
M  V30 45 1 18 42
M  V30 46 1 19 43
M  V30 47 1 20 44
M  V30 48 1 21 45
M  V30 49 1 23 46
M  V30 END BOND
M  V30 END CTAB
M  END
>  <Dataset>  (953) 
ChEMBL_Kinases

>  <Ligand_Instance>  (953) 
nan

>  <PDB_ID>  (953) 
nan

>  <Standardized_SMILES>  (953) 
CC1(C)C(=O)N(C2CCCC2)c2nc(Nc3ccccc3)ncc21

>  <Name>  (953) 
nan

>  <Pocket>  (953) 
nan

>  <ATP_Site>  (953) 
nan

>  <Peripheral>  (953) 
nan

>  <Num_H_Atoms_ProtBoundConf>  (953) 
nan

>  <Num_Resolved_Atoms>  (953) 
nan

>  <Num_Not_Resolved_Atoms>  (953) 
nan

$$$$
CHEMBL3883580
     RDKit          3D

  0  0  0  0  0  0  0  0  0  0999 V3000
M  V30 BEGIN CTAB
M  V30 COUNTS 28 31 0 0 0
M  V30 BEGIN ATOM
M  V30 1 N 0.123375 -4.768280 1.801615 0
M  V30 2 C 0.461977 -3.723437 1.456840 0
M  V30 3 C 0.902502 -2.443373 1.027538 0
M  V30 4 C 2.226231 -2.318688 0.635158 0
M  V30 5 C 2.711484 -1.099639 0.208332 0
M  V30 6 N 4.006419 -0.992480 -0.171940 0
M  V30 7 C 4.519240 0.178538 -0.594728 0
M  V30 8 C 3.774567 1.326103 -0.667681 0
M  V30 9 C 2.433213 1.237624 -0.279209 0
M  V30 10 C 1.920989 0.032545 0.151630 0
M  V30 11 C 0.606642 -0.102534 0.543948 0
M  V30 12 N -0.419643 0.791593 0.609196 0
M  V30 13 C -1.525475 0.171109 1.061516 0
M  V30 14 C -2.779825 0.692812 1.279013 0
M  V30 15 C -3.754507 -0.186511 1.757869 0
M  V30 16 C -3.504520 -1.538166 2.015441 0
M  V30 17 C -2.209218 -2.002650 1.772936 0
M  V30 18 C -1.229740 -1.155484 1.300524 0
M  V30 19 C 0.099576 -1.324773 0.977516 0
M  V30 20 H 2.889028 -3.169617 0.658973 0
M  V30 21 H 5.563200 0.233906 -0.893812 0
M  V30 22 H 4.128263 2.287975 -0.996480 0
M  V30 23 H 1.747121 2.098175 -0.298971 0
M  V30 24 H -0.294369 1.798190 0.332131 0
M  V30 25 H -3.078179 1.714453 1.114271 0
M  V30 26 H -4.765396 0.207372 1.939558 0
M  V30 27 H -4.303221 -2.168492 2.386077 0
M  V30 28 H -2.044128 -3.029258 1.975350 0
M  V30 END ATOM
M  V30 BEGIN BOND
M  V30 1 3 1 2
M  V30 2 1 2 3
M  V30 3 2 3 4
M  V30 4 1 4 5
M  V30 5 2 5 6
M  V30 6 1 6 7
M  V30 7 2 7 8
M  V30 8 1 8 9
M  V30 9 2 9 10
M  V30 10 1 10 11
M  V30 11 1 11 12
M  V30 12 1 12 13
M  V30 13 2 13 14
M  V30 14 1 14 15
M  V30 15 2 15 16
M  V30 16 1 16 17
M  V30 17 2 17 18
M  V30 18 1 18 19
M  V30 19 1 19 3
M  V30 20 1 10 5
M  V30 21 2 19 11
M  V30 22 1 18 13
M  V30 23 1 4 20
M  V30 24 1 7 21
M  V30 25 1 8 22
M  V30 26 1 9 23
M  V30 27 1 12 24
M  V30 28 1 14 25
M  V30 29 1 15 26
M  V30 30 1 16 27
M  V30 31 1 17 28
M  V30 END BOND
M  V30 END CTAB
M  END
>  <Dataset>  (954) 
ChEMBL_Kinases

>  <Ligand_Instance>  (954) 
nan

>  <PDB_ID>  (954) 
nan

>  <Standardized_SMILES>  (954) 
N#Cc1cc2ncccc2c2[nH]c3ccccc3c12

>  <Name>  (954) 
nan

>  <Pocket>  (954) 
nan

>  <ATP_Site>  (954) 
nan

>  <Peripheral>  (954) 
nan

>  <Num_H_Atoms_ProtBoundConf>  (954) 
nan

>  <Num_Resolved_Atoms>  (954) 
nan

>  <Num_Not_Resolved_Atoms>  (954) 
nan

$$$$
CHEMBL491505
     RDKit          3D

  0  0  0  0  0  0  0  0  0  0999 V3000
M  V30 BEGIN CTAB
M  V30 COUNTS 47 51 0 0 0
M  V30 BEGIN ATOM
M  V30 1 C -0.157618 -7.320725 1.731394 0
M  V30 2 N -0.432432 -5.949081 1.420304 0
M  V30 3 C 0.458468 -5.292019 0.513780 0
M  V30 4 C 1.043557 -4.516626 1.652523 0
M  V30 5 C 1.043379 -3.030033 1.454001 0
M  V30 6 C 2.144781 -2.233138 1.709538 0
M  V30 7 C 2.105024 -0.865497 1.513899 0
M  V30 8 C 0.920832 -0.319535 1.051951 0
M  V30 9 C 0.616244 0.998510 0.775840 0
M  V30 10 C 1.424030 2.186330 0.882867 0
M  V30 11 C 2.556468 2.218701 0.097201 0
M  V30 12 C 3.417971 3.314518 0.113262 0
M  V30 13 N 3.141089 4.376563 0.918463 0
M  V30 14 C 2.055860 4.357815 1.678472 0
M  V30 15 C 1.178318 3.281793 1.685084 0
M  V30 16 C -0.697715 1.005574 0.343075 0
M  V30 17 C -1.562543 2.100934 -0.087478 0
M  V30 18 C -2.704939 2.312032 0.658892 0
M  V30 19 C -3.584547 3.305723 0.349222 0
M  V30 20 C -3.336775 4.137769 -0.746607 0
M  V30 21 F -4.141785 5.157156 -1.146870 0
M  V30 22 C -2.186234 3.943867 -1.518199 0
M  V30 23 C -1.312694 2.930425 -1.182354 0
M  V30 24 N -1.204386 -0.259583 0.345469 0
M  V30 25 C -0.202807 -1.075274 0.783614 0
M  V30 26 C -0.130876 -2.437611 0.989101 0
M  V30 27 C -0.125168 -4.995331 2.459923 0
M  V30 28 H 0.537940 -7.794500 0.979160 0
M  V30 29 H -1.115779 -7.876011 1.611129 0
M  V30 30 H 0.197740 -7.495765 2.761578 0
M  V30 31 H -0.099524 -4.698425 -0.226712 0
M  V30 32 H 1.183346 -5.947720 -0.019299 0
M  V30 33 H 2.031528 -4.852475 2.022924 0
M  V30 34 H 3.037203 -2.728708 2.069038 0
M  V30 35 H 2.971021 -0.234851 1.714088 0
M  V30 36 H 2.835612 1.407698 -0.565604 0
M  V30 37 H 4.305544 3.323916 -0.511464 0
M  V30 38 H 1.805659 5.179256 2.326109 0
M  V30 39 H 0.267243 3.221703 2.297086 0
M  V30 40 H -2.978292 1.706942 1.534979 0
M  V30 41 H -4.512019 3.569084 0.857234 0
M  V30 42 H -1.959999 4.575503 -2.383044 0
M  V30 43 H -0.388279 2.715380 -1.739550 0
M  V30 44 H -2.131647 -0.646355 0.092338 0
M  V30 45 H -0.996614 -3.063137 0.788320 0
M  V30 46 H -0.865582 -4.180587 2.612407 0
M  V30 47 H 0.139485 -5.458474 3.454514 0
M  V30 END ATOM
M  V30 BEGIN BOND
M  V30 1 1 1 2
M  V30 2 1 2 3
M  V30 3 1 3 4
M  V30 4 1 4 5
M  V30 5 2 5 6
M  V30 6 1 6 7
M  V30 7 2 7 8
M  V30 8 1 8 9
M  V30 9 1 9 10
M  V30 10 2 10 11
M  V30 11 1 11 12
M  V30 12 2 12 13
M  V30 13 1 13 14
M  V30 14 2 14 15
M  V30 15 2 9 16
M  V30 16 1 16 17
M  V30 17 2 17 18
M  V30 18 1 18 19
M  V30 19 2 19 20
M  V30 20 1 20 21
M  V30 21 1 20 22
M  V30 22 2 22 23
M  V30 23 1 16 24
M  V30 24 1 24 25
M  V30 25 2 25 26
M  V30 26 1 4 27
M  V30 27 1 27 2
M  V30 28 1 26 5
M  V30 29 1 25 8
M  V30 30 1 15 10
M  V30 31 1 23 17
M  V30 32 1 1 28
M  V30 33 1 1 29
M  V30 34 1 1 30
M  V30 35 1 3 31
M  V30 36 1 3 32
M  V30 37 1 4 33
M  V30 38 1 6 34
M  V30 39 1 7 35
M  V30 40 1 11 36
M  V30 41 1 12 37
M  V30 42 1 14 38
M  V30 43 1 15 39
M  V30 44 1 18 40
M  V30 45 1 19 41
M  V30 46 1 22 42
M  V30 47 1 23 43
M  V30 48 1 24 44
M  V30 49 1 26 45
M  V30 50 1 27 46
M  V30 51 1 27 47
M  V30 END BOND
M  V30 END CTAB
M  END
>  <Dataset>  (955) 
ChEMBL_Kinases

>  <Ligand_Instance>  (955) 
nan

>  <PDB_ID>  (955) 
nan

>  <Standardized_SMILES>  (955) 
CN1CC(c2ccc3c(-c4ccncc4)c(-c4ccc(F)cc4)[nH]c3c2)C1

>  <Name>  (955) 
nan

>  <Pocket>  (955) 
nan

>  <ATP_Site>  (955) 
nan

>  <Peripheral>  (955) 
nan

>  <Num_H_Atoms_ProtBoundConf>  (955) 
nan

>  <Num_Resolved_Atoms>  (955) 
nan

>  <Num_Not_Resolved_Atoms>  (955) 
nan

$$$$
CHEMBL388183
     RDKit          3D

  0  0  0  0  0  0  0  0  0  0999 V3000
M  V30 BEGIN CTAB
M  V30 COUNTS 44 46 0 0 0
M  V30 BEGIN ATOM
M  V30 1 C 2.893323 -1.430662 -0.180927 0
M  V30 2 C 2.966873 -0.218048 0.711105 0
M  V30 3 C 4.085579 0.536998 0.986712 0
M  V30 4 C 5.460767 0.337066 0.460574 0
M  V30 5 C 5.514895 0.855443 -0.983174 0
M  V30 6 C 5.167238 2.318647 -0.924607 0
M  V30 7 O 5.953497 3.215374 -0.544626 0
M  V30 8 O 3.919370 2.847418 -1.289472 0
M  V30 9 C 3.658868 1.522578 1.846649 0
M  V30 10 N 2.345251 1.322045 2.042773 0
M  V30 11 C 1.850637 0.287002 1.388662 0
M  V30 12 C 0.530448 -0.312049 1.324094 0
M  V30 13 C -0.631456 0.265627 1.100069 0
M  V30 14 C -0.851731 1.661722 0.858362 0
M  V30 15 O 0.054831 2.512673 0.815396 0
M  V30 16 N -2.247954 1.802031 0.694126 0
M  V30 17 C -2.879347 0.535654 0.827949 0
M  V30 18 C -4.205105 0.164850 0.751469 0
M  V30 19 C -4.482727 -1.170443 0.933442 0
M  V30 20 C -3.588778 -2.163111 1.180539 0
M  V30 21 N -3.828853 -3.539371 1.372613 0
M  V30 22 C -5.102298 -4.116967 1.338828 0
M  V30 23 N -5.202653 -5.511761 1.547582 0
M  V30 24 O -6.178545 -3.522125 1.140466 0
M  V30 25 C -2.285025 -1.726751 1.244445 0
M  V30 26 C -1.917488 -0.413923 1.075174 0
M  V30 27 H 3.868323 -1.667921 -0.638566 0
M  V30 28 H 2.628289 -2.331408 0.419403 0
M  V30 29 H 2.159223 -1.286345 -0.976602 0
M  V30 30 H 5.687110 -0.741484 0.453093 0
M  V30 31 H 6.179284 0.867933 1.095708 0
M  V30 32 H 4.696692 0.368669 -1.557359 0
M  V30 33 H 6.473978 0.657217 -1.462565 0
M  V30 34 H 3.550946 3.713452 -0.975567 0
M  V30 35 H 4.318995 2.269384 2.237705 0
M  V30 36 H 1.849148 1.966380 2.681714 0
M  V30 37 H 0.542296 -1.394109 1.490525 0
M  V30 38 H -2.682275 2.732362 0.505205 0
M  V30 39 H -4.969712 0.896131 0.558854 0
M  V30 40 H -5.530799 -1.410281 0.865372 0
M  V30 41 H -3.022415 -4.173911 1.550311 0
M  V30 42 H -5.381709 -6.521153 1.678967 0
M  V30 43 H -4.506560 -6.247921 1.794517 0
M  V30 44 H -1.462543 -2.427730 1.438649 0
M  V30 END ATOM
M  V30 BEGIN BOND
M  V30 1 1 1 2
M  V30 2 1 2 3
M  V30 3 1 3 4
M  V30 4 1 4 5
M  V30 5 1 5 6
M  V30 6 2 6 7
M  V30 7 1 6 8
M  V30 8 2 3 9
M  V30 9 1 9 10
M  V30 10 1 10 11
M  V30 11 1 11 12
M  V30 12 2 12 13
M  V30 13 1 13 14
M  V30 14 2 14 15
M  V30 15 1 14 16
M  V30 16 1 16 17
M  V30 17 2 17 18
M  V30 18 1 18 19
M  V30 19 2 19 20
M  V30 20 1 20 21
M  V30 21 1 21 22
M  V30 22 1 22 23
M  V30 23 2 22 24
M  V30 24 1 20 25
M  V30 25 2 25 26
M  V30 26 2 11 2
M  V30 27 1 26 13
M  V30 28 1 26 17
M  V30 29 1 1 27
M  V30 30 1 1 28
M  V30 31 1 1 29
M  V30 32 1 4 30
M  V30 33 1 4 31
M  V30 34 1 5 32
M  V30 35 1 5 33
M  V30 36 1 8 34
M  V30 37 1 9 35
M  V30 38 1 10 36
M  V30 39 1 12 37
M  V30 40 1 16 38
M  V30 41 1 18 39
M  V30 42 1 19 40
M  V30 43 1 21 41
M  V30 44 1 23 42
M  V30 45 1 23 43
M  V30 46 1 25 44
M  V30 END BOND
M  V30 END CTAB
M  END
>  <Dataset>  (956) 
ChEMBL_Kinases

>  <Ligand_Instance>  (956) 
nan

>  <PDB_ID>  (956) 
nan

>  <Standardized_SMILES>  (956) 
Cc1c(CCC(=O)O)c[nH]c1/C=C1\C(=O)Nc2ccc(NC(N)=O)cc21

>  <Name>  (956) 
nan

>  <Pocket>  (956) 
nan

>  <ATP_Site>  (956) 
nan

>  <Peripheral>  (956) 
nan

>  <Num_H_Atoms_ProtBoundConf>  (956) 
nan

>  <Num_Resolved_Atoms>  (956) 
nan

>  <Num_Not_Resolved_Atoms>  (956) 
nan

$$$$
CHEMBL388042
     RDKit          3D

  0  0  0  0  0  0  0  0  0  0999 V3000
M  V30 BEGIN CTAB
M  V30 COUNTS 38 41 0 0 0
M  V30 BEGIN ATOM
M  V30 1 N 0.541467 -3.679023 6.167156 0
M  V30 2 C 0.771704 -3.458136 5.051664 0
M  V30 3 C 1.058375 -3.204450 3.671350 0
M  V30 4 C 2.068360 -3.834162 2.947733 0
M  V30 5 N 2.040010 -3.349386 1.690490 0
M  V30 6 N 1.073854 -2.463097 1.603649 0
M  V30 7 C 0.593791 -1.693425 0.630991 0
M  V30 8 N 1.247937 -1.792288 -0.648023 0
M  V30 9 C 2.114211 -0.859370 -1.269067 0
M  V30 10 C 2.672243 -1.144994 -2.505161 0
M  V30 11 C 3.497948 -0.186444 -3.072411 0
M  V30 12 C 3.759039 1.017629 -2.427751 0
M  V30 13 C 3.192374 1.286366 -1.191729 0
M  V30 14 C 2.364522 0.330970 -0.617892 0
M  V30 15 N -0.442227 -0.863388 0.845055 0
M  V30 16 C -1.057014 -0.758500 2.050095 0
M  V30 17 N -2.109783 0.214194 1.923587 0
M  V30 18 C -3.501570 0.074303 1.440191 0
M  V30 19 C -3.399512 1.043258 0.246195 0
M  V30 20 C -2.450980 2.126100 0.731201 0
M  V30 21 C -2.238942 1.660878 2.185901 0
M  V30 22 N -0.605566 -1.516590 3.056698 0
M  V30 23 C 0.441951 -2.338400 2.793590 0
M  V30 24 H 2.783350 -4.580642 3.253251 0
M  V30 25 H 0.997576 -2.692936 -1.103788 0
M  V30 26 H 2.448763 -2.087007 -2.973107 0
M  V30 27 H 3.906746 -0.449459 -4.026805 0
M  V30 28 H 4.416576 1.673737 -2.979518 0
M  V30 29 H 3.462292 2.252220 -0.779477 0
M  V30 30 H 1.945185 0.584080 0.340936 0
M  V30 31 H -3.711477 -0.932836 1.088237 0
M  V30 32 H -4.181219 0.458958 2.217682 0
M  V30 33 H -2.971793 0.533342 -0.620253 0
M  V30 34 H -4.373476 1.522094 0.052731 0
M  V30 35 H -2.898400 3.128188 0.747172 0
M  V30 36 H -1.501133 2.156895 0.169072 0
M  V30 37 H -1.339819 2.089477 2.638161 0
M  V30 38 H -3.140644 1.910713 2.754376 0
M  V30 END ATOM
M  V30 BEGIN BOND
M  V30 1 3 1 2
M  V30 2 1 2 3
M  V30 3 1 3 4
M  V30 4 2 4 5
M  V30 5 1 5 6
M  V30 6 1 6 7
M  V30 7 1 7 8
M  V30 8 1 8 9
M  V30 9 2 9 10
M  V30 10 1 10 11
M  V30 11 2 11 12
M  V30 12 1 12 13
M  V30 13 2 13 14
M  V30 14 2 7 15
M  V30 15 1 15 16
M  V30 16 1 16 17
M  V30 17 1 17 18
M  V30 18 1 18 19
M  V30 19 1 19 20
M  V30 20 1 20 21
M  V30 21 2 16 22
M  V30 22 1 22 23
M  V30 23 2 23 3
M  V30 24 1 23 6
M  V30 25 1 14 9
M  V30 26 1 21 17
M  V30 27 1 4 24
M  V30 28 1 8 25
M  V30 29 1 10 26
M  V30 30 1 11 27
M  V30 31 1 12 28
M  V30 32 1 13 29
M  V30 33 1 14 30
M  V30 34 1 18 31
M  V30 35 1 18 32
M  V30 36 1 19 33
M  V30 37 1 19 34
M  V30 38 1 20 35
M  V30 39 1 20 36
M  V30 40 1 21 37
M  V30 41 1 21 38
M  V30 END BOND
M  V30 END CTAB
M  END
>  <Dataset>  (957) 
ChEMBL_Kinases

>  <Ligand_Instance>  (957) 
nan

>  <PDB_ID>  (957) 
nan

>  <Standardized_SMILES>  (957) 
N#Cc1cnn2c(Nc3ccccc3)nc(N3CCCC3)nc12

>  <Name>  (957) 
nan

>  <Pocket>  (957) 
nan

>  <ATP_Site>  (957) 
nan

>  <Peripheral>  (957) 
nan

>  <Num_H_Atoms_ProtBoundConf>  (957) 
nan

>  <Num_Resolved_Atoms>  (957) 
nan

>  <Num_Not_Resolved_Atoms>  (957) 
nan

$$$$
CHEMBL388037
     RDKit          3D

  0  0  0  0  0  0  0  0  0  0999 V3000
M  V30 BEGIN CTAB
M  V30 COUNTS 35 39 0 0 0
M  V30 BEGIN ATOM
M  V30 1 C 0.215406 -4.984603 3.012172 0
M  V30 2 C 0.566015 -3.969751 1.986881 0
M  V30 3 C 1.491341 -4.349965 1.008287 0
M  V30 4 C 1.820246 -3.411157 0.053907 0
M  V30 5 C 1.251002 -2.131719 0.065430 0
M  V30 6 N 1.474089 -1.108395 -0.800215 0
M  V30 7 C 0.706323 -0.082979 -0.389211 0
M  V30 8 C 0.528863 1.174371 -0.870464 0
M  V30 9 C 1.230265 1.560860 -1.993275 0
M  V30 10 O 2.040021 0.856535 -2.639777 0
M  V30 11 C 1.096358 2.823010 -2.533402 0
M  V30 12 C 0.223015 3.726720 -1.917517 0
M  V30 13 C -0.454288 3.290328 -0.797597 0
M  V30 14 O -1.195354 4.173056 -0.340431 0
M  V30 15 C -0.337468 2.041627 -0.243025 0
M  V30 16 C -1.040771 1.665627 0.876326 0
M  V30 17 C -1.942822 2.360774 1.647025 0
M  V30 18 O -2.413536 3.522533 1.597934 0
M  V30 19 N -2.326500 1.494950 2.630815 0
M  V30 20 C -1.676826 0.334941 2.448128 0
M  V30 21 O -1.910233 -0.571460 3.261043 0
M  V30 22 C -0.857915 0.392178 1.359721 0
M  V30 23 C 0.002536 -0.447941 0.724537 0
M  V30 24 C 0.340239 -1.736220 1.016611 0
M  V30 25 C 0.050791 -2.697915 1.933026 0
M  V30 26 H -0.812137 -4.784837 3.431490 0
M  V30 27 H 0.187398 -6.015292 2.622023 0
M  V30 28 H 0.934178 -4.869309 3.855140 0
M  V30 29 H 1.931701 -5.335038 0.996736 0
M  V30 30 H 2.535694 -3.734805 -0.685992 0
M  V30 31 H 2.139660 -1.191625 -1.611548 0
M  V30 32 H 1.634532 3.177038 -3.427387 0
M  V30 33 H 0.129377 4.723545 -2.359744 0
M  V30 34 H -3.030198 1.757523 3.390017 0
M  V30 35 H -0.636841 -2.524060 2.721628 0
M  V30 END ATOM
M  V30 BEGIN BOND
M  V30 1 1 1 2
M  V30 2 2 2 3
M  V30 3 1 3 4
M  V30 4 2 4 5
M  V30 5 1 5 6
M  V30 6 1 6 7
M  V30 7 2 7 8
M  V30 8 1 8 9
M  V30 9 2 9 10
M  V30 10 1 9 11
M  V30 11 2 11 12
M  V30 12 1 12 13
M  V30 13 2 13 14
M  V30 14 1 13 15
M  V30 15 2 15 16
M  V30 16 1 16 17
M  V30 17 2 17 18
M  V30 18 1 17 19
M  V30 19 1 19 20
M  V30 20 2 20 21
M  V30 21 1 20 22
M  V30 22 2 22 23
M  V30 23 1 23 24
M  V30 24 2 24 25
M  V30 25 1 25 2
M  V30 26 1 24 5
M  V30 27 1 23 7
M  V30 28 1 15 8
M  V30 29 1 22 16
M  V30 30 1 1 26
M  V30 31 1 1 27
M  V30 32 1 1 28
M  V30 33 1 3 29
M  V30 34 1 4 30
M  V30 35 1 6 31
M  V30 36 1 11 32
M  V30 37 1 12 33
M  V30 38 1 19 34
M  V30 39 1 25 35
M  V30 END BOND
M  V30 END CTAB
M  END
>  <Dataset>  (958) 
ChEMBL_Kinases

>  <Ligand_Instance>  (958) 
nan

>  <PDB_ID>  (958) 
nan

>  <Standardized_SMILES>  (958) 
Cc1ccc2[nH]c3c4c(=O)ccc(=O)c4c4c(=O)[nH]c(=O)c4c3c2c1

>  <Name>  (958) 
nan

>  <Pocket>  (958) 
nan

>  <ATP_Site>  (958) 
nan

>  <Peripheral>  (958) 
nan

>  <Num_H_Atoms_ProtBoundConf>  (958) 
nan

>  <Num_Resolved_Atoms>  (958) 
nan

>  <Num_Not_Resolved_Atoms>  (958) 
nan

$$$$
CHEMBL387829
     RDKit          3D

  0  0  0  0  0  0  0  0  0  0999 V3000
M  V30 BEGIN CTAB
M  V30 COUNTS 52 55 0 0 0
M  V30 BEGIN ATOM
M  V30 1 C -1.227061 -0.190846 2.497889 0
M  V30 2 O -1.147603 -1.547640 2.204223 0
M  V30 3 C -0.077497 -2.184578 1.647760 0
M  V30 4 C 1.026653 -1.434586 1.331236 0
M  V30 5 C 2.190290 -1.892053 0.774741 0
M  V30 6 N 3.322189 -1.162120 0.326471 0
M  V30 7 C 2.961892 0.149027 -0.122527 0
M  V30 8 N 3.508166 0.571967 -1.274442 0
M  V30 9 C 3.230035 1.768187 -1.818452 0
M  V30 10 C 2.360686 2.657518 -1.235713 0
M  V30 11 C 1.949438 3.937205 -1.682520 0
M  V30 12 N 1.618955 4.991643 -2.051476 0
M  V30 13 C 1.795704 2.234749 -0.054498 0
M  V30 14 C 0.843026 2.888815 0.826814 0
M  V30 15 C 1.062081 2.905312 2.201679 0
M  V30 16 C 0.210969 3.482837 3.091654 0
M  V30 17 C -0.928334 4.090057 2.667570 0
M  V30 18 C -1.165284 4.085728 1.294626 0
M  V30 19 C -0.308859 3.503598 0.385310 0
M  V30 20 N 2.133586 1.044902 0.395650 0
M  V30 21 C 2.174413 -3.253948 0.541009 0
M  V30 22 C 1.063479 -4.052723 0.850789 0
M  V30 23 C -0.110621 -3.534815 1.417941 0
M  V30 24 C -1.198217 -4.467324 1.632605 0
M  V30 25 N -2.231541 -4.550986 0.675477 0
M  V30 26 C -3.080474 -3.436985 0.462518 0
M  V30 27 C -2.636713 -2.779932 -0.834698 0
M  V30 28 C -1.708568 -3.761675 -1.486831 0
M  V30 29 C -1.823384 -4.988436 -0.644753 0
M  V30 30 H -1.551392 0.377801 1.585523 0
M  V30 31 H -0.289834 0.237420 2.916895 0
M  V30 32 H -2.042445 -0.073428 3.268581 0
M  V30 33 H 0.984495 -0.382274 1.550650 0
M  V30 34 H 4.262005 -1.573924 0.348474 0
M  V30 35 H 3.647086 2.165327 -2.756969 0
M  V30 36 H 1.977360 2.418324 2.529375 0
M  V30 37 H 0.458991 3.450931 4.157436 0
M  V30 38 H -1.630847 4.561294 3.369578 0
M  V30 39 H -2.065980 4.557077 0.912060 0
M  V30 40 H -0.474463 3.486042 -0.687109 0
M  V30 41 H 3.048103 -3.739149 0.106157 0
M  V30 42 H 1.144477 -5.123198 0.632611 0
M  V30 43 H -0.776447 -5.487196 1.849489 0
M  V30 44 H -1.695017 -4.189709 2.616204 0
M  V30 45 H -4.100068 -3.880832 0.201200 0
M  V30 46 H -3.281214 -2.763788 1.282161 0
M  V30 47 H -2.099017 -1.842094 -0.623018 0
M  V30 48 H -3.511368 -2.549750 -1.511899 0
M  V30 49 H -2.095141 -4.008500 -2.514693 0
M  V30 50 H -0.665558 -3.363903 -1.571214 0
M  V30 51 H -0.982652 -5.662593 -0.656909 0
M  V30 52 H -2.704137 -5.583323 -1.040948 0
M  V30 END ATOM
M  V30 BEGIN BOND
M  V30 1 1 1 2
M  V30 2 1 2 3
M  V30 3 2 3 4
M  V30 4 1 4 5
M  V30 5 1 5 6
M  V30 6 1 6 7
M  V30 7 2 7 8
M  V30 8 1 8 9
M  V30 9 2 9 10
M  V30 10 1 10 11
M  V30 11 3 11 12
M  V30 12 1 10 13
M  V30 13 1 13 14
M  V30 14 2 14 15
M  V30 15 1 15 16
M  V30 16 2 16 17
M  V30 17 1 17 18
M  V30 18 2 18 19
M  V30 19 2 13 20
M  V30 20 2 5 21
M  V30 21 1 21 22
M  V30 22 2 22 23
M  V30 23 1 23 24
M  V30 24 1 24 25
M  V30 25 1 25 26
M  V30 26 1 26 27
M  V30 27 1 27 28
M  V30 28 1 28 29
M  V30 29 1 23 3
M  V30 30 1 29 25
M  V30 31 1 20 7
M  V30 32 1 19 14
M  V30 33 1 1 30
M  V30 34 1 1 31
M  V30 35 1 1 32
M  V30 36 1 4 33
M  V30 37 1 6 34
M  V30 38 1 9 35
M  V30 39 1 15 36
M  V30 40 1 16 37
M  V30 41 1 17 38
M  V30 42 1 18 39
M  V30 43 1 19 40
M  V30 44 1 21 41
M  V30 45 1 22 42
M  V30 46 1 24 43
M  V30 47 1 24 44
M  V30 48 1 26 45
M  V30 49 1 26 46
M  V30 50 1 27 47
M  V30 51 1 27 48
M  V30 52 1 28 49
M  V30 53 1 28 50
M  V30 54 1 29 51
M  V30 55 1 29 52
M  V30 END BOND
M  V30 END CTAB
M  END
>  <Dataset>  (959) 
ChEMBL_Kinases

>  <Ligand_Instance>  (959) 
nan

>  <PDB_ID>  (959) 
nan

>  <Standardized_SMILES>  (959) 
COc1cc(Nc2ncc(C#N)c(-c3ccccc3)n2)ccc1CN1CCCC1

>  <Name>  (959) 
nan

>  <Pocket>  (959) 
nan

>  <ATP_Site>  (959) 
nan

>  <Peripheral>  (959) 
nan

>  <Num_H_Atoms_ProtBoundConf>  (959) 
nan

>  <Num_Resolved_Atoms>  (959) 
nan

>  <Num_Not_Resolved_Atoms>  (959) 
nan

$$$$
CHEMBL4876612
     RDKit          3D

  0  0  0  0  0  0  0  0  0  0999 V3000
M  V30 BEGIN CTAB
M  V30 COUNTS 74 80 0 0 0
M  V30 BEGIN ATOM
M  V30 1 C 3.556949 -5.530868 -1.032115 0
M  V30 2 C 3.298715 -4.857418 -2.136441 0
M  V30 3 C 3.756611 -3.536375 -2.571794 0
M  V30 4 N 2.621449 -2.639397 -2.822286 0
M  V30 5 C 2.010339 -2.474678 -4.007965 0
M  V30 6 O 2.295630 -3.020335 -5.127977 0
M  V30 7 C 0.961897 -1.599372 -3.930318 0
M  V30 8 C -0.037547 -1.001173 -4.660352 0
M  V30 9 N -0.928887 -0.146862 -4.153563 0
M  V30 10 C -0.905788 0.194068 -2.850963 0
M  V30 11 N -1.960676 1.089325 -2.556125 0
M  V30 12 C -2.760816 0.920792 -1.369307 0
M  V30 13 C -2.423899 0.030691 -0.356004 0
M  V30 14 C -3.216267 -0.171182 0.753489 0
M  V30 15 C -4.404237 0.547856 0.864458 0
M  V30 16 N -5.166286 0.285620 2.020689 0
M  V30 17 C -6.629290 0.452423 2.095684 0
M  V30 18 C -7.188023 -0.823893 2.716073 0
M  V30 19 N -6.247368 -1.925738 2.662780 0
M  V30 20 C -5.991030 -2.404929 1.337775 0
M  V30 21 C -5.037091 -1.640487 3.407832 0
M  V30 22 C -4.677205 -0.171683 3.320605 0
M  V30 23 C -4.819253 1.459562 -0.098716 0
M  V30 24 C -3.943605 1.572104 -1.158686 0
M  V30 25 N 0.056575 -0.369519 -2.117295 0
M  V30 26 C 0.957426 -1.225019 -2.603843 0
M  V30 27 N 1.972135 -1.871527 -1.967862 0
M  V30 28 C 2.248114 -1.679749 -0.562427 0
M  V30 29 C 1.844450 -2.550612 0.452515 0
M  V30 30 C 2.238928 -2.075663 1.695509 0
M  V30 31 C 2.934697 -0.896752 1.840422 0
M  V30 32 C 3.300738 -0.089088 0.787063 0
M  V30 33 N 2.925363 -0.531523 -0.443100 0
M  V30 34 C 4.058042 1.107345 1.224887 0 CFG=2
M  V30 35 O 3.188175 2.178814 1.174536 0
M  V30 36 C 5.237787 1.380569 0.321729 0
M  V30 37 C 6.057510 2.612610 0.741819 0
M  V30 38 C 5.184268 2.695457 -0.457919 0
M  V30 39 C 4.483198 0.724739 2.609235 0
M  V30 40 C 3.419283 -0.228206 3.072746 0
M  V30 41 H 4.047730 -4.540830 -1.099111 0
M  V30 42 H 3.589031 -6.237272 -0.259859 0
M  V30 43 H 2.636472 -5.322746 -2.883887 0
M  V30 44 H 4.484307 -3.076349 -1.896320 0
M  V30 45 H 4.274375 -3.677494 -3.537645 0
M  V30 46 H -0.035475 -1.297481 -5.721406 0
M  V30 47 H -2.199942 1.887769 -3.164346 0
M  V30 48 H -1.508948 -0.538172 -0.419076 0
M  V30 49 H -2.884370 -0.873125 1.486858 0
M  V30 50 H -7.069223 0.550487 1.096818 0
M  V30 51 H -6.888612 1.280507 2.775885 0
M  V30 52 H -7.474805 -0.659177 3.759773 0
M  V30 53 H -8.074064 -1.132309 2.127588 0
M  V30 54 H -4.895278 -2.667068 1.276353 0
M  V30 55 H -6.194856 -1.687553 0.529036 0
M  V30 56 H -6.516800 -3.372076 1.182512 0
M  V30 57 H -4.210369 -2.210171 2.938191 0
M  V30 58 H -5.111029 -1.992931 4.458402 0
M  V30 59 H -3.581795 -0.091577 3.392007 0
M  V30 60 H -5.161339 0.387559 4.150664 0
M  V30 61 H -5.729914 2.017743 -0.016022 0
M  V30 62 H -4.247662 2.283711 -1.934906 0
M  V30 63 H 1.311111 -3.425682 0.173685 0
M  V30 64 H 1.950156 -2.710964 2.533053 0
M  V30 65 H 2.389729 2.074026 1.741409 0
M  V30 66 H 5.779225 0.546301 -0.144682 0
M  V30 67 H 7.142821 2.579121 0.616729 0
M  V30 68 H 5.708240 3.194031 1.615391 0
M  V30 69 H 5.706051 2.727893 -1.447562 0
M  V30 70 H 4.252408 3.306420 -0.393180 0
M  V30 71 H 5.439222 0.154956 2.501824 0
M  V30 72 H 4.623937 1.582894 3.299321 0
M  V30 73 H 2.571211 0.329072 3.555046 0
M  V30 74 H 3.843656 -0.994646 3.784135 0
M  V30 END ATOM
M  V30 BEGIN BOND
M  V30 1 2 1 2
M  V30 2 1 2 3
M  V30 3 1 3 4
M  V30 4 1 4 5
M  V30 5 2 5 6
M  V30 6 1 5 7
M  V30 7 2 7 8
M  V30 8 1 8 9
M  V30 9 2 9 10
M  V30 10 1 10 11
M  V30 11 1 11 12
M  V30 12 2 12 13
M  V30 13 1 13 14
M  V30 14 2 14 15
M  V30 15 1 15 16
M  V30 16 1 16 17
M  V30 17 1 17 18
M  V30 18 1 18 19
M  V30 19 1 19 20
M  V30 20 1 19 21
M  V30 21 1 21 22
M  V30 22 1 15 23
M  V30 23 2 23 24
M  V30 24 1 10 25
M  V30 25 2 25 26
M  V30 26 1 26 27
M  V30 27 1 27 28
M  V30 28 2 28 29
M  V30 29 1 29 30
M  V30 30 2 30 31
M  V30 31 1 31 32
M  V30 32 2 32 33
M  V30 33 1 32 34
M  V30 34 1 34 35 CFG=1
M  V30 35 1 34 36
M  V30 36 1 36 37
M  V30 37 1 37 38
M  V30 38 1 34 39
M  V30 39 1 39 40
M  V30 40 1 27 4
M  V30 41 1 33 28
M  V30 42 1 38 36
M  V30 43 1 26 7
M  V30 44 1 40 31
M  V30 45 1 24 12
M  V30 46 1 22 16
M  V30 47 1 1 41
M  V30 48 1 1 42
M  V30 49 1 2 43
M  V30 50 1 3 44
M  V30 51 1 3 45
M  V30 52 1 8 46
M  V30 53 1 11 47
M  V30 54 1 13 48
M  V30 55 1 14 49
M  V30 56 1 17 50
M  V30 57 1 17 51
M  V30 58 1 18 52
M  V30 59 1 18 53
M  V30 60 1 20 54
M  V30 61 1 20 55
M  V30 62 1 20 56
M  V30 63 1 21 57
M  V30 64 1 21 58
M  V30 65 1 22 59
M  V30 66 1 22 60
M  V30 67 1 23 61
M  V30 68 1 24 62
M  V30 69 1 29 63
M  V30 70 1 30 64
M  V30 71 1 35 65
M  V30 72 1 36 66
M  V30 73 1 37 67
M  V30 74 1 37 68
M  V30 75 1 38 69
M  V30 76 1 38 70
M  V30 77 1 39 71
M  V30 78 1 39 72
M  V30 79 1 40 73
M  V30 80 1 40 74
M  V30 END BOND
M  V30 END CTAB
M  END
>  <Dataset>  (960) 
ChEMBL_Kinases

>  <Ligand_Instance>  (960) 
nan

>  <PDB_ID>  (960) 
nan

>  <Standardized_SMILES>  (960) 
C=CCn1c(=O)c2cnc(Nc3ccc(N4CCN(C)CC4)cc3)nc2n1-c1ccc2c(n1)[C@](O)(C1CC1)CC2

>  <Name>  (960) 
nan

>  <Pocket>  (960) 
nan

>  <ATP_Site>  (960) 
nan

>  <Peripheral>  (960) 
nan

>  <Num_H_Atoms_ProtBoundConf>  (960) 
nan

>  <Num_Resolved_Atoms>  (960) 
nan

>  <Num_Not_Resolved_Atoms>  (960) 
nan

$$$$
CHEMBL387787
     RDKit          3D

  0  0  0  0  0  0  0  0  0  0999 V3000
M  V30 BEGIN CTAB
M  V30 COUNTS 78 83 0 0 0
M  V30 BEGIN ATOM
M  V30 1 C 5.783191 -0.092025 5.858013 0
M  V30 2 O 6.699263 -1.130020 5.704203 0
M  V30 3 C 6.920297 -1.867978 4.553563 0
M  V30 4 C 6.282725 -1.715462 3.355076 0
M  V30 5 C 6.625919 -2.540523 2.309076 0
M  V30 6 C 5.921092 -2.335543 1.046199 0
M  V30 7 C 6.566577 -2.601239 -0.133937 0
M  V30 8 C 5.988331 -2.426676 -1.373312 0
M  V30 9 C 4.694350 -1.958976 -1.355937 0
M  V30 10 C 4.020931 -1.683439 -0.175525 0
M  V30 11 C 4.619454 -1.865274 1.059939 0
M  V30 12 N 2.673368 -1.193655 -0.004952 0
M  V30 13 C 1.978683 -0.422318 -0.995288 0
M  V30 14 C 0.951012 0.280247 -0.394272 0
M  V30 15 C 0.116223 1.110070 -1.110402 0
M  V30 16 C -1.004971 1.855722 -0.427406 0
M  V30 17 C -0.571153 3.342132 -0.419024 0
M  V30 18 C -1.044940 1.492231 1.029343 0
M  V30 19 C -2.242672 1.796134 -1.180047 0
M  V30 20 O -3.017153 1.127117 -0.342649 0
M  V30 21 N -3.257452 1.903898 -2.123472 0
M  V30 22 C -4.536370 1.326319 -1.848618 0
M  V30 23 C -4.583665 0.023683 -2.303734 0
M  V30 24 C -5.774909 -0.698814 -2.118184 0
M  V30 25 C -6.801061 -0.025814 -1.487659 0
M  V30 26 N -8.011380 -0.782658 -1.313482 0
M  V30 27 C -8.098208 -2.103794 -1.884111 0
M  V30 28 C -9.589062 -2.444893 -1.955043 0
M  V30 29 O -10.109737 -2.623992 -0.681325 0
M  V30 30 C -9.738281 -1.582968 0.174837 0
M  V30 31 C -9.219500 -0.398727 -0.611306 0
M  V30 32 C -6.733262 1.277427 -1.038865 0
M  V30 33 C -5.556109 2.006111 -1.217179 0
M  V30 34 C 0.325768 1.233828 -2.469242 0
M  V30 35 C 1.348912 0.535638 -3.073318 0
M  V30 36 C 2.176025 -0.292653 -2.337865 0
M  V30 37 N 3.170677 -0.920000 -3.169891 0
M  V30 38 C 4.180053 -1.808133 -2.703602 0
M  V30 39 O 4.691287 -2.561329 -3.579970 0
M  V30 40 C 7.587404 -3.526154 2.393269 0
M  V30 41 C 8.211861 -3.650124 3.620298 0
M  V30 42 C 7.892281 -2.835630 4.701975 0
M  V30 43 N 8.637291 -3.093687 5.905041 0
M  V30 44 H 6.167015 0.923772 5.623727 0
M  V30 45 H 4.958935 -0.268182 5.111173 0
M  V30 46 H 5.271647 -0.121376 6.847586 0
M  V30 47 H 5.532703 -0.948512 3.281485 0
M  V30 48 H 7.594291 -2.971133 -0.143043 0
M  V30 49 H 6.464987 -2.624475 -2.317906 0
M  V30 50 H 4.061941 -1.638903 1.960209 0
M  V30 51 H 2.197269 -1.419097 0.884083 0
M  V30 52 H 0.808115 0.163727 0.689100 0
M  V30 53 H -0.649667 3.724976 -1.442711 0
M  V30 54 H -1.289364 3.933409 0.186494 0
M  V30 55 H 0.455542 3.432904 -0.053992 0
M  V30 56 H -0.090914 1.851064 1.464505 0
M  V30 57 H -1.858150 2.060595 1.543376 0
M  V30 58 H -1.157381 0.400004 1.171043 0
M  V30 59 H -2.628505 2.456323 -2.807992 0
M  V30 60 H -3.790223 -0.511003 -2.795589 0
M  V30 61 H -5.834697 -1.718268 -2.467293 0
M  V30 62 H -7.606860 -2.863348 -1.276696 0
M  V30 63 H -7.749049 -2.049086 -2.935420 0
M  V30 64 H -10.156485 -1.621022 -2.434684 0
M  V30 65 H -9.758773 -3.358252 -2.547107 0
M  V30 66 H -10.590757 -1.259539 0.809590 0
M  V30 67 H -8.931632 -1.914271 0.858411 0
M  V30 68 H -8.930526 0.375288 0.156560 0
M  V30 69 H -9.986229 0.047903 -1.258476 0
M  V30 70 H -7.551379 1.776620 -0.545260 0
M  V30 71 H -5.394986 3.024471 -0.909722 0
M  V30 72 H -0.322195 1.886115 -3.050862 0
M  V30 73 H 1.489202 0.656651 -4.155234 0
M  V30 74 H 3.143485 -0.704830 -4.194856 0
M  V30 75 H 7.810722 -4.144353 1.526802 0
M  V30 76 H 8.970496 -4.450947 3.623441 0
M  V30 77 H 9.151642 -2.292482 6.339818 0
M  V30 78 H 8.561544 -4.113268 6.200134 0
M  V30 END ATOM
M  V30 BEGIN BOND
M  V30 1 1 1 2
M  V30 2 1 2 3
M  V30 3 2 3 4
M  V30 4 1 4 5
M  V30 5 1 5 6
M  V30 6 2 6 7
M  V30 7 1 7 8
M  V30 8 2 8 9
M  V30 9 1 9 10
M  V30 10 2 10 11
M  V30 11 1 10 12
M  V30 12 1 12 13
M  V30 13 2 13 14
M  V30 14 1 14 15
M  V30 15 1 15 16
M  V30 16 1 16 17
M  V30 17 1 16 18
M  V30 18 1 16 19
M  V30 19 2 19 20
M  V30 20 1 19 21
M  V30 21 1 21 22
M  V30 22 2 22 23
M  V30 23 1 23 24
M  V30 24 2 24 25
M  V30 25 1 25 26
M  V30 26 1 26 27
M  V30 27 1 27 28
M  V30 28 1 28 29
M  V30 29 1 29 30
M  V30 30 1 30 31
M  V30 31 1 25 32
M  V30 32 2 32 33
M  V30 33 2 15 34
M  V30 34 1 34 35
M  V30 35 2 35 36
M  V30 36 1 36 37
M  V30 37 1 37 38
M  V30 38 2 38 39
M  V30 39 2 5 40
M  V30 40 1 40 41
M  V30 41 2 41 42
M  V30 42 1 42 43
M  V30 43 1 42 3
M  V30 44 1 11 6
M  V30 45 1 36 13
M  V30 46 1 38 9
M  V30 47 1 33 22
M  V30 48 1 31 26
M  V30 49 1 1 44
M  V30 50 1 1 45
M  V30 51 1 1 46
M  V30 52 1 4 47
M  V30 53 1 7 48
M  V30 54 1 8 49
M  V30 55 1 11 50
M  V30 56 1 12 51
M  V30 57 1 14 52
M  V30 58 1 17 53
M  V30 59 1 17 54
M  V30 60 1 17 55
M  V30 61 1 18 56
M  V30 62 1 18 57
M  V30 63 1 18 58
M  V30 64 1 21 59
M  V30 65 1 23 60
M  V30 66 1 24 61
M  V30 67 1 27 62
M  V30 68 1 27 63
M  V30 69 1 28 64
M  V30 70 1 28 65
M  V30 71 1 30 66
M  V30 72 1 30 67
M  V30 73 1 31 68
M  V30 74 1 31 69
M  V30 75 1 32 70
M  V30 76 1 33 71
M  V30 77 1 34 72
M  V30 78 1 35 73
M  V30 79 1 37 74
M  V30 80 1 40 75
M  V30 81 1 41 76
M  V30 82 1 43 77
M  V30 83 1 43 78
M  V30 END BOND
M  V30 END CTAB
M  END
>  <Dataset>  (961) 
ChEMBL_Kinases

>  <Ligand_Instance>  (961) 
nan

>  <PDB_ID>  (961) 
nan

>  <Standardized_SMILES>  (961) 
COc1cc(-c2ccc3c(c2)Nc2cc(C(C)(C)C(=O)Nc4ccc(N5CCOCC5)cc4)ccc2NC3=O)ccc1N

>  <Name>  (961) 
nan

>  <Pocket>  (961) 
nan

>  <ATP_Site>  (961) 
nan

>  <Peripheral>  (961) 
nan

>  <Num_H_Atoms_ProtBoundConf>  (961) 
nan

>  <Num_Resolved_Atoms>  (961) 
nan

>  <Num_Not_Resolved_Atoms>  (961) 
nan

$$$$
CHEMBL492265
     RDKit          3D

  0  0  0  0  0  0  0  0  0  0999 V3000
M  V30 BEGIN CTAB
M  V30 COUNTS 53 57 0 0 0
M  V30 BEGIN ATOM
M  V30 1 C 0.291534 3.097047 -0.415397 0
M  V30 2 C 1.517517 2.419767 0.068435 0
M  V30 3 C 2.732026 3.049781 0.229889 0
M  V30 4 C 3.872369 2.375950 0.684371 0
M  V30 5 C 3.774057 1.031855 0.980780 0
M  V30 6 C 4.956628 0.328764 1.458105 0
M  V30 7 O 6.002493 1.048583 1.596661 0
M  V30 8 N 5.014916 -1.053973 1.766226 0
M  V30 9 C 6.160659 -1.804490 2.245969 0
M  V30 10 C 5.806977 -2.862444 3.272812 0
M  V30 11 C 6.268502 -3.229785 1.859142 0
M  V30 12 C 2.538823 0.444021 0.804066 0
M  V30 13 C 1.396528 1.069454 0.360931 0
M  V30 14 C 0.173105 0.260658 0.252467 0
M  V30 15 C -1.059001 0.647956 0.732503 0
M  V30 16 C -2.161881 -0.182455 0.587299 0
M  V30 17 C -2.050661 -1.408412 -0.037586 0
M  V30 18 C -3.194880 -2.171306 -0.143424 0
M  V30 19 C -4.501069 -1.821723 0.340514 0
M  V30 20 C -4.723514 -1.523602 1.666875 0
M  V30 21 C -5.935402 -1.193392 2.227410 0
M  V30 22 C -7.052664 -1.151612 1.391224 0
M  V30 23 C -6.855753 -1.445949 0.059003 0
M  V30 24 C -5.621190 -1.772353 -0.460620 0
M  V30 25 C -5.548488 -2.063663 -1.896218 0
M  V30 26 N -3.023019 -3.364573 -0.771608 0
M  V30 27 N -1.861343 -3.752986 -1.236203 0
M  V30 28 C -0.737136 -3.024497 -1.141925 0
M  V30 29 C -0.810034 -1.793162 -0.518700 0
M  V30 30 C 0.291093 -0.965712 -0.374596 0
M  V30 31 H -0.400609 2.375516 -0.921612 0
M  V30 32 H 0.535049 3.829901 -1.241513 0
M  V30 33 H -0.209503 3.719377 0.351830 0
M  V30 34 H 2.798841 4.105115 -0.005454 0
M  V30 35 H 4.778907 2.955081 0.778585 0
M  V30 36 H 4.139387 -1.606904 1.636454 0
M  V30 37 H 7.105001 -1.285240 2.430738 0
M  V30 38 H 4.733979 -3.110476 3.427792 0
M  V30 39 H 6.449128 -3.074400 4.125319 0
M  V30 40 H 7.274021 -3.692007 1.851166 0
M  V30 41 H 5.559131 -3.662100 1.148603 0
M  V30 42 H 2.483118 -0.612765 1.042706 0
M  V30 43 H -1.146422 1.599807 1.219894 0
M  V30 44 H -3.101985 0.177811 0.979540 0
M  V30 45 H -3.927224 -1.528084 2.416322 0
M  V30 46 H -6.096184 -0.964280 3.261774 0
M  V30 47 H -8.011926 -0.897672 1.796761 0
M  V30 48 H -7.743404 -1.405276 -0.570389 0
M  V30 49 H -6.263395 -2.887525 -2.165639 0
M  V30 50 H -4.560559 -2.341271 -2.256007 0
M  V30 51 H -5.892637 -1.187633 -2.518697 0
M  V30 52 H 0.220459 -3.366058 -1.535590 0
M  V30 53 H 1.201701 -1.342649 -0.773386 0
M  V30 END ATOM
M  V30 BEGIN BOND
M  V30 1 1 1 2
M  V30 2 2 2 3
M  V30 3 1 3 4
M  V30 4 2 4 5
M  V30 5 1 5 6
M  V30 6 2 6 7
M  V30 7 1 6 8
M  V30 8 1 8 9
M  V30 9 1 9 10
M  V30 10 1 10 11
M  V30 11 1 5 12
M  V30 12 2 12 13
M  V30 13 1 13 14
M  V30 14 2 14 15
M  V30 15 1 15 16
M  V30 16 2 16 17
M  V30 17 1 17 18
M  V30 18 1 18 19
M  V30 19 2 19 20
M  V30 20 1 20 21
M  V30 21 2 21 22
M  V30 22 1 22 23
M  V30 23 2 23 24
M  V30 24 1 24 25
M  V30 25 2 18 26
M  V30 26 1 26 27
M  V30 27 2 27 28
M  V30 28 1 28 29
M  V30 29 2 29 30
M  V30 30 1 13 2
M  V30 31 1 30 14
M  V30 32 1 11 9
M  V30 33 1 29 17
M  V30 34 1 24 19
M  V30 35 1 1 31
M  V30 36 1 1 32
M  V30 37 1 1 33
M  V30 38 1 3 34
M  V30 39 1 4 35
M  V30 40 1 8 36
M  V30 41 1 9 37
M  V30 42 1 10 38
M  V30 43 1 10 39
M  V30 44 1 11 40
M  V30 45 1 11 41
M  V30 46 1 12 42
M  V30 47 1 15 43
M  V30 48 1 16 44
M  V30 49 1 20 45
M  V30 50 1 21 46
M  V30 51 1 22 47
M  V30 52 1 23 48
M  V30 53 1 25 49
M  V30 54 1 25 50
M  V30 55 1 25 51
M  V30 56 1 28 52
M  V30 57 1 30 53
M  V30 END BOND
M  V30 END CTAB
M  END
>  <Dataset>  (962) 
ChEMBL_Kinases

>  <Ligand_Instance>  (962) 
nan

>  <PDB_ID>  (962) 
nan

>  <Standardized_SMILES>  (962) 
Cc1ccc(C(=O)NC2CC2)cc1-c1ccc2c(-c3ccccc3C)nncc2c1

>  <Name>  (962) 
nan

>  <Pocket>  (962) 
nan

>  <ATP_Site>  (962) 
nan

>  <Peripheral>  (962) 
nan

>  <Num_H_Atoms_ProtBoundConf>  (962) 
nan

>  <Num_Resolved_Atoms>  (962) 
nan

>  <Num_Not_Resolved_Atoms>  (962) 
nan

$$$$
CHEMBL387747
     RDKit          3D

  0  0  0  0  0  0  0  0  0  0999 V3000
M  V30 BEGIN CTAB
M  V30 COUNTS 50 54 0 0 0
M  V30 BEGIN ATOM
M  V30 1 C -0.105704 -2.042625 5.438346 0
M  V30 2 C 1.005425 -2.228517 4.448332 0
M  V30 3 C 2.110854 -3.009654 4.697190 0
M  V30 4 C 3.075601 -3.120254 3.732988 0
M  V30 5 C 2.911225 -2.440525 2.530566 0
M  V30 6 C 1.798899 -1.653265 2.277554 0
M  V30 7 C 1.585582 -0.925285 1.040958 0
M  V30 8 N 2.306764 0.062982 0.490067 0
M  V30 9 C 1.799265 0.514815 -0.693152 0
M  V30 10 C 2.496703 1.609215 -1.426738 0
M  V30 11 N 2.015277 2.892589 -0.968028 0
M  V30 12 C 0.736918 3.489029 -1.089626 0
M  V30 13 C 0.466418 4.744785 -0.537325 0
M  V30 14 C -0.767342 5.307263 -0.673332 0
M  V30 15 C -1.790102 4.684597 -1.345747 0
M  V30 16 C -1.575492 3.440809 -1.911330 0
M  V30 17 C -2.628345 2.770844 -2.618579 0
M  V30 18 N -3.468191 2.226087 -3.199927 0
M  V30 19 C -0.316272 2.901661 -1.754744 0
M  V30 20 N 0.710241 -0.256292 -0.849242 0
M  V30 21 C 0.548600 -1.123834 0.158805 0
M  V30 22 C -0.564922 -2.064049 0.209265 0
M  V30 23 C -1.580136 -2.127392 1.139903 0
M  V30 24 C -2.568522 -3.083975 1.048860 0
M  V30 25 C -2.531700 -3.987299 0.005684 0
M  V30 26 C -1.516740 -3.952289 -0.956389 0
M  V30 27 C -0.530328 -2.981562 -0.847410 0
M  V30 28 O -1.776437 -4.997058 -1.864739 0
M  V30 29 C -2.609004 -5.949017 -1.185257 0
M  V30 30 O -3.362289 -5.052099 -0.362000 0
M  V30 31 N 0.903072 -1.600611 3.276427 0
M  V30 32 H -1.018588 -1.710779 4.932807 0
M  V30 33 H -0.246407 -2.937528 6.078209 0
M  V30 34 H 0.218069 -1.211024 6.103537 0
M  V30 35 H 2.169476 -3.503424 5.645803 0
M  V30 36 H 3.965204 -3.736357 3.907890 0
M  V30 37 H 3.662152 -2.509544 1.743771 0
M  V30 38 H 3.178308 0.400156 0.998626 0
M  V30 39 H 3.578398 1.489351 -1.272046 0
M  V30 40 H 2.315909 1.490192 -2.537294 0
M  V30 41 H 2.742223 3.477408 -0.459059 0
M  V30 42 H 1.263532 5.243077 -0.007079 0
M  V30 43 H -0.914851 6.282907 -0.222999 0
M  V30 44 H -2.737661 5.177327 -1.418979 0
M  V30 45 H -0.205293 1.937671 -2.222113 0
M  V30 46 H -1.527981 -1.381561 1.917302 0
M  V30 47 H -3.345031 -3.099081 1.796840 0
M  V30 48 H 0.228867 -3.010986 -1.628184 0
M  V30 49 H -3.250435 -6.518510 -1.861602 0
M  V30 50 H -1.953689 -6.569805 -0.537545 0
M  V30 END ATOM
M  V30 BEGIN BOND
M  V30 1 1 1 2
M  V30 2 2 2 3
M  V30 3 1 3 4
M  V30 4 2 4 5
M  V30 5 1 5 6
M  V30 6 1 6 7
M  V30 7 1 7 8
M  V30 8 1 8 9
M  V30 9 1 9 10
M  V30 10 1 10 11
M  V30 11 1 11 12
M  V30 12 2 12 13
M  V30 13 1 13 14
M  V30 14 2 14 15
M  V30 15 1 15 16
M  V30 16 1 16 17
M  V30 17 3 17 18
M  V30 18 2 16 19
M  V30 19 2 9 20
M  V30 20 1 20 21
M  V30 21 1 21 22
M  V30 22 2 22 23
M  V30 23 1 23 24
M  V30 24 2 24 25
M  V30 25 1 25 26
M  V30 26 2 26 27
M  V30 27 1 26 28
M  V30 28 1 28 29
M  V30 29 1 29 30
M  V30 30 2 6 31
M  V30 31 1 31 2
M  V30 32 2 21 7
M  V30 33 1 27 22
M  V30 34 1 19 12
M  V30 35 1 30 25
M  V30 36 1 1 32
M  V30 37 1 1 33
M  V30 38 1 1 34
M  V30 39 1 3 35
M  V30 40 1 4 36
M  V30 41 1 5 37
M  V30 42 1 8 38
M  V30 43 1 10 39
M  V30 44 1 10 40
M  V30 45 1 11 41
M  V30 46 1 13 42
M  V30 47 1 14 43
M  V30 48 1 15 44
M  V30 49 1 19 45
M  V30 50 1 23 46
M  V30 51 1 24 47
M  V30 52 1 27 48
M  V30 53 1 29 49
M  V30 54 1 29 50
M  V30 END BOND
M  V30 END CTAB
M  END
>  <Dataset>  (963) 
ChEMBL_Kinases

>  <Ligand_Instance>  (963) 
nan

>  <PDB_ID>  (963) 
nan

>  <Standardized_SMILES>  (963) 
Cc1cccc(-c2[nH]c(CNc3cccc(C#N)c3)nc2-c2ccc3c(c2)OCO3)n1

>  <Name>  (963) 
nan

>  <Pocket>  (963) 
nan

>  <ATP_Site>  (963) 
nan

>  <Peripheral>  (963) 
nan

>  <Num_H_Atoms_ProtBoundConf>  (963) 
nan

>  <Num_Resolved_Atoms>  (963) 
nan

>  <Num_Not_Resolved_Atoms>  (963) 
nan

$$$$
CHEMBL388311
     RDKit          3D

  0  0  0  0  0  0  0  0  0  0999 V3000
M  V30 BEGIN CTAB
M  V30 COUNTS 57 61 0 0 0
M  V30 BEGIN ATOM
M  V30 1 N 3.694852 -6.275791 3.620828 0
M  V30 2 C 3.071761 -5.572901 2.473961 0 CFG=2
M  V30 3 C 2.766467 -4.185952 2.959939 0
M  V30 4 O 2.211870 -3.393898 1.934858 0
M  V30 5 C 1.870412 -2.081576 2.224889 0
M  V30 6 C 1.970550 -1.357174 3.393010 0
M  V30 7 N 1.564728 -0.082180 3.418122 0
M  V30 8 C 1.052893 0.536877 2.331373 0
M  V30 9 C 0.925613 -0.140190 1.119094 0
M  V30 10 C 0.366326 0.511241 -0.090037 0
M  V30 11 C 0.850315 0.094669 -1.337935 0
M  V30 12 C 0.296422 0.718753 -2.442426 0
M  V30 13 C -0.690131 1.711374 -2.376543 0
M  V30 14 C -1.097250 2.048286 -1.103635 0
M  V30 15 C -0.600816 1.480132 0.050721 0
M  V30 16 C -2.136412 3.091435 -1.175416 0
M  V30 17 C -2.815130 3.762367 -0.269212 0
M  V30 18 C -3.818939 4.764721 -0.493633 0
M  V30 19 C -4.942555 4.808524 -1.291011 0
M  V30 20 C -5.623230 6.020214 -1.211553 0
M  V30 21 C -4.861494 6.763622 -0.302011 0
M  V30 22 N -3.839515 5.984421 0.071865 0
M  V30 23 C -2.286130 3.322473 -2.615193 0
M  V30 24 O -3.040960 4.115103 -3.230853 0
M  V30 25 N -1.397500 2.473544 -3.344323 0
M  V30 26 C 1.346252 -1.453175 1.103415 0
M  V30 27 C 1.911718 -6.346496 1.958512 0
M  V30 28 C 1.233558 -5.693602 0.824395 0
M  V30 29 C 0.134541 -4.858848 1.043535 0
M  V30 30 C -0.550402 -4.220444 0.042549 0
M  V30 31 C -0.158327 -4.390875 -1.259044 0
M  V30 32 C 0.934180 -5.213098 -1.542951 0
M  V30 33 C 1.615530 -5.853154 -0.501471 0
M  V30 34 H 4.579351 -5.703222 3.776535 0
M  V30 35 H 3.101252 -6.010321 4.451063 0
M  V30 36 H 3.837808 -5.526385 1.660669 0
M  V30 37 H 3.729891 -3.713139 3.316557 0
M  V30 38 H 2.102739 -4.242908 3.849994 0
M  V30 39 H 2.390193 -1.944267 4.197139 0
M  V30 40 H 0.734959 1.568635 2.389645 0
M  V30 41 H 1.610649 -0.665851 -1.472136 0
M  V30 42 H 0.631062 0.439787 -3.436694 0
M  V30 43 H -0.913460 1.735260 1.050879 0
M  V30 44 H -2.523765 3.466357 0.752432 0
M  V30 45 H -5.326122 4.017223 -1.925592 0
M  V30 46 H -6.519426 6.298591 -1.732755 0
M  V30 47 H -5.098267 7.760832 0.000563 0
M  V30 48 H -3.133044 6.366480 0.768313 0
M  V30 49 H -1.275767 2.410545 -4.384836 0
M  V30 50 H 1.216619 -1.915400 0.128384 0
M  V30 51 H 1.171825 -6.412176 2.809858 0
M  V30 52 H 2.190659 -7.393139 1.664953 0
M  V30 53 H -0.254082 -4.659528 2.056302 0
M  V30 54 H -1.398216 -3.567879 0.145760 0
M  V30 55 H -0.555765 -3.984604 -2.197807 0
M  V30 56 H 1.336381 -5.422269 -2.543947 0
M  V30 57 H 2.467346 -6.504775 -0.618005 0
M  V30 END ATOM
M  V30 BEGIN BOND
M  V30 1 1 1 2
M  V30 2 1 2 3
M  V30 3 1 3 4
M  V30 4 1 4 5
M  V30 5 2 5 6
M  V30 6 1 6 7
M  V30 7 2 7 8
M  V30 8 1 8 9
M  V30 9 1 9 10
M  V30 10 2 10 11
M  V30 11 1 11 12
M  V30 12 2 12 13
M  V30 13 1 13 14
M  V30 14 2 14 15
M  V30 15 1 14 16
M  V30 16 2 16 17
M  V30 17 1 17 18
M  V30 18 2 18 19
M  V30 19 1 19 20
M  V30 20 2 20 21
M  V30 21 1 21 22
M  V30 22 1 16 23
M  V30 23 2 23 24
M  V30 24 1 23 25
M  V30 25 2 9 26
M  V30 26 1 2 27
M  V30 27 1 27 28
M  V30 28 2 28 29
M  V30 29 1 29 30
M  V30 30 2 30 31
M  V30 31 1 31 32
M  V30 32 2 32 33
M  V30 33 1 26 5
M  V30 34 1 33 28
M  V30 35 1 15 10
M  V30 36 1 22 18
M  V30 37 1 25 13
M  V30 38 1 1 34
M  V30 39 1 1 35
M  V30 40 1 2 36 CFG=3
M  V30 41 1 3 37
M  V30 42 1 3 38
M  V30 43 1 6 39
M  V30 44 1 8 40
M  V30 45 1 11 41
M  V30 46 1 12 42
M  V30 47 1 15 43
M  V30 48 1 17 44
M  V30 49 1 19 45
M  V30 50 1 20 46
M  V30 51 1 21 47
M  V30 52 1 22 48
M  V30 53 1 25 49
M  V30 54 1 26 50
M  V30 55 1 27 51
M  V30 56 1 27 52
M  V30 57 1 29 53
M  V30 58 1 30 54
M  V30 59 1 31 55
M  V30 60 1 32 56
M  V30 61 1 33 57
M  V30 END BOND
M  V30 END CTAB
M  END
>  <Dataset>  (964) 
ChEMBL_Kinases

>  <Ligand_Instance>  (964) 
nan

>  <PDB_ID>  (964) 
nan

>  <Standardized_SMILES>  (964) 
N[C@H](COc1cncc(-c2ccc3c(c2)/C(=C/c2ccc[nH]2)C(=O)N3)c1)Cc1ccccc1

>  <Name>  (964) 
nan

>  <Pocket>  (964) 
nan

>  <ATP_Site>  (964) 
nan

>  <Peripheral>  (964) 
nan

>  <Num_H_Atoms_ProtBoundConf>  (964) 
nan

>  <Num_Resolved_Atoms>  (964) 
nan

>  <Num_Not_Resolved_Atoms>  (964) 
nan

$$$$
CHEMBL597126
     RDKit          3D

  0  0  0  0  0  0  0  0  0  0999 V3000
M  V30 BEGIN CTAB
M  V30 COUNTS 60 63 0 0 0
M  V30 BEGIN ATOM
M  V30 1 C 0.042036 -1.728256 8.169111 0
M  V30 2 O 0.698696 -0.531404 7.834199 0
M  V30 3 C 1.055329 -0.309467 6.515984 0
M  V30 4 C 0.773338 -1.240189 5.555082 0
M  V30 5 C 1.078426 -1.139212 4.190368 0
M  V30 6 C 1.733575 0.042116 3.820587 0
M  V30 7 C 2.066621 0.178336 2.409469 0
M  V30 8 O 1.744017 -0.768954 1.644293 0
M  V30 9 N 2.724744 1.297172 1.844404 0
M  V30 10 C 3.088888 1.509827 0.463663 0
M  V30 11 C 1.880255 1.891592 -0.307761 0
M  V30 12 C 1.560813 3.250246 -0.378561 0
M  V30 13 C 0.474215 3.767548 -1.056284 0
M  V30 14 C -0.326478 2.843952 -1.694463 0
M  V30 15 C -0.069902 1.493085 -1.665273 0
M  V30 16 C -0.981130 0.631134 -2.367295 0
M  V30 17 O -1.966950 1.131815 -2.967238 0
M  V30 18 N -0.769570 -0.772384 -2.382608 0
M  V30 19 C -1.456827 -1.875196 -2.960518 0
M  V30 20 C -2.410176 -2.376697 -2.064422 0
M  V30 21 C -3.223794 -3.467474 -2.392399 0
M  V30 22 C -3.048033 -4.037520 -3.650269 0
M  V30 23 C -2.101054 -3.517629 -4.504401 0
M  V30 24 C -1.303125 -2.459282 -4.201424 0
M  V30 25 C -1.921327 -4.132300 -5.846376 0
M  V30 26 C -2.340136 -5.591169 -5.720328 0
M  V30 27 N -3.752511 -5.589291 -5.380175 0
M  V30 28 C -3.903709 -5.194259 -4.012803 0
M  V30 29 C 1.027810 1.038727 -0.973693 0
M  V30 30 C 2.034467 1.003418 4.762054 0
M  V30 31 C 1.700826 0.829059 6.083399 0
M  V30 32 O 1.985890 1.777014 7.072335 0
M  V30 33 C 2.639511 2.993612 6.803858 0
M  V30 34 H -0.848634 -1.921819 7.522464 0
M  V30 35 H 0.778693 -2.543523 8.112319 0
M  V30 36 H -0.326719 -1.632631 9.218026 0
M  V30 37 H 0.265580 -2.159168 5.832056 0
M  V30 38 H 0.814001 -1.929047 3.507624 0
M  V30 39 H 2.975978 2.057362 2.504912 0
M  V30 40 H 3.457613 0.556950 -0.005811 0
M  V30 41 H 3.848231 2.289243 0.353127 0
M  V30 42 H 2.200422 3.966076 0.128895 0
M  V30 43 H 0.288814 4.820832 -1.068890 0
M  V30 44 H -1.186949 3.264078 -2.230104 0
M  V30 45 H 0.016834 -1.268021 -1.915008 0
M  V30 46 H -2.618323 -1.998373 -1.063045 0
M  V30 47 H -3.964723 -3.870870 -1.716988 0
M  V30 48 H -0.552634 -1.995178 -4.791600 0
M  V30 49 H -0.896803 -4.008042 -6.240133 0
M  V30 50 H -2.672844 -3.678972 -6.549098 0
M  V30 51 H -2.160785 -6.164261 -6.656996 0
M  V30 52 H -1.721070 -6.023100 -4.903838 0
M  V30 53 H -4.202871 -4.858360 -5.975222 0
M  V30 54 H -3.600079 -6.064045 -3.371605 0
M  V30 55 H -4.971318 -4.968713 -3.802865 0
M  V30 56 H 1.263162 -0.013370 -0.931456 0
M  V30 57 H 2.534999 1.907399 4.480845 0
M  V30 58 H 1.949686 3.687363 6.321797 0
M  V30 59 H 3.056854 3.395626 7.765735 0
M  V30 60 H 3.494826 2.859626 6.097214 0
M  V30 END ATOM
M  V30 BEGIN BOND
M  V30 1 1 1 2
M  V30 2 1 2 3
M  V30 3 2 3 4
M  V30 4 1 4 5
M  V30 5 2 5 6
M  V30 6 1 6 7
M  V30 7 2 7 8
M  V30 8 1 7 9
M  V30 9 1 9 10
M  V30 10 1 10 11
M  V30 11 2 11 12
M  V30 12 1 12 13
M  V30 13 2 13 14
M  V30 14 1 14 15
M  V30 15 1 15 16
M  V30 16 2 16 17
M  V30 17 1 16 18
M  V30 18 1 18 19
M  V30 19 2 19 20
M  V30 20 1 20 21
M  V30 21 2 21 22
M  V30 22 1 22 23
M  V30 23 2 23 24
M  V30 24 1 23 25
M  V30 25 1 25 26
M  V30 26 1 26 27
M  V30 27 1 27 28
M  V30 28 2 15 29
M  V30 29 1 6 30
M  V30 30 2 30 31
M  V30 31 1 31 32
M  V30 32 1 32 33
M  V30 33 1 31 3
M  V30 34 1 29 11
M  V30 35 1 24 19
M  V30 36 1 28 22
M  V30 37 1 1 34
M  V30 38 1 1 35
M  V30 39 1 1 36
M  V30 40 1 4 37
M  V30 41 1 5 38
M  V30 42 1 9 39
M  V30 43 1 10 40
M  V30 44 1 10 41
M  V30 45 1 12 42
M  V30 46 1 13 43
M  V30 47 1 14 44
M  V30 48 1 18 45
M  V30 49 1 20 46
M  V30 50 1 21 47
M  V30 51 1 24 48
M  V30 52 1 25 49
M  V30 53 1 25 50
M  V30 54 1 26 51
M  V30 55 1 26 52
M  V30 56 1 27 53
M  V30 57 1 28 54
M  V30 58 1 28 55
M  V30 59 1 29 56
M  V30 60 1 30 57
M  V30 61 1 33 58
M  V30 62 1 33 59
M  V30 63 1 33 60
M  V30 END BOND
M  V30 END CTAB
M  END
>  <Dataset>  (965) 
ChEMBL_Kinases

>  <Ligand_Instance>  (965) 
nan

>  <PDB_ID>  (965) 
nan

>  <Standardized_SMILES>  (965) 
COc1ccc(C(=O)NCc2cccc(C(=O)Nc3ccc4c(c3)CCNC4)c2)cc1OC

>  <Name>  (965) 
nan

>  <Pocket>  (965) 
nan

>  <ATP_Site>  (965) 
nan

>  <Peripheral>  (965) 
nan

>  <Num_H_Atoms_ProtBoundConf>  (965) 
nan

>  <Num_Resolved_Atoms>  (965) 
nan

>  <Num_Not_Resolved_Atoms>  (965) 
nan

$$$$
CHEMBL387551
     RDKit          3D

  0  0  0  0  0  0  0  0  0  0999 V3000
M  V30 BEGIN CTAB
M  V30 COUNTS 58 61 0 0 0
M  V30 BEGIN ATOM
M  V30 1 C 0.327333 -4.244826 4.292576 0
M  V30 2 S 0.864759 -4.408728 2.545590 0
M  V30 3 C 1.383785 -2.753761 2.075824 0
M  V30 4 N 2.621252 -2.210774 2.194797 0
M  V30 5 C 2.549528 -0.943254 1.715488 0
M  V30 6 C 3.685217 -0.033675 1.679139 0
M  V30 7 C 4.259512 0.559786 0.576017 0
M  V30 8 C 5.338660 1.406196 0.662755 0
M  V30 9 C 5.833028 1.641734 1.927880 0
M  V30 10 F 6.911895 2.486272 2.021017 0
M  V30 11 C 5.302405 1.077524 3.075671 0
M  V30 12 C 4.210249 0.227629 2.933001 0
M  V30 13 C 1.237188 -0.701029 1.291792 0
M  V30 14 C 0.856619 0.594413 0.740385 0
M  V30 15 C 0.933870 1.580304 1.735795 0
M  V30 16 C 0.630304 2.912945 1.505315 0
M  V30 17 N 0.240050 3.268627 0.250085 0
M  V30 18 C 0.165187 2.331105 -0.701881 0
M  V30 19 N -0.246177 2.637962 -2.046683 0
M  V30 20 C -1.676218 2.449222 -1.969080 0
M  V30 21 C -2.766420 2.590795 -2.994255 0
M  V30 22 O -2.124897 2.094173 -0.821304 0
M  V30 23 C 0.458783 1.001307 -0.509780 0
M  V30 24 N 0.545345 -1.853812 1.533810 0
M  V30 25 C -0.872438 -1.998966 1.210181 0
M  V30 26 C -1.079033 -2.581928 -0.163523 0
M  V30 27 N -2.451122 -2.730689 -0.537190 0
M  V30 28 C -3.205426 -3.704557 0.185412 0
M  V30 29 C -4.576047 -3.752327 -0.509194 0
M  V30 30 O -4.835485 -2.568297 -1.192486 0
M  V30 31 C -4.044228 -2.391460 -2.319712 0
M  V30 32 C -2.628238 -2.839610 -1.972165 0
M  V30 33 H -0.047789 -5.183755 4.700610 0
M  V30 34 H -0.519768 -3.498793 4.355224 0
M  V30 35 H 1.120934 -3.810164 4.921482 0
M  V30 36 H 3.799261 0.311734 -0.367180 0
M  V30 37 H 5.743363 1.839854 -0.240852 0
M  V30 38 H 5.758307 1.318629 4.042328 0
M  V30 39 H 3.867996 -0.163918 3.886162 0
M  V30 40 H 1.229710 1.434639 2.775205 0
M  V30 41 H 0.674935 3.698622 2.235794 0
M  V30 42 H 0.012443 2.922053 -3.007701 0
M  V30 43 H -3.448044 3.426842 -2.780800 0
M  V30 44 H -2.368944 2.588465 -4.014870 0
M  V30 45 H -3.413206 1.669459 -2.898641 0
M  V30 46 H 0.434159 0.190841 -1.192985 0
M  V30 47 H -1.402163 -1.051374 1.359919 0
M  V30 48 H -1.292748 -2.705618 1.972316 0
M  V30 49 H -0.602310 -1.923617 -0.914116 0
M  V30 50 H -0.524049 -3.549765 -0.232561 0
M  V30 51 H -2.786695 -4.711688 0.229542 0
M  V30 52 H -3.412668 -3.284774 1.207856 0
M  V30 53 H -5.394781 -3.893566 0.224269 0
M  V30 54 H -4.639302 -4.590909 -1.214887 0
M  V30 55 H -4.456440 -2.926797 -3.193308 0
M  V30 56 H -4.046393 -1.301304 -2.585210 0
M  V30 57 H -2.451788 -3.864426 -2.350136 0
M  V30 58 H -1.938649 -2.120822 -2.445473 0
M  V30 END ATOM
M  V30 BEGIN BOND
M  V30 1 1 1 2
M  V30 2 1 2 3
M  V30 3 2 3 4
M  V30 4 1 4 5
M  V30 5 1 5 6
M  V30 6 2 6 7
M  V30 7 1 7 8
M  V30 8 2 8 9
M  V30 9 1 9 10
M  V30 10 1 9 11
M  V30 11 2 11 12
M  V30 12 2 5 13
M  V30 13 1 13 14
M  V30 14 2 14 15
M  V30 15 1 15 16
M  V30 16 2 16 17
M  V30 17 1 17 18
M  V30 18 1 18 19
M  V30 19 1 19 20
M  V30 20 1 20 21
M  V30 21 2 20 22
M  V30 22 2 18 23
M  V30 23 1 13 24
M  V30 24 1 24 25
M  V30 25 1 25 26
M  V30 26 1 26 27
M  V30 27 1 27 28
M  V30 28 1 28 29
M  V30 29 1 29 30
M  V30 30 1 30 31
M  V30 31 1 31 32
M  V30 32 1 24 3
M  V30 33 1 32 27
M  V30 34 1 12 6
M  V30 35 1 23 14
M  V30 36 1 1 33
M  V30 37 1 1 34
M  V30 38 1 1 35
M  V30 39 1 7 36
M  V30 40 1 8 37
M  V30 41 1 11 38
M  V30 42 1 12 39
M  V30 43 1 15 40
M  V30 44 1 16 41
M  V30 45 1 19 42
M  V30 46 1 21 43
M  V30 47 1 21 44
M  V30 48 1 21 45
M  V30 49 1 23 46
M  V30 50 1 25 47
M  V30 51 1 25 48
M  V30 52 1 26 49
M  V30 53 1 26 50
M  V30 54 1 28 51
M  V30 55 1 28 52
M  V30 56 1 29 53
M  V30 57 1 29 54
M  V30 58 1 31 55
M  V30 59 1 31 56
M  V30 60 1 32 57
M  V30 61 1 32 58
M  V30 END BOND
M  V30 END CTAB
M  END
>  <Dataset>  (966) 
ChEMBL_Kinases

>  <Ligand_Instance>  (966) 
nan

>  <PDB_ID>  (966) 
nan

>  <Standardized_SMILES>  (966) 
CSc1nc(-c2ccc(F)cc2)c(-c2ccnc(NC(C)=O)c2)n1CCN1CCOCC1

>  <Name>  (966) 
nan

>  <Pocket>  (966) 
nan

>  <ATP_Site>  (966) 
nan

>  <Peripheral>  (966) 
nan

>  <Num_H_Atoms_ProtBoundConf>  (966) 
nan

>  <Num_Resolved_Atoms>  (966) 
nan

>  <Num_Not_Resolved_Atoms>  (966) 
nan

$$$$
CHEMBL492610
     RDKit          3D

  0  0  0  0  0  0  0  0  0  0999 V3000
M  V30 BEGIN CTAB
M  V30 COUNTS 49 52 0 0 0
M  V30 BEGIN ATOM
M  V30 1 C 0.732566 -6.537668 0.721354 0
M  V30 2 N 0.699964 -5.963940 -0.623797 0
M  V30 3 C 0.485377 -6.800042 -1.779034 0
M  V30 4 C 0.888880 -4.551334 -0.717793 0
M  V30 5 C 1.084273 -3.837786 0.448406 0
M  V30 6 C 1.276279 -2.448126 0.438727 0
M  V30 7 C 1.267863 -1.785073 -0.776558 0
M  V30 8 C 1.453097 -0.334153 -0.953488 0
M  V30 9 C 2.045163 0.174101 -2.084426 0
M  V30 10 C 2.203654 1.537007 -2.224897 0
M  V30 11 C 1.743708 2.323347 -1.190367 0
M  V30 12 N 1.905353 3.639030 -1.346777 0
M  V30 13 C 1.520953 4.546176 -0.452136 0
M  V30 14 N 0.940204 4.105766 0.665133 0
M  V30 15 C 0.724258 2.810519 0.934157 0
M  V30 16 N 0.138524 2.152236 2.041069 0
M  V30 17 C -0.437642 1.504752 3.129907 0
M  V30 18 C -1.845041 1.842115 3.472837 0
M  V30 19 C -2.960809 1.199484 2.986403 0
M  V30 20 C -4.256671 1.526150 3.312717 0
M  V30 21 C -4.407296 2.593751 4.205648 0
M  V30 22 C -3.322807 3.266925 4.718643 0
M  V30 23 C -2.051360 2.886950 4.349386 0
M  V30 24 C 1.141176 1.902183 -0.026799 0
M  V30 25 C 1.023154 0.528410 0.030614 0
M  V30 26 C 1.072147 -2.504369 -1.940399 0
M  V30 27 C 0.880470 -3.891452 -1.930140 0
M  V30 28 H 1.764254 -6.555165 1.132518 0
M  V30 29 H 0.420308 -7.608900 0.654425 0
M  V30 30 H 0.011966 -6.003275 1.387673 0
M  V30 31 H -0.009747 -6.301949 -2.624030 0
M  V30 32 H -0.187236 -7.677188 -1.544941 0
M  V30 33 H 1.444424 -7.281272 -2.084352 0
M  V30 34 H 1.105727 -4.275772 1.446644 0
M  V30 35 H 1.433089 -1.840376 1.317481 0
M  V30 36 H 2.386965 -0.485010 -2.864130 0
M  V30 37 H 2.665814 1.966382 -3.102218 0
M  V30 38 H 1.611126 5.622087 -0.494983 0
M  V30 39 H -0.080507 3.047975 2.571296 0
M  V30 40 H 0.216419 1.581384 4.052420 0
M  V30 41 H -0.449807 0.382995 2.963311 0
M  V30 42 H -2.813547 0.381135 2.301143 0
M  V30 43 H -5.105170 0.994659 2.907564 0
M  V30 44 H -5.408121 2.894080 4.496869 0
M  V30 45 H -3.481173 4.085648 5.405312 0
M  V30 46 H -1.235526 3.441773 4.775240 0
M  V30 47 H 0.568049 0.086173 0.893944 0
M  V30 48 H 1.057839 -2.031451 -2.907614 0
M  V30 49 H 0.732320 -4.416345 -2.846362 0
M  V30 END ATOM
M  V30 BEGIN BOND
M  V30 1 1 1 2
M  V30 2 1 2 3
M  V30 3 1 2 4
M  V30 4 2 4 5
M  V30 5 1 5 6
M  V30 6 2 6 7
M  V30 7 1 7 8
M  V30 8 2 8 9
M  V30 9 1 9 10
M  V30 10 2 10 11
M  V30 11 1 11 12
M  V30 12 2 12 13
M  V30 13 1 13 14
M  V30 14 2 14 15
M  V30 15 1 15 16
M  V30 16 1 16 17
M  V30 17 1 17 18
M  V30 18 2 18 19
M  V30 19 1 19 20
M  V30 20 2 20 21
M  V30 21 1 21 22
M  V30 22 2 22 23
M  V30 23 1 15 24
M  V30 24 2 24 25
M  V30 25 1 7 26
M  V30 26 2 26 27
M  V30 27 1 27 4
M  V30 28 1 25 8
M  V30 29 1 24 11
M  V30 30 1 23 18
M  V30 31 1 1 28
M  V30 32 1 1 29
M  V30 33 1 1 30
M  V30 34 1 3 31
M  V30 35 1 3 32
M  V30 36 1 3 33
M  V30 37 1 5 34
M  V30 38 1 6 35
M  V30 39 1 9 36
M  V30 40 1 10 37
M  V30 41 1 13 38
M  V30 42 1 16 39
M  V30 43 1 17 40
M  V30 44 1 17 41
M  V30 45 1 19 42
M  V30 46 1 20 43
M  V30 47 1 21 44
M  V30 48 1 22 45
M  V30 49 1 23 46
M  V30 50 1 25 47
M  V30 51 1 26 48
M  V30 52 1 27 49
M  V30 END BOND
M  V30 END CTAB
M  END
>  <Dataset>  (967) 
ChEMBL_Kinases

>  <Ligand_Instance>  (967) 
nan

>  <PDB_ID>  (967) 
nan

>  <Standardized_SMILES>  (967) 
CN(C)c1ccc(-c2ccc3ncnc(NCc4ccccc4)c3c2)cc1

>  <Name>  (967) 
nan

>  <Pocket>  (967) 
nan

>  <ATP_Site>  (967) 
nan

>  <Peripheral>  (967) 
nan

>  <Num_H_Atoms_ProtBoundConf>  (967) 
nan

>  <Num_Resolved_Atoms>  (967) 
nan

>  <Num_Not_Resolved_Atoms>  (967) 
nan

$$$$
CHEMBL38739
     RDKit          3D

  0  0  0  0  0  0  0  0  0  0999 V3000
M  V30 BEGIN CTAB
M  V30 COUNTS 26 28 0 0 0
M  V30 BEGIN ATOM
M  V30 1 O -0.936795 -2.987218 3.894890 0
M  V30 2 C -0.235604 -3.111752 2.834094 0
M  V30 3 N 0.668176 -4.110597 2.392415 0
M  V30 4 C 1.203627 -3.781119 1.116265 0
M  V30 5 O 2.026102 -4.454820 0.455280 0
M  V30 6 C 0.583847 -2.498164 0.764144 0
M  V30 7 C 0.790507 -1.845157 -0.382399 0
M  V30 8 C 0.155336 -0.566558 -0.686233 0
M  V30 9 C -0.597582 -0.155567 -1.793418 0
M  V30 10 N -0.952379 1.135722 -1.658711 0
M  V30 11 C -0.447444 1.571103 -0.492413 0
M  V30 12 C -0.561598 2.855981 0.048963 0
M  V30 13 C 0.027111 3.152312 1.256546 0
M  V30 14 C 0.724429 2.160858 1.910726 0
M  V30 15 C 0.800959 0.923911 1.332534 0
M  V30 16 C 0.240871 0.549015 0.132076 0
M  V30 17 N -0.300747 -2.088113 1.819647 0
M  V30 18 H 0.847724 -4.940281 3.000647 0
M  V30 19 H 1.451595 -2.226024 -1.170120 0
M  V30 20 H -0.795028 -0.887737 -2.586660 0
M  V30 21 H -1.518712 1.605278 -2.393292 0
M  V30 22 H -1.097829 3.649171 -0.434240 0
M  V30 23 H 0.002594 4.096224 1.760804 0
M  V30 24 H 1.228799 2.302389 2.879181 0
M  V30 25 H 1.364912 0.138069 1.862304 0
M  V30 26 H -0.896914 -1.223854 1.855116 0
M  V30 END ATOM
M  V30 BEGIN BOND
M  V30 1 2 1 2
M  V30 2 1 2 3
M  V30 3 1 3 4
M  V30 4 2 4 5
M  V30 5 1 4 6
M  V30 6 2 6 7
M  V30 7 1 7 8
M  V30 8 2 8 9
M  V30 9 1 9 10
M  V30 10 1 10 11
M  V30 11 2 11 12
M  V30 12 1 12 13
M  V30 13 2 13 14
M  V30 14 1 14 15
M  V30 15 2 15 16
M  V30 16 1 6 17
M  V30 17 1 17 2
M  V30 18 1 16 8
M  V30 19 1 16 11
M  V30 20 1 3 18
M  V30 21 1 7 19
M  V30 22 1 9 20
M  V30 23 1 10 21
M  V30 24 1 12 22
M  V30 25 1 13 23
M  V30 26 1 14 24
M  V30 27 1 15 25
M  V30 28 1 17 26
M  V30 END BOND
M  V30 END CTAB
M  END
>  <Dataset>  (968) 
ChEMBL_Kinases

>  <Ligand_Instance>  (968) 
nan

>  <PDB_ID>  (968) 
nan

>  <Standardized_SMILES>  (968) 
O=C1NC(=O)/C(=C/c2c[nH]c3ccccc23)N1

>  <Name>  (968) 
nan

>  <Pocket>  (968) 
nan

>  <ATP_Site>  (968) 
nan

>  <Peripheral>  (968) 
nan

>  <Num_H_Atoms_ProtBoundConf>  (968) 
nan

>  <Num_Resolved_Atoms>  (968) 
nan

>  <Num_Not_Resolved_Atoms>  (968) 
nan

$$$$
CHEMBL492661
     RDKit          3D

  0  0  0  0  0  0  0  0  0  0999 V3000
M  V30 BEGIN CTAB
M  V30 COUNTS 45 48 0 0 0
M  V30 BEGIN ATOM
M  V30 1 C 2.010478 -7.498084 0.460089 0
M  V30 2 N 1.875829 -6.396919 1.394652 0
M  V30 3 C 1.395001 -5.081824 1.111725 0
M  V30 4 N 0.978876 -4.640909 -0.097634 0
M  V30 5 O 0.609292 -3.381284 0.029048 0
M  V30 6 C 0.777234 -3.011259 1.275155 0
M  V30 7 C 0.522473 -1.786597 1.855460 0
M  V30 8 C -0.006158 -0.615544 1.164133 0
M  V30 9 C 0.972379 0.215717 0.623937 0
M  V30 10 C 0.570589 1.358977 -0.055210 0
M  V30 11 C -0.733400 1.726825 -0.230843 0
M  V30 12 C -1.088475 2.857770 -0.904243 0
M  V30 13 C -0.087533 3.760686 -1.488788 0
M  V30 14 C 0.347264 4.843529 -0.513111 0
M  V30 15 C -0.791068 4.502513 -2.631091 0
M  V30 16 N -2.405147 3.108483 -1.008348 0
M  V30 17 N -3.337973 2.322828 -0.497506 0
M  V30 18 C -3.007998 1.203314 0.169866 0
M  V30 19 C -1.668168 0.883325 0.315176 0
M  V30 20 C -1.330762 -0.264507 0.999452 0
M  V30 21 C 0.783379 -1.627630 3.216015 0
M  V30 22 C 0.538197 -0.339173 3.926355 0
M  V30 23 C 1.286287 -2.673868 3.967403 0
M  V30 24 C 1.546931 -3.916511 3.387963 0
M  V30 25 C 1.276194 -4.037626 2.036787 0
M  V30 26 H 1.350175 -7.272020 -0.405085 0
M  V30 27 H 3.072489 -7.554376 0.129249 0
M  V30 28 H 1.734764 -8.463572 0.905844 0
M  V30 29 H 2.170168 -6.632491 2.355522 0
M  V30 30 H 2.027355 0.011308 0.709484 0
M  V30 31 H 1.359983 1.994378 -0.469620 0
M  V30 32 H 0.759230 3.242929 -1.966778 0
M  V30 33 H 0.326160 4.454860 0.543745 0
M  V30 34 H 1.352594 5.238293 -0.773450 0
M  V30 35 H -0.340095 5.715520 -0.508312 0
M  V30 36 H -1.812158 4.743899 -2.220292 0
M  V30 37 H -0.925543 3.879523 -3.520315 0
M  V30 38 H -0.315821 5.489581 -2.815853 0
M  V30 39 H -3.765927 0.550462 0.593728 0
M  V30 40 H -2.042558 -0.951558 1.442400 0
M  V30 41 H 1.441385 0.031739 4.448779 0
M  V30 42 H -0.301545 -0.455792 4.663776 0
M  V30 43 H 0.274063 0.408345 3.138824 0
M  V30 44 H 1.488816 -2.546857 5.028489 0
M  V30 45 H 1.941580 -4.769407 3.933565 0
M  V30 END ATOM
M  V30 BEGIN BOND
M  V30 1 1 1 2
M  V30 2 1 2 3
M  V30 3 2 3 4
M  V30 4 1 4 5
M  V30 5 1 5 6
M  V30 6 2 6 7
M  V30 7 1 7 8
M  V30 8 2 8 9
M  V30 9 1 9 10
M  V30 10 2 10 11
M  V30 11 1 11 12
M  V30 12 1 12 13
M  V30 13 1 13 14
M  V30 14 1 13 15
M  V30 15 2 12 16
M  V30 16 1 16 17
M  V30 17 2 17 18
M  V30 18 1 18 19
M  V30 19 2 19 20
M  V30 20 1 7 21
M  V30 21 1 21 22
M  V30 22 2 21 23
M  V30 23 1 23 24
M  V30 24 2 24 25
M  V30 25 1 25 3
M  V30 26 1 25 6
M  V30 27 1 20 8
M  V30 28 1 19 11
M  V30 29 1 1 26
M  V30 30 1 1 27
M  V30 31 1 1 28
M  V30 32 1 2 29
M  V30 33 1 9 30
M  V30 34 1 10 31
M  V30 35 1 13 32
M  V30 36 1 14 33
M  V30 37 1 14 34
M  V30 38 1 14 35
M  V30 39 1 15 36
M  V30 40 1 15 37
M  V30 41 1 15 38
M  V30 42 1 18 39
M  V30 43 1 20 40
M  V30 44 1 22 41
M  V30 45 1 22 42
M  V30 46 1 22 43
M  V30 47 1 23 44
M  V30 48 1 24 45
M  V30 END BOND
M  V30 END CTAB
M  END
>  <Dataset>  (969) 
ChEMBL_Kinases

>  <Ligand_Instance>  (969) 
nan

>  <PDB_ID>  (969) 
nan

>  <Standardized_SMILES>  (969) 
CNc1noc2c(-c3ccc4c(C(C)C)nncc4c3)c(C)ccc12

>  <Name>  (969) 
nan

>  <Pocket>  (969) 
nan

>  <ATP_Site>  (969) 
nan

>  <Peripheral>  (969) 
nan

>  <Num_H_Atoms_ProtBoundConf>  (969) 
nan

>  <Num_Resolved_Atoms>  (969) 
nan

>  <Num_Not_Resolved_Atoms>  (969) 
nan

$$$$
CHEMBL4928446
     RDKit          3D

  0  0  0  0  0  0  0  0  0  0999 V3000
M  V30 BEGIN CTAB
M  V30 COUNTS 45 48 0 0 0
M  V30 BEGIN ATOM
M  V30 1 O -1.792170 -3.801192 3.161827 0
M  V30 2 C -0.862880 -3.148155 2.621077 0
M  V30 3 N 0.526856 -3.454217 2.675552 0
M  V30 4 C 1.281287 -2.481716 1.938864 0
M  V30 5 C 2.029463 -3.053376 0.774050 0
M  V30 6 C 2.429408 -1.849502 -0.075292 0
M  V30 7 N 3.252984 -0.926555 0.666021 0
M  V30 8 S 3.430248 0.482365 -0.309547 0
M  V30 9 O 4.030426 0.081301 -1.649882 0
M  V30 10 O 4.436473 1.387469 0.335111 0
M  V30 11 C 1.940258 1.282268 -0.656142 0
M  V30 12 C 1.129172 1.016060 -1.758580 0
M  V30 13 C -0.052714 1.734578 -1.932658 0
M  V30 14 C -0.471460 2.717137 -1.051803 0
M  V30 15 C 0.330712 2.993823 0.056113 0
M  V30 16 C 1.515475 2.271572 0.228022 0
M  V30 17 C 2.667966 -0.513892 1.914975 0
M  V30 18 C 2.258739 -1.707608 2.772902 0
M  V30 19 N 0.278714 -1.591500 1.449085 0
M  V30 20 C -0.907472 -1.941474 1.813907 0
M  V30 21 C -2.101928 -1.198784 1.444311 0
M  V30 22 C -2.023115 -0.070152 0.676239 0
M  V30 23 C -3.149329 0.661186 0.306814 0
M  V30 24 C -4.409010 0.258224 0.715229 0
M  V30 25 C -4.519827 -0.876789 1.491083 0
M  V30 26 C -3.366936 -1.570716 1.832425 0
M  V30 27 H 0.950247 -4.274957 3.181729 0
M  V30 28 H 1.437896 -3.711171 0.122621 0
M  V30 29 H 2.976110 -3.504988 1.118463 0
M  V30 30 H 1.486669 -1.314338 -0.315425 0
M  V30 31 H 2.965809 -2.137715 -0.981102 0
M  V30 32 H 1.458069 0.254163 -2.437617 0
M  V30 33 H -0.681359 1.517954 -2.800523 0
M  V30 34 H -1.383905 3.276550 -1.180206 0
M  V30 35 H 0.064518 3.754179 0.791956 0
M  V30 36 H 2.102432 2.511879 1.087757 0
M  V30 37 H 1.745539 0.088054 1.761056 0
M  V30 38 H 3.390685 0.084060 2.470278 0
M  V30 39 H 1.732133 -1.295821 3.653239 0
M  V30 40 H 3.162256 -2.282628 3.055014 0
M  V30 41 H -1.042450 0.251954 0.352630 0
M  V30 42 H -3.079682 1.553424 -0.301186 0
M  V30 43 H -5.308636 0.802334 0.447112 0
M  V30 44 H -5.498928 -1.208412 1.820927 0
M  V30 45 H -3.529908 -2.437879 2.433719 0
M  V30 END ATOM
M  V30 BEGIN BOND
M  V30 1 2 1 2
M  V30 2 1 2 3
M  V30 3 1 3 4
M  V30 4 1 4 5
M  V30 5 1 5 6
M  V30 6 1 6 7
M  V30 7 1 7 8
M  V30 8 2 8 9
M  V30 9 2 8 10
M  V30 10 1 8 11
M  V30 11 2 11 12
M  V30 12 1 12 13
M  V30 13 2 13 14
M  V30 14 1 14 15
M  V30 15 2 15 16
M  V30 16 1 7 17
M  V30 17 1 17 18
M  V30 18 1 4 19
M  V30 19 2 19 20
M  V30 20 1 20 21
M  V30 21 2 21 22
M  V30 22 1 22 23
M  V30 23 2 23 24
M  V30 24 1 24 25
M  V30 25 2 25 26
M  V30 26 1 20 2
M  V30 27 1 26 21
M  V30 28 1 18 4
M  V30 29 1 16 11
M  V30 30 1 3 27
M  V30 31 1 5 28
M  V30 32 1 5 29
M  V30 33 1 6 30
M  V30 34 1 6 31
M  V30 35 1 12 32
M  V30 36 1 13 33
M  V30 37 1 14 34
M  V30 38 1 15 35
M  V30 39 1 16 36
M  V30 40 1 17 37
M  V30 41 1 17 38
M  V30 42 1 18 39
M  V30 43 1 18 40
M  V30 44 1 22 41
M  V30 45 1 23 42
M  V30 46 1 24 43
M  V30 47 1 25 44
M  V30 48 1 26 45
M  V30 END BOND
M  V30 END CTAB
M  END
>  <Dataset>  (970) 
ChEMBL_Kinases

>  <Ligand_Instance>  (970) 
nan

>  <PDB_ID>  (970) 
nan

>  <Standardized_SMILES>  (970) 
O=C1NC2(CCN(S(=O)(=O)c3ccccc3)CC2)N=C1c1ccccc1

>  <Name>  (970) 
nan

>  <Pocket>  (970) 
nan

>  <ATP_Site>  (970) 
nan

>  <Peripheral>  (970) 
nan

>  <Num_H_Atoms_ProtBoundConf>  (970) 
nan

>  <Num_Resolved_Atoms>  (970) 
nan

>  <Num_Not_Resolved_Atoms>  (970) 
nan

$$$$
CHEMBL596482
     RDKit          3D

  0  0  0  0  0  0  0  0  0  0999 V3000
M  V30 BEGIN CTAB
M  V30 COUNTS 35 37 0 0 0
M  V30 BEGIN ATOM
M  V30 1 C -1.538500 -4.993325 3.500128 0
M  V30 2 O -1.996664 -3.816921 2.857316 0
M  V30 3 C -1.148620 -3.179722 1.963577 0
M  V30 4 C 0.114340 -3.746720 1.758293 0
M  V30 5 C 0.997061 -3.131851 0.863362 0
M  V30 6 C 0.568455 -1.969621 0.212539 0
M  V30 7 C 1.561455 -1.378335 -0.695393 0
M  V30 8 C 1.585300 -0.040049 -0.645314 0
M  V30 9 O 0.862171 0.854334 0.087469 0
M  V30 10 C 1.201457 2.172621 -0.160293 0
M  V30 11 C 0.703216 3.337266 0.375216 0
M  V30 12 C 1.176776 4.565720 -0.003739 0
M  V30 13 C 2.192053 4.559291 -0.962953 0
M  V30 14 C 2.706112 3.402439 -1.513118 0
M  V30 15 C 2.203190 2.165773 -1.106939 0
M  V30 16 C 2.494052 0.762429 -1.459921 0
M  V30 17 O 3.379643 0.454161 -2.314381 0
M  V30 18 C -0.680747 -1.434618 0.433287 0
M  V30 19 C -1.555680 -2.032458 1.312268 0
M  V30 20 O -2.815449 -1.557400 1.584472 0
M  V30 21 C -3.427128 -0.434543 1.025616 0
M  V30 22 H -1.223805 -5.723509 2.697440 0
M  V30 23 H -0.629646 -4.808124 4.107155 0
M  V30 24 H -2.341939 -5.472121 4.098331 0
M  V30 25 H 0.450836 -4.645756 2.260108 0
M  V30 26 H 1.986846 -3.557968 0.688902 0
M  V30 27 H 2.221768 -1.924904 -1.351607 0
M  V30 28 H -0.090931 3.273907 1.122308 0
M  V30 29 H 0.802754 5.494465 0.401000 0
M  V30 30 H 2.551761 5.550856 -1.246567 0
M  V30 31 H 3.493087 3.438151 -2.254254 0
M  V30 32 H -0.973161 -0.540596 -0.092723 0
M  V30 33 H -4.092798 -0.826661 0.203005 0
M  V30 34 H -4.123670 0.045873 1.739923 0
M  V30 35 H -2.719430 0.266461 0.544777 0
M  V30 END ATOM
M  V30 BEGIN BOND
M  V30 1 1 1 2
M  V30 2 1 2 3
M  V30 3 2 3 4
M  V30 4 1 4 5
M  V30 5 2 5 6
M  V30 6 1 6 7
M  V30 7 2 7 8
M  V30 8 1 8 9
M  V30 9 1 9 10
M  V30 10 2 10 11
M  V30 11 1 11 12
M  V30 12 2 12 13
M  V30 13 1 13 14
M  V30 14 2 14 15
M  V30 15 1 15 16
M  V30 16 2 16 17
M  V30 17 1 6 18
M  V30 18 2 18 19
M  V30 19 1 19 20
M  V30 20 1 20 21
M  V30 21 1 19 3
M  V30 22 1 16 8
M  V30 23 1 15 10
M  V30 24 1 1 22
M  V30 25 1 1 23
M  V30 26 1 1 24
M  V30 27 1 4 25
M  V30 28 1 5 26
M  V30 29 1 7 27
M  V30 30 1 11 28
M  V30 31 1 12 29
M  V30 32 1 13 30
M  V30 33 1 14 31
M  V30 34 1 18 32
M  V30 35 1 21 33
M  V30 36 1 21 34
M  V30 37 1 21 35
M  V30 END BOND
M  V30 END CTAB
M  END
>  <Dataset>  (971) 
ChEMBL_Kinases

>  <Ligand_Instance>  (971) 
nan

>  <PDB_ID>  (971) 
nan

>  <Standardized_SMILES>  (971) 
COc1ccc(/C=C2\Oc3ccccc3C2=O)cc1OC

>  <Name>  (971) 
3',4'-DIMETHOXY-AURONE

>  <Pocket>  (971) 
nan

>  <ATP_Site>  (971) 
nan

>  <Peripheral>  (971) 
nan

>  <Num_H_Atoms_ProtBoundConf>  (971) 
nan

>  <Num_Resolved_Atoms>  (971) 
nan

>  <Num_Not_Resolved_Atoms>  (971) 
nan

$$$$
CHEMBL387341
     RDKit          3D

  0  0  0  0  0  0  0  0  0  0999 V3000
M  V30 BEGIN CTAB
M  V30 COUNTS 50 52 0 0 0
M  V30 BEGIN ATOM
M  V30 1 C 1.399465 1.297511 -5.381433 0
M  V30 2 N 0.581841 1.063736 -4.213609 0
M  V30 3 C -0.845799 0.879199 -4.391852 0
M  V30 4 C 0.980752 0.985587 -2.869227 0
M  V30 5 C 0.751426 -0.171444 -2.155420 0
M  V30 6 C 1.113690 -0.318685 -0.839037 0
M  V30 7 C 1.734455 0.722702 -0.184081 0
M  V30 8 C 1.979129 1.910847 -0.888259 0
M  V30 9 C 1.600216 2.031800 -2.224182 0
M  V30 10 Cl 1.856941 3.461256 -3.193124 0
M  V30 11 N 2.234483 0.930976 1.124873 0
M  V30 12 C 1.800263 0.850871 2.453190 0
M  V30 13 O 0.745263 0.496448 1.821020 0
M  V30 14 N 1.596443 0.844763 3.845636 0
M  V30 15 C 0.440456 0.510805 4.593637 0
M  V30 16 C -0.008461 1.151933 5.710538 0
M  V30 17 N -1.126158 0.712003 6.317673 0
M  V30 18 C -1.759952 -0.348398 5.795302 0
M  V30 19 C -2.958137 -0.892972 6.369037 0
M  V30 20 N -3.925196 -1.324395 6.849855 0
M  V30 21 C -1.313402 -0.991477 4.677146 0
M  V30 22 N -0.199032 -0.524227 4.103693 0
M  V30 23 O -1.896541 -2.120393 4.026520 0
M  V30 24 C -1.067915 -2.616487 2.932746 0
M  V30 25 C -1.729331 -3.738346 2.252300 0
M  V30 26 C -0.994884 -4.311192 1.074616 0
M  V30 27 C -0.621008 -3.271936 0.066861 0
M  V30 28 C 0.656162 -2.514011 0.446426 0
M  V30 29 O 0.888634 -1.398527 -0.206684 0
M  V30 30 H 1.094285 0.635955 -6.230785 0
M  V30 31 H 2.476045 1.241124 -5.191130 0
M  V30 32 H 1.171823 2.335910 -5.758036 0
M  V30 33 H -1.141388 -0.046815 -3.816764 0
M  V30 34 H -1.155714 0.732864 -5.429913 0
M  V30 35 H -1.326284 1.736733 -3.878119 0
M  V30 36 H 0.271451 -0.991523 -2.643676 0
M  V30 37 H 2.458411 2.840075 -0.543547 0
M  V30 38 H 3.216795 1.244624 1.273290 0
M  V30 39 H 2.400920 1.121361 4.449210 0
M  V30 40 H 0.619859 1.985091 5.993302 0
M  V30 41 H -0.136252 -2.923840 3.420663 0
M  V30 42 H -0.930616 -1.736784 2.261962 0
M  V30 43 H -1.867635 -4.557914 3.000377 0
M  V30 44 H -2.736199 -3.425583 1.850361 0
M  V30 45 H -1.700054 -5.033508 0.589513 0
M  V30 46 H -0.132301 -4.934503 1.395145 0
M  V30 47 H -1.480717 -2.568643 -0.004526 0
M  V30 48 H -0.505511 -3.692749 -0.965061 0
M  V30 49 H 1.455559 -3.285339 -0.011938 0
M  V30 50 H 0.935243 -2.625923 1.494776 0
M  V30 END ATOM
M  V30 BEGIN BOND
M  V30 1 1 1 2
M  V30 2 1 2 3
M  V30 3 1 2 4
M  V30 4 2 4 5
M  V30 5 1 5 6
M  V30 6 2 6 7
M  V30 7 1 7 8
M  V30 8 2 8 9
M  V30 9 1 9 10
M  V30 10 1 7 11
M  V30 11 1 11 12
M  V30 12 2 12 13
M  V30 13 1 12 14
M  V30 14 1 14 15
M  V30 15 1 15 16
M  V30 16 2 16 17
M  V30 17 1 17 18
M  V30 18 1 18 19
M  V30 19 3 19 20
M  V30 20 2 18 21
M  V30 21 1 21 22
M  V30 22 1 21 23
M  V30 23 1 23 24
M  V30 24 1 24 25
M  V30 25 1 25 26
M  V30 26 1 26 27
M  V30 27 1 27 28
M  V30 28 1 28 29
M  V30 29 1 9 4
M  V30 30 2 22 15
M  V30 31 1 29 6
M  V30 32 1 1 30
M  V30 33 1 1 31
M  V30 34 1 1 32
M  V30 35 1 3 33
M  V30 36 1 3 34
M  V30 37 1 3 35
M  V30 38 1 5 36
M  V30 39 1 8 37
M  V30 40 1 11 38
M  V30 41 1 14 39
M  V30 42 1 16 40
M  V30 43 1 24 41
M  V30 44 1 24 42
M  V30 45 1 25 43
M  V30 46 1 25 44
M  V30 47 1 26 45
M  V30 48 1 26 46
M  V30 49 1 27 47
M  V30 50 1 27 48
M  V30 51 1 28 49
M  V30 52 1 28 50
M  V30 END BOND
M  V30 END CTAB
M  END
>  <Dataset>  (972) 
ChEMBL_Kinases

>  <Ligand_Instance>  (972) 
nan

>  <PDB_ID>  (972) 
nan

>  <Standardized_SMILES>  (972) 
CN(C)c1cc2c(cc1Cl)NC(=O)Nc1cnc(C#N)c(n1)OCCCCCO2

>  <Name>  (972) 
nan

>  <Pocket>  (972) 
nan

>  <ATP_Site>  (972) 
nan

>  <Peripheral>  (972) 
nan

>  <Num_H_Atoms_ProtBoundConf>  (972) 
nan

>  <Num_Resolved_Atoms>  (972) 
nan

>  <Num_Not_Resolved_Atoms>  (972) 
nan

$$$$
CHEMBL387338
     RDKit          3D

  0  0  0  0  0  0  0  0  0  0999 V3000
M  V30 BEGIN CTAB
M  V30 COUNTS 43 46 0 0 0
M  V30 BEGIN ATOM
M  V30 1 C 1.419245 -2.747763 0.283494 0
M  V30 2 C 1.176122 -1.702115 -0.777985 0
M  V30 3 N 1.996541 -0.540722 -0.666307 0
M  V30 4 C 3.208728 -0.334105 -1.161142 0
M  V30 5 C 4.171179 -1.108539 -1.913798 0
M  V30 6 N 5.347322 -0.629102 -2.349922 0
M  V30 7 O 6.031286 -1.486022 -3.020312 0
M  V30 8 N 5.362074 -2.613253 -3.085245 0
M  V30 9 C 4.225706 -2.379626 -2.407441 0
M  V30 10 N 3.297450 -3.417543 -2.276226 0
M  V30 11 N 3.490283 0.929045 -0.810619 0
M  V30 12 C 2.508827 1.501574 -0.124157 0
M  V30 13 C 2.366224 2.747517 0.422916 0
M  V30 14 N 1.211925 3.039083 1.084122 0
M  V30 15 C 0.213264 2.142376 1.214249 0
M  V30 16 O -0.946440 2.481665 1.896408 0
M  V30 17 C -1.957229 1.538926 2.014554 0
M  V30 18 C -2.979304 1.408967 1.083899 0
M  V30 19 C -3.964466 0.437047 1.266779 0
M  V30 20 C -3.922301 -0.402810 2.383309 0
M  V30 21 C -2.888019 -0.226552 3.268023 0
M  V30 22 C -2.894020 -1.129227 4.413415 0
M  V30 23 C -1.932405 -1.198642 5.534267 0
M  V30 24 O -3.802124 -1.990703 4.537897 0
M  V30 25 C -1.886072 0.714154 3.142923 0
M  V30 26 C 0.365707 0.888932 0.659600 0
M  V30 27 C 1.521018 0.561237 -0.016002 0
M  V30 28 H 2.509209 -2.952747 0.418183 0
M  V30 29 H 0.950550 -2.499551 1.259593 0
M  V30 30 H 0.939684 -3.689146 -0.064180 0
M  V30 31 H 0.081367 -1.398238 -0.629231 0
M  V30 32 H 1.183343 -2.159615 -1.769555 0
M  V30 33 H 2.488153 -3.909445 -2.760020 0
M  V30 34 H 2.879370 -4.212696 -1.744029 0
M  V30 35 H 3.193933 3.427358 0.290772 0
M  V30 36 H -3.000830 2.072237 0.214841 0
M  V30 37 H -4.759368 0.340644 0.536974 0
M  V30 38 H -4.697816 -1.132556 2.482186 0
M  V30 39 H -1.043797 -0.557654 5.352729 0
M  V30 40 H -1.525001 -2.223818 5.668939 0
M  V30 41 H -2.490554 -0.919384 6.452173 0
M  V30 42 H -1.081588 0.830234 3.857924 0
M  V30 43 H -0.392207 0.121199 0.724789 0
M  V30 END ATOM
M  V30 BEGIN BOND
M  V30 1 1 1 2
M  V30 2 1 2 3
M  V30 3 1 3 4
M  V30 4 1 4 5
M  V30 5 2 5 6
M  V30 6 1 6 7
M  V30 7 1 7 8
M  V30 8 2 8 9
M  V30 9 1 9 10
M  V30 10 2 4 11
M  V30 11 1 11 12
M  V30 12 2 12 13
M  V30 13 1 13 14
M  V30 14 2 14 15
M  V30 15 1 15 16
M  V30 16 1 16 17
M  V30 17 2 17 18
M  V30 18 1 18 19
M  V30 19 2 19 20
M  V30 20 1 20 21
M  V30 21 1 21 22
M  V30 22 1 22 23
M  V30 23 2 22 24
M  V30 24 2 21 25
M  V30 25 1 15 26
M  V30 26 2 26 27
M  V30 27 1 27 3
M  V30 28 1 9 5
M  V30 29 1 27 12
M  V30 30 1 25 17
M  V30 31 1 1 28
M  V30 32 1 1 29
M  V30 33 1 1 30
M  V30 34 1 2 31
M  V30 35 1 2 32
M  V30 36 1 10 33
M  V30 37 1 10 34
M  V30 38 1 13 35
M  V30 39 1 18 36
M  V30 40 1 19 37
M  V30 41 1 20 38
M  V30 42 1 23 39
M  V30 43 1 23 40
M  V30 44 1 23 41
M  V30 45 1 25 42
M  V30 46 1 26 43
M  V30 END BOND
M  V30 END CTAB
M  END
>  <Dataset>  (973) 
ChEMBL_Kinases

>  <Ligand_Instance>  (973) 
nan

>  <PDB_ID>  (973) 
nan

>  <Standardized_SMILES>  (973) 
CCn1c(-c2nonc2N)nc2cnc(Oc3cccc(C(C)=O)c3)cc21

>  <Name>  (973) 
nan

>  <Pocket>  (973) 
nan

>  <ATP_Site>  (973) 
nan

>  <Peripheral>  (973) 
nan

>  <Num_H_Atoms_ProtBoundConf>  (973) 
nan

>  <Num_Resolved_Atoms>  (973) 
nan

>  <Num_Not_Resolved_Atoms>  (973) 
nan

$$$$
CHEMBL3916818
     RDKit          3D

  0  0  0  0  0  0  0  0  0  0999 V3000
M  V30 BEGIN CTAB
M  V30 COUNTS 132 135 0 0 0
M  V30 BEGIN ATOM
M  V30 1 C 6.528563 1.121730 -5.582225 0
M  V30 2 C 5.388119 0.264653 -5.243357 0
M  V30 3 O 4.366176 0.554368 -5.936243 0
M  V30 4 N 5.327063 -0.779942 -4.279674 0
M  V30 5 C 6.522535 -1.095950 -3.534228 0
M  V30 6 C 6.098615 -2.245564 -2.668214 0
M  V30 7 C 4.610744 -2.271033 -2.646324 0
M  V30 8 C 4.186277 -1.587135 -3.939350 0 CFG=1
M  V30 9 C 3.076494 -0.626183 -3.633581 0
M  V30 10 O 3.845930 0.371849 -3.378266 0
M  V30 11 N 1.660506 -0.525300 -3.558246 0
M  V30 12 C 1.145283 0.801042 -3.137849 0 CFG=1
M  V30 13 C 0.867545 1.604585 -4.360328 0
M  V30 14 C 0.325708 2.984303 -4.221874 0
M  V30 15 C -1.001382 3.126074 -3.557929 0
M  V30 16 C 0.341817 3.726121 -5.555978 0
M  V30 17 C 0.015316 0.606387 -2.206965 0
M  V30 18 O -0.542367 1.289909 -1.298733 0
M  V30 19 N -0.721593 -0.600325 -2.239411 0
M  V30 20 C -1.855549 -1.058963 -1.471434 0 CFG=1
M  V30 21 C -3.099882 -0.246665 -1.837531 0
M  V30 22 C -4.323486 -0.611158 -1.189363 0
M  V30 23 C -5.288924 -1.454402 -1.776880 0
M  V30 24 N -6.330524 -1.558145 -0.959279 0
M  V30 25 C -6.011541 -0.799341 0.100111 0
M  V30 26 N -4.781371 -0.194894 0.005054 0
M  V30 27 C -4.293168 0.584187 1.056076 0
M  V30 28 C -4.596072 2.051756 1.023228 0
M  V30 29 C -4.055332 2.813748 -0.145484 0
M  V30 30 C -4.410554 4.278695 -0.009174 0
M  V30 31 C -3.841429 4.891946 1.254619 0
M  V30 32 C -2.356823 4.760073 1.321412 0
M  V30 33 O -1.810174 5.315239 2.531317 0
M  V30 34 N -0.449712 5.173227 2.777666 0
M  V30 35 C -0.054916 4.792330 3.928116 0
M  V30 36 C -0.689534 4.429507 5.181816 0
M  V30 37 C -0.735281 5.535646 6.045194 0
M  V30 38 F -0.250104 6.776423 5.764397 0
M  V30 39 C -1.286719 5.466411 7.291108 0
M  V30 40 C -1.829568 4.273826 7.752135 0
M  V30 41 C -1.782273 3.183724 6.898756 0
M  V30 42 C -1.224557 3.264550 5.643182 0
M  V30 43 O -1.131623 2.234435 4.714383 0
M  V30 44 C -1.683279 0.991934 5.065876 0
M  V30 45 C -3.009434 0.928934 4.632903 0
M  V30 46 C -3.741531 -0.232895 4.886449 0
M  V30 47 C -3.190507 -1.323041 5.554573 0
M  V30 48 C -1.892664 -1.171081 5.939661 0
M  V30 49 C -1.110501 -0.067368 5.728783 0
M  V30 50 C -2.068694 -2.466610 -1.319883 0
M  V30 51 O -3.134132 -2.683530 -0.643567 0
M  V30 52 N -1.411824 -3.660417 -1.720991 0
M  V30 53 C -1.950122 -4.958709 -1.360060 0 CFG=1
M  V30 54 C -2.059881 -5.915169 -2.507635 0
M  V30 55 O -0.809716 -6.154979 -3.061142 0
M  V30 56 C -1.012554 -5.499232 -0.309670 0
M  V30 57 O -1.444239 -6.643857 -0.002618 0
M  V30 58 N 0.125246 -4.936406 0.276699 0
M  V30 59 C 0.829162 -5.711948 1.270351 0 CFG=2
M  V30 60 C 0.953890 -5.016508 2.550932 0
M  V30 61 N 1.511986 -5.265042 3.820945 0
M  V30 62 O 0.321887 -4.026408 2.053920 0
M  V30 63 C 2.217273 -6.088637 0.765269 0 CFG=1
M  V30 64 C 2.939793 -6.978815 1.763757 0
M  V30 65 O 1.984638 -6.839166 -0.396465 0
M  V30 66 P 2.770321 -6.206758 -1.751586 0
M  V30 67 O 2.528603 -7.187935 -2.891368 0
M  V30 68 O 1.981401 -4.776577 -2.165043 0
M  V30 69 O 4.400677 -5.951155 -1.499616 0
M  V30 70 H 6.194266 2.191479 -5.653839 0
M  V30 71 H 7.348552 1.037310 -4.841793 0
M  V30 72 H 6.937620 0.811046 -6.559004 0
M  V30 73 H 7.303004 -1.376555 -4.274920 0
M  V30 74 H 6.880114 -0.205860 -2.992921 0
M  V30 75 H 6.556514 -2.176071 -1.662015 0
M  V30 76 H 6.527606 -3.183715 -3.134522 0
M  V30 77 H 4.242746 -1.700889 -1.769712 0
M  V30 78 H 4.282661 -3.340966 -2.626332 0
M  V30 79 H 3.897455 -2.343173 -4.661282 0
M  V30 80 H 1.378929 -1.486665 -3.839633 0
M  V30 81 H 1.968046 1.298670 -2.609760 0
M  V30 82 H 1.884687 1.730836 -4.863124 0
M  V30 83 H 0.282226 1.029686 -5.128273 0
M  V30 84 H 1.057377 3.571723 -3.583024 0
M  V30 85 H -1.579143 3.914054 -4.158398 0
M  V30 86 H -0.956440 3.596983 -2.545507 0
M  V30 87 H -1.590847 2.202218 -3.606996 0
M  V30 88 H -0.064698 3.067866 -6.355108 0
M  V30 89 H 1.334534 4.106519 -5.811075 0
M  V30 90 H -0.376071 4.574249 -5.445085 0
M  V30 91 H -0.483213 -1.388450 -2.922034 0
M  V30 92 H -1.627678 -0.601151 -0.444543 0
M  V30 93 H -2.784546 0.819142 -1.738976 0
M  V30 94 H -3.200178 -0.468446 -2.948441 0
M  V30 95 H -5.196497 -1.941767 -2.743026 0
M  V30 96 H -6.750320 -0.746098 0.919022 0
M  V30 97 H -4.757259 0.232511 2.034526 0
M  V30 98 H -3.169895 0.535021 1.171882 0
M  V30 99 H -4.141279 2.558840 1.934797 0
M  V30 100 H -5.696549 2.245513 1.168363 0
M  V30 101 H -2.963006 2.669658 -0.281817 0
M  V30 102 H -4.562751 2.464190 -1.065922 0
M  V30 103 H -4.113294 4.798253 -0.921657 0
M  V30 104 H -5.506639 4.326985 0.090663 0
M  V30 105 H -4.329255 4.500165 2.135151 0
M  V30 106 H -4.125985 5.991983 1.174869 0
M  V30 107 H -1.891859 5.397690 0.509777 0
M  V30 108 H -1.981454 3.748648 1.116675 0
M  V30 109 H 1.027495 4.697068 4.071029 0
M  V30 110 H -1.376778 6.250816 8.035176 0
M  V30 111 H -2.305619 3.994445 8.679828 0
M  V30 112 H -2.171323 2.182327 7.122067 0
M  V30 113 H -3.553012 1.722812 4.099621 0
M  V30 114 H -4.786222 -0.353098 4.579024 0
M  V30 115 H -3.754647 -2.204276 5.744311 0
M  V30 116 H -1.403833 -1.988638 6.472361 0
M  V30 117 H -0.095691 0.114342 6.002531 0
M  V30 118 H -0.554655 -3.428847 -2.265874 0
M  V30 119 H -2.918212 -4.847849 -0.827140 0
M  V30 120 H -2.745957 -5.476454 -3.247773 0
M  V30 121 H -2.533570 -6.837309 -2.119066 0
M  V30 122 H -0.812109 -7.104549 -3.381145 0
M  V30 123 H 0.333180 -3.989489 -0.088643 0
M  V30 124 H 0.316199 -6.684832 1.456529 0
M  V30 125 H 2.385327 -4.729596 3.600293 0
M  V30 126 H 2.366675 -4.714518 3.541548 0
M  V30 127 H 2.845699 -5.214451 0.613291 0
M  V30 128 H 3.627554 -6.370978 2.374425 0
M  V30 129 H 3.575132 -7.725007 1.240401 0
M  V30 130 H 2.244833 -7.492117 2.448742 0
M  V30 131 H 2.192106 -4.013356 -1.598489 0
M  V30 132 H 4.565956 -5.554803 -0.616011 0
M  V30 END ATOM
M  V30 BEGIN BOND
M  V30 1 1 1 2
M  V30 2 2 2 3
M  V30 3 1 2 4
M  V30 4 1 4 5
M  V30 5 1 5 6
M  V30 6 1 6 7
M  V30 7 1 7 8
M  V30 8 1 8 9
M  V30 9 2 9 10
M  V30 10 1 9 11
M  V30 11 1 11 12
M  V30 12 1 12 13
M  V30 13 1 13 14
M  V30 14 1 14 15
M  V30 15 1 14 16
M  V30 16 1 12 17
M  V30 17 2 17 18
M  V30 18 1 17 19
M  V30 19 1 19 20
M  V30 20 1 20 21
M  V30 21 1 21 22
M  V30 22 2 22 23
M  V30 23 1 23 24
M  V30 24 2 24 25
M  V30 25 1 25 26
M  V30 26 1 26 27
M  V30 27 1 27 28
M  V30 28 1 28 29
M  V30 29 1 29 30
M  V30 30 1 30 31
M  V30 31 1 31 32
M  V30 32 1 32 33
M  V30 33 1 33 34
M  V30 34 2 34 35
M  V30 35 1 35 36
M  V30 36 2 36 37
M  V30 37 1 37 38
M  V30 38 1 37 39
M  V30 39 2 39 40
M  V30 40 1 40 41
M  V30 41 2 41 42
M  V30 42 1 42 43
M  V30 43 1 43 44
M  V30 44 2 44 45
M  V30 45 1 45 46
M  V30 46 2 46 47
M  V30 47 1 47 48
M  V30 48 2 48 49
M  V30 49 1 20 50
M  V30 50 2 50 51
M  V30 51 1 50 52
M  V30 52 1 52 53
M  V30 53 1 53 54
M  V30 54 1 54 55
M  V30 55 1 53 56
M  V30 56 2 56 57
M  V30 57 1 56 58
M  V30 58 1 58 59
M  V30 59 1 59 60
M  V30 60 1 60 61
M  V30 61 2 60 62
M  V30 62 1 59 63
M  V30 63 1 63 64
M  V30 64 1 63 65
M  V30 65 1 65 66
M  V30 66 2 66 67
M  V30 67 1 66 68
M  V30 68 1 66 69
M  V30 69 1 8 4
M  V30 70 1 26 22
M  V30 71 1 42 36
M  V30 72 1 49 44
M  V30 73 1 1 70
M  V30 74 1 1 71
M  V30 75 1 1 72
M  V30 76 1 5 73
M  V30 77 1 5 74
M  V30 78 1 6 75
M  V30 79 1 6 76
M  V30 80 1 7 77
M  V30 81 1 7 78
M  V30 82 1 8 79 CFG=3
M  V30 83 1 11 80
M  V30 84 1 12 81 CFG=1
M  V30 85 1 13 82
M  V30 86 1 13 83
M  V30 87 1 14 84
M  V30 88 1 15 85
M  V30 89 1 15 86
M  V30 90 1 15 87
M  V30 91 1 16 88
M  V30 92 1 16 89
M  V30 93 1 16 90
M  V30 94 1 19 91
M  V30 95 1 20 92 CFG=1
M  V30 96 1 21 93
M  V30 97 1 21 94
M  V30 98 1 23 95
M  V30 99 1 25 96
M  V30 100 1 27 97
M  V30 101 1 27 98
M  V30 102 1 28 99
M  V30 103 1 28 100
M  V30 104 1 29 101
M  V30 105 1 29 102
M  V30 106 1 30 103
M  V30 107 1 30 104
M  V30 108 1 31 105
M  V30 109 1 31 106
M  V30 110 1 32 107
M  V30 111 1 32 108
M  V30 112 1 35 109
M  V30 113 1 39 110
M  V30 114 1 40 111
M  V30 115 1 41 112
M  V30 116 1 45 113
M  V30 117 1 46 114
M  V30 118 1 47 115
M  V30 119 1 48 116
M  V30 120 1 49 117
M  V30 121 1 52 118
M  V30 122 1 53 119 CFG=1
M  V30 123 1 54 120
M  V30 124 1 54 121
M  V30 125 1 55 122
M  V30 126 1 58 123
M  V30 127 1 59 124 CFG=1
M  V30 128 1 61 125
M  V30 129 1 61 126
M  V30 130 1 63 127 CFG=3
M  V30 131 1 64 128
M  V30 132 1 64 129
M  V30 133 1 64 130
M  V30 134 1 68 131
M  V30 135 1 69 132
M  V30 END BOND
M  V30 END CTAB
M  END
>  <Dataset>  (974) 
ChEMBL_Kinases

>  <Ligand_Instance>  (974) 
nan

>  <PDB_ID>  (974) 
nan

>  <Standardized_SMILES>  (974) 
CC(=O)N1CCC[C@H]1C(=O)N[C@@H](CC(C)C)C(=O)N[C@@H](Cc1cncn1CCCCCCO/N=C\c1c(F)cccc1Oc1ccccc1)C(=O)N[C@@H](CO)C(=O)N[C@H](C(N)=O)[C@@H](C)OP(=O)(O)O

>  <Name>  (974) 
nan

>  <Pocket>  (974) 
nan

>  <ATP_Site>  (974) 
nan

>  <Peripheral>  (974) 
nan

>  <Num_H_Atoms_ProtBoundConf>  (974) 
nan

>  <Num_Resolved_Atoms>  (974) 
nan

>  <Num_Not_Resolved_Atoms>  (974) 
nan

$$$$
CHEMBL388310
     RDKit          3D

  0  0  0  0  0  0  0  0  0  0999 V3000
M  V30 BEGIN CTAB
M  V30 COUNTS 71 75 0 0 0
M  V30 BEGIN ATOM
M  V30 1 C 1.536337 -0.345290 5.227605 0
M  V30 2 C 2.613553 -0.787971 4.321348 0
M  V30 3 N 3.425117 -1.824790 4.556538 0
M  V30 4 N 4.287581 -1.960503 3.546320 0
M  V30 5 C 4.049520 -1.005529 2.628506 0
M  V30 6 C 4.613097 -0.662412 1.405039 0
M  V30 7 C 4.095063 0.413781 0.714121 0
M  V30 8 C 3.035689 1.149426 1.212524 0
M  V30 9 C 2.627459 2.246011 0.344300 0
M  V30 10 C 3.529331 2.920320 -0.449666 0
M  V30 11 N 3.098565 3.924087 -1.233146 0
M  V30 12 C 1.773351 4.242790 -1.215029 0
M  V30 13 C 0.808928 3.589738 -0.425749 0
M  V30 14 O -0.391688 4.167688 -0.662607 0
M  V30 15 C -1.655444 3.935774 -0.182380 0
M  V30 16 C -2.264313 2.601311 -0.428780 0 CFG=1
M  V30 17 N -3.618857 2.512766 0.143226 0
M  V30 18 C -2.318510 2.210474 -1.871195 0
M  V30 19 C -2.954414 0.854843 -1.932621 0
M  V30 20 C -4.336877 0.765307 -2.061850 0
M  V30 21 C -4.975082 -0.458924 -2.122820 0
M  V30 22 C -4.242740 -1.630731 -2.055477 0
M  V30 23 C -2.862407 -1.541982 -1.926346 0
M  V30 24 O -2.064558 -2.668210 -1.852972 0
M  V30 25 C -2.581074 -3.985545 -1.902638 0
M  V30 26 C -1.567909 -5.048508 -1.810784 0
M  V30 27 C -0.704489 -5.142131 -0.612767 0
M  V30 28 C -1.402705 -5.341265 0.690231 0
M  V30 29 C -1.549586 -4.147314 1.563304 0
M  V30 30 N -0.691038 -3.041858 1.287519 0
M  V30 31 C 0.566300 -3.525318 0.822972 0
M  V30 32 C 0.358123 -4.080626 -0.563512 0
M  V30 33 C -2.216126 -0.323535 -1.864736 0
M  V30 34 C 1.287681 2.566084 0.364672 0
M  V30 35 C 2.462148 0.825714 2.424520 0
M  V30 36 C 2.987354 -0.251253 3.106656 0
M  V30 37 H 1.030024 0.566326 4.887772 0
M  V30 38 H 1.950146 -0.198396 6.261563 0
M  V30 39 H 0.783662 -1.173078 5.337386 0
M  V30 40 H 5.043788 -2.662604 3.420884 0
M  V30 41 H 5.434001 -1.275916 1.075647 0
M  V30 42 H 4.619363 0.577797 -0.221538 0
M  V30 43 H 4.575224 2.610685 -0.413599 0
M  V30 44 H 1.635660 5.081526 -1.919367 0
M  V30 45 H -2.342629 4.686965 -0.678614 0
M  V30 46 H -1.754674 4.200463 0.910156 0
M  V30 47 H -1.681280 1.828464 0.101172 0
M  V30 48 H -3.842093 1.513342 0.287895 0
M  V30 49 H -3.602989 2.983021 1.083369 0
M  V30 50 H -2.929058 2.904355 -2.490280 0
M  V30 51 H -1.290602 2.097640 -2.242798 0
M  V30 52 H -4.903632 1.689539 -2.113736 0
M  V30 53 H -6.070140 -0.486664 -2.225198 0
M  V30 54 H -4.736657 -2.595270 -2.102514 0
M  V30 55 H -3.371399 -4.008211 -1.130212 0
M  V30 56 H -3.140475 -4.025379 -2.866236 0
M  V30 57 H -2.081528 -6.015753 -2.067688 0
M  V30 58 H -0.884900 -4.913974 -2.703200 0
M  V30 59 H -0.105087 -6.097139 -0.787508 0
M  V30 60 H -2.365510 -5.863162 0.479804 0
M  V30 61 H -0.839955 -6.089576 1.295414 0
M  V30 62 H -2.605040 -3.744852 1.584783 0
M  V30 63 H -1.381303 -4.379500 2.658272 0
M  V30 64 H -1.042712 -2.316303 0.664149 0
M  V30 65 H 1.259904 -2.650282 0.714358 0
M  V30 66 H 1.059100 -4.246248 1.492210 0
M  V30 67 H 1.361733 -4.408201 -0.904881 0
M  V30 68 H 0.090777 -3.234788 -1.225698 0
M  V30 69 H -1.140275 -0.199502 -1.763673 0
M  V30 70 H 0.504223 2.128486 0.929881 0
M  V30 71 H 1.644230 1.434343 2.757297 0
M  V30 END ATOM
M  V30 BEGIN BOND
M  V30 1 1 1 2
M  V30 2 2 2 3
M  V30 3 1 3 4
M  V30 4 1 4 5
M  V30 5 2 5 6
M  V30 6 1 6 7
M  V30 7 2 7 8
M  V30 8 1 8 9
M  V30 9 2 9 10
M  V30 10 1 10 11
M  V30 11 2 11 12
M  V30 12 1 12 13
M  V30 13 1 13 14
M  V30 14 1 14 15
M  V30 15 1 15 16
M  V30 16 1 16 17
M  V30 17 1 16 18
M  V30 18 1 18 19
M  V30 19 2 19 20
M  V30 20 1 20 21
M  V30 21 2 21 22
M  V30 22 1 22 23
M  V30 23 1 23 24
M  V30 24 1 24 25
M  V30 25 1 25 26
M  V30 26 1 26 27
M  V30 27 1 27 28
M  V30 28 1 28 29
M  V30 29 1 29 30
M  V30 30 1 30 31
M  V30 31 1 31 32
M  V30 32 2 23 33
M  V30 33 2 13 34
M  V30 34 1 8 35
M  V30 35 2 35 36
M  V30 36 1 36 2
M  V30 37 1 36 5
M  V30 38 1 34 9
M  V30 39 1 33 19
M  V30 40 1 32 27
M  V30 41 1 1 37
M  V30 42 1 1 38
M  V30 43 1 1 39
M  V30 44 1 4 40
M  V30 45 1 6 41
M  V30 46 1 7 42
M  V30 47 1 10 43
M  V30 48 1 12 44
M  V30 49 1 15 45
M  V30 50 1 15 46
M  V30 51 1 16 47 CFG=1
M  V30 52 1 17 48
M  V30 53 1 17 49
M  V30 54 1 18 50
M  V30 55 1 18 51
M  V30 56 1 20 52
M  V30 57 1 21 53
M  V30 58 1 22 54
M  V30 59 1 25 55
M  V30 60 1 25 56
M  V30 61 1 26 57
M  V30 62 1 26 58
M  V30 63 1 27 59
M  V30 64 1 28 60
M  V30 65 1 28 61
M  V30 66 1 29 62
M  V30 67 1 29 63
M  V30 68 1 30 64
M  V30 69 1 31 65
M  V30 70 1 31 66
M  V30 71 1 32 67
M  V30 72 1 32 68
M  V30 73 1 33 69
M  V30 74 1 34 70
M  V30 75 1 35 71
M  V30 END BOND
M  V30 END CTAB
M  END
>  <Dataset>  (975) 
ChEMBL_Kinases

>  <Ligand_Instance>  (975) 
nan

>  <PDB_ID>  (975) 
nan

>  <Standardized_SMILES>  (975) 
Cc1n[nH]c2ccc(-c3cncc(OC[C@@H](N)Cc4cccc(OCCC5CCNCC5)c4)c3)cc12

>  <Name>  (975) 
nan

>  <Pocket>  (975) 
nan

>  <ATP_Site>  (975) 
nan

>  <Peripheral>  (975) 
nan

>  <Num_H_Atoms_ProtBoundConf>  (975) 
nan

>  <Num_Resolved_Atoms>  (975) 
nan

>  <Num_Not_Resolved_Atoms>  (975) 
nan

$$$$
CHEMBL388307
     RDKit          3D

  0  0  0  0  0  0  0  0  0  0999 V3000
M  V30 BEGIN CTAB
M  V30 COUNTS 37 40 0 0 0
M  V30 BEGIN ATOM
M  V30 1 O 0.651489 -4.054542 3.664533 0
M  V30 2 C 1.604372 -4.020671 2.811631 0
M  V30 3 N 2.666958 -4.999177 2.839367 0
M  V30 4 C 3.206627 -5.317515 1.512636 0
M  V30 5 C 3.820723 -4.062795 0.945498 0
M  V30 6 C 2.753679 -3.031437 0.869683 0
M  V30 7 N 2.528251 -1.976179 0.046891 0
M  V30 8 C 1.401660 -1.321276 0.385529 0
M  V30 9 C 0.866292 -0.138614 -0.293193 0
M  V30 10 C 1.548188 0.376515 -1.376381 0
M  V30 11 C 0.967019 1.504714 -1.963185 0
M  V30 12 N -0.189043 2.057711 -1.501017 0
M  V30 13 C -0.836333 1.536903 -0.442145 0
M  V30 14 C -2.068311 2.195823 -0.016670 0
M  V30 15 C -2.484930 3.302842 -0.724637 0
M  V30 16 C -3.663070 3.925438 -0.310495 0
M  V30 17 C -4.420907 3.489645 0.761595 0
M  V30 18 F -5.560764 4.121655 1.133729 0
M  V30 19 C -3.990544 2.365594 1.474140 0
M  V30 20 C -2.824908 1.765758 1.048832 0
M  V30 21 C -0.303757 0.434330 0.161792 0
M  V30 22 C 0.841601 -1.955581 1.478776 0
M  V30 23 C 1.690897 -2.994722 1.749044 0
M  V30 24 H 2.935473 -5.373511 3.798692 0
M  V30 25 H 2.433424 -5.719981 0.844847 0
M  V30 26 H 4.013933 -6.081913 1.621320 0
M  V30 27 H 4.327534 -4.222499 -0.004204 0
M  V30 28 H 4.551235 -3.714103 1.732297 0
M  V30 29 H 3.166170 -1.732196 -0.737282 0
M  V30 30 H 2.467049 -0.042075 -1.763897 0
M  V30 31 H 1.432853 1.982467 -2.824403 0
M  V30 32 H -1.950398 3.700533 -1.567825 0
M  V30 33 H -4.066722 4.807589 -0.812967 0
M  V30 34 H -4.545321 1.983047 2.320165 0
M  V30 35 H -2.517457 0.904941 1.613564 0
M  V30 36 H -0.794326 0.005043 0.997607 0
M  V30 37 H -0.060990 -1.658186 1.969103 0
M  V30 END ATOM
M  V30 BEGIN BOND
M  V30 1 2 1 2
M  V30 2 1 2 3
M  V30 3 1 3 4
M  V30 4 1 4 5
M  V30 5 1 5 6
M  V30 6 1 6 7
M  V30 7 1 7 8
M  V30 8 1 8 9
M  V30 9 2 9 10
M  V30 10 1 10 11
M  V30 11 2 11 12
M  V30 12 1 12 13
M  V30 13 1 13 14
M  V30 14 2 14 15
M  V30 15 1 15 16
M  V30 16 2 16 17
M  V30 17 1 17 18
M  V30 18 1 17 19
M  V30 19 2 19 20
M  V30 20 2 13 21
M  V30 21 2 8 22
M  V30 22 1 22 23
M  V30 23 1 23 2
M  V30 24 2 23 6
M  V30 25 1 21 9
M  V30 26 1 20 14
M  V30 27 1 3 24
M  V30 28 1 4 25
M  V30 29 1 4 26
M  V30 30 1 5 27
M  V30 31 1 5 28
M  V30 32 1 7 29
M  V30 33 1 10 30
M  V30 34 1 11 31
M  V30 35 1 15 32
M  V30 36 1 16 33
M  V30 37 1 19 34
M  V30 38 1 20 35
M  V30 39 1 21 36
M  V30 40 1 22 37
M  V30 END BOND
M  V30 END CTAB
M  END
>  <Dataset>  (976) 
ChEMBL_Kinases

>  <Ligand_Instance>  (976) 
nan

>  <PDB_ID>  (976) 
nan

>  <Standardized_SMILES>  (976) 
O=C1NCCc2[nH]c(-c3ccnc(-c4ccc(F)cc4)c3)cc21

>  <Name>  (976) 
nan

>  <Pocket>  (976) 
nan

>  <ATP_Site>  (976) 
nan

>  <Peripheral>  (976) 
nan

>  <Num_H_Atoms_ProtBoundConf>  (976) 
nan

>  <Num_Resolved_Atoms>  (976) 
nan

>  <Num_Not_Resolved_Atoms>  (976) 
nan

$$$$
CHEMBL388252
     RDKit          3D

  0  0  0  0  0  0  0  0  0  0999 V3000
M  V30 BEGIN CTAB
M  V30 COUNTS 44 48 0 0 0
M  V30 BEGIN ATOM
M  V30 1 O 3.265367 -0.780024 1.394170 0
M  V30 2 C 2.669692 0.245894 0.996628 0
M  V30 3 C 3.164092 0.944971 -0.183035 0
M  V30 4 C 4.110963 1.963223 -0.034400 0
M  V30 5 C 4.605384 2.653243 -1.146072 0
M  V30 6 C 4.158415 2.334454 -2.432166 0
M  V30 7 C 3.221356 1.323375 -2.553874 0
M  V30 8 N 2.634745 0.830309 -3.680735 0
M  V30 9 C 1.791632 -0.145590 -3.293029 0
M  V30 10 C 1.830111 -0.284441 -1.933205 0
M  V30 11 C 2.726380 0.635200 -1.460642 0
M  V30 12 N 1.558734 0.534916 1.836646 0
M  V30 13 C 1.396129 -0.412322 2.923028 0
M  V30 14 C 0.266101 -1.367116 2.547205 0
M  V30 15 C -0.870172 -0.490803 2.094450 0
M  V30 16 C -0.749552 0.861979 1.751229 0
M  V30 17 C -2.032864 1.286282 1.392898 0
M  V30 18 N -2.860190 0.209654 1.527290 0
M  V30 19 N -2.162746 -0.837664 1.943064 0
M  V30 20 C -2.736362 -2.122975 2.182077 0
M  V30 21 C -3.256826 -2.640074 3.351124 0
M  V30 22 C -3.764310 -3.923413 3.348120 0
M  V30 23 C -3.756484 -4.683918 2.203565 0
M  V30 24 C -3.243983 -4.185301 1.036894 0
M  V30 25 C -2.733347 -2.898113 1.033870 0
M  V30 26 Cl -2.104416 -2.379699 -0.534977 0
M  V30 27 C 0.559417 1.612094 1.796588 0
M  V30 28 H 4.453049 2.204339 0.971515 0
M  V30 29 H 5.347597 3.446874 -0.995513 0
M  V30 30 H 4.565909 2.892589 -3.269014 0
M  V30 31 H 2.812486 1.155011 -4.656041 0
M  V30 32 H 1.151503 -0.765221 -3.909884 0
M  V30 33 H 1.257122 -0.993016 -1.329120 0
M  V30 34 H 1.020891 0.135790 3.829014 0
M  V30 35 H 2.302516 -0.943626 3.208656 0
M  V30 36 H 0.565061 -2.081048 1.761815 0
M  V30 37 H -0.001141 -1.929931 3.460905 0
M  V30 38 H -2.289456 2.288553 1.072961 0
M  V30 39 H -3.207066 -1.951654 4.176646 0
M  V30 40 H -4.160671 -4.268985 4.309166 0
M  V30 41 H -4.188651 -5.687927 2.331356 0
M  V30 42 H -3.284840 -4.860685 0.197515 0
M  V30 43 H 0.674710 2.188467 2.736451 0
M  V30 44 H 0.691599 2.215508 0.874449 0
M  V30 END ATOM
M  V30 BEGIN BOND
M  V30 1 2 1 2
M  V30 2 1 2 3
M  V30 3 2 3 4
M  V30 4 1 4 5
M  V30 5 2 5 6
M  V30 6 1 6 7
M  V30 7 1 7 8
M  V30 8 1 8 9
M  V30 9 2 9 10
M  V30 10 1 10 11
M  V30 11 1 2 12
M  V30 12 1 12 13
M  V30 13 1 13 14
M  V30 14 1 14 15
M  V30 15 2 15 16
M  V30 16 1 16 17
M  V30 17 2 17 18
M  V30 18 1 18 19
M  V30 19 1 19 20
M  V30 20 2 20 21
M  V30 21 1 21 22
M  V30 22 2 22 23
M  V30 23 1 23 24
M  V30 24 2 24 25
M  V30 25 1 25 26
M  V30 26 1 16 27
M  V30 27 1 11 3
M  V30 28 1 27 12
M  V30 29 2 11 7
M  V30 30 1 19 15
M  V30 31 1 25 20
M  V30 32 1 4 28
M  V30 33 1 5 29
M  V30 34 1 6 30
M  V30 35 1 8 31
M  V30 36 1 9 32
M  V30 37 1 10 33
M  V30 38 1 13 34
M  V30 39 1 13 35
M  V30 40 1 14 36
M  V30 41 1 14 37
M  V30 42 1 17 38
M  V30 43 1 21 39
M  V30 44 1 22 40
M  V30 45 1 23 41
M  V30 46 1 24 42
M  V30 47 1 27 43
M  V30 48 1 27 44
M  V30 END BOND
M  V30 END CTAB
M  END
>  <Dataset>  (977) 
ChEMBL_Kinases

>  <Ligand_Instance>  (977) 
nan

>  <PDB_ID>  (977) 
nan

>  <Standardized_SMILES>  (977) 
O=C(c1cccc2[nH]ccc12)N1CCc2c(cnn2-c2ccccc2Cl)C1

>  <Name>  (977) 
nan

>  <Pocket>  (977) 
nan

>  <ATP_Site>  (977) 
nan

>  <Peripheral>  (977) 
nan

>  <Num_H_Atoms_ProtBoundConf>  (977) 
nan

>  <Num_Resolved_Atoms>  (977) 
nan

>  <Num_Not_Resolved_Atoms>  (977) 
nan

$$$$
CHEMBL3916430
     RDKit          3D

  0  0  0  0  0  0  0  0  0  0999 V3000
M  V30 BEGIN CTAB
M  V30 COUNTS 131 134 0 0 0
M  V30 BEGIN ATOM
M  V30 1 C 7.211135 -0.760345 -3.858534 0
M  V30 2 C 7.170454 0.085893 -2.641137 0
M  V30 3 O 7.598807 0.672506 -1.609627 0
M  V30 4 N 6.124287 0.802788 -2.023949 0
M  V30 5 C 6.495349 1.494754 -0.863584 0
M  V30 6 C 6.356391 0.718459 0.290528 0
M  V30 7 C 6.673085 1.220832 1.548744 0
M  V30 8 C 7.124801 2.503394 1.604966 0
M  V30 9 C 7.273528 3.292856 0.498795 0
M  V30 10 C 6.961407 2.804550 -0.762057 0
M  V30 11 C 4.769948 0.879853 -2.462841 0
M  V30 12 N 3.749373 1.389861 -2.171424 0
M  V30 13 C 2.592531 1.291844 -2.761990 0
M  V30 14 C 1.357271 1.944697 -2.363780 0
M  V30 15 N 0.301854 1.762092 -3.016414 0
M  V30 16 O -0.951900 2.321169 -2.751942 0
M  V30 17 C -1.892351 2.442064 -3.785817 0
M  V30 18 C -3.207146 3.045005 -3.421080 0
M  V30 19 C -3.979728 2.280739 -2.357881 0
M  V30 20 C -5.305570 2.875919 -2.087584 0
M  V30 21 C -6.155048 2.151622 -1.085828 0
M  V30 22 N -6.463809 0.797445 -1.390151 0
M  V30 23 C -7.322390 0.691801 -2.457102 0
M  V30 24 N -7.549979 -0.576095 -2.807664 0
M  V30 25 C -6.820310 -1.325945 -1.944625 0
M  V30 26 C -6.148522 -0.459791 -1.063868 0
M  V30 27 C -5.363503 -0.963682 0.004898 0
M  V30 28 C -3.931184 -1.254242 0.001707 0 CFG=2
M  V30 29 N -3.013034 -0.177734 -0.240535 0
M  V30 30 C -2.562906 0.588070 0.878856 0
M  V30 31 O -2.832100 0.499628 2.130202 0
M  V30 32 C -1.746379 1.695216 1.422866 0 CFG=2
M  V30 33 C -0.358673 1.585190 0.961087 0
M  V30 34 C 0.444044 0.394370 1.294831 0
M  V30 35 C -0.106733 -0.915763 0.780184 0
M  V30 36 C 0.810554 0.234240 2.736912 0
M  V30 37 N -1.942013 1.769435 2.845039 0
M  V30 38 C -2.477205 2.926642 3.468528 0
M  V30 39 O -2.774805 3.900708 2.691627 0
M  V30 40 C -2.780852 3.278163 4.870897 0 CFG=2
M  V30 41 C -1.792302 4.348564 5.251728 0
M  V30 42 C -1.496907 4.116360 6.686563 0
M  V30 43 C -1.591662 2.609252 6.826725 0
M  V30 44 N -2.592911 2.236016 5.806743 0
M  V30 45 C -3.193181 0.949214 5.918225 0
M  V30 46 C -4.214302 0.344909 5.050551 0
M  V30 47 O -2.864752 0.169348 6.848741 0
M  V30 48 C -3.524622 -2.498576 -0.705042 0
M  V30 49 O -4.306205 -3.483599 -0.446179 0
M  V30 50 N -2.430388 -2.674129 -1.574386 0
M  V30 51 C -2.064895 -3.903995 -2.240525 0 CFG=1
M  V30 52 C -2.345025 -3.681698 -3.728931 0
M  V30 53 O -3.721395 -3.397054 -3.855225 0
M  V30 54 C -0.622705 -4.200817 -2.091757 0
M  V30 55 O -0.079378 -3.291404 -1.420368 0
M  V30 56 N 0.145992 -5.288084 -2.572734 0
M  V30 57 C 1.547841 -5.373013 -2.308250 0 CFG=2
M  V30 58 C 2.395728 -5.365818 -3.516075 0
M  V30 59 N 3.808893 -5.448594 -3.258767 0
M  V30 60 O 1.634562 -5.285555 -4.507168 0
M  V30 61 C 1.955891 -6.539310 -1.441509 0 CFG=1
M  V30 62 C 1.495124 -7.861460 -1.961212 0
M  V30 63 O 3.355225 -6.447244 -1.306065 0
M  V30 64 P 3.840629 -6.221509 0.288410 0
M  V30 65 O 4.825790 -5.067511 0.408420 0
M  V30 66 O 4.584971 -7.585552 0.930778 0
M  V30 67 O 2.458736 -5.812716 1.196183 0
M  V30 68 C 2.601296 0.429589 -3.932941 0
M  V30 69 S 4.400997 -0.146026 -4.006011 0
M  V30 70 H 6.478984 -1.589008 -3.712216 0
M  V30 71 H 8.230321 -1.139382 -4.024461 0
M  V30 72 H 6.896663 -0.154828 -4.710721 0
M  V30 73 H 5.998621 -0.314554 0.301343 0
M  V30 74 H 6.564120 0.615649 2.438904 0
M  V30 75 H 7.395978 2.977488 2.539713 0
M  V30 76 H 7.624517 4.314686 0.465442 0
M  V30 77 H 7.011839 3.266952 -1.735038 0
M  V30 78 H 1.320304 2.593460 -1.507677 0
M  V30 79 H -2.018903 1.392310 -4.193907 0
M  V30 80 H -1.471334 3.060546 -4.624670 0
M  V30 81 H -2.962132 4.033198 -2.925006 0
M  V30 82 H -3.850750 3.231061 -4.278706 0
M  V30 83 H -4.071949 1.252569 -2.691136 0
M  V30 84 H -3.412099 2.349821 -1.377433 0
M  V30 85 H -5.945019 2.926081 -3.027410 0
M  V30 86 H -5.127218 3.926370 -1.730140 0
M  V30 87 H -5.710519 2.252486 -0.057336 0
M  V30 88 H -7.108675 2.757774 -0.990458 0
M  V30 89 H -7.880727 1.386318 -3.108856 0
M  V30 90 H -6.785414 -2.428598 -1.963022 0
M  V30 91 H -5.491504 -0.200151 0.881935 0
M  V30 92 H -5.958491 -1.825049 0.477755 0
M  V30 93 H -3.734493 -1.549593 1.097247 0
M  V30 94 H -2.462688 0.320197 -0.968142 0
M  V30 95 H -2.163764 2.637155 0.996573 0
M  V30 96 H 0.266744 2.493225 1.115225 0
M  V30 97 H -0.439337 1.561457 -0.172520 0
M  V30 98 H 1.421693 0.514029 0.733394 0
M  V30 99 H -0.283909 -0.772301 -0.308358 0
M  V30 100 H -0.943045 -1.307774 1.349844 0
M  V30 101 H 0.708650 -1.698148 0.834872 0
M  V30 102 H 0.145302 -0.425436 3.320106 0
M  V30 103 H 0.890508 1.199002 3.275871 0
M  V30 104 H 1.808383 -0.244731 2.788401 0
M  V30 105 H -1.735698 1.042191 3.591550 0
M  V30 106 H -3.805065 3.744346 4.921416 0
M  V30 107 H -0.828653 4.205597 4.687177 0
M  V30 108 H -2.192360 5.360709 5.031174 0
M  V30 109 H -2.218592 4.624170 7.333604 0
M  V30 110 H -0.442231 4.388243 6.966104 0
M  V30 111 H -0.644598 2.092080 6.701916 0
M  V30 112 H -2.060431 2.415499 7.813379 0
M  V30 113 H -3.789362 -0.555697 4.562401 0
M  V30 114 H -5.099281 0.058391 5.657968 0
M  V30 115 H -4.481581 1.064578 4.248481 0
M  V30 116 H -1.848438 -1.836935 -1.743227 0
M  V30 117 H -2.730142 -4.737643 -1.948572 0
M  V30 118 H -1.767700 -2.833955 -4.133366 0
M  V30 119 H -2.196758 -4.621914 -4.299774 0
M  V30 120 H -3.870011 -2.484007 -4.224625 0
M  V30 121 H -0.434913 -5.972318 -3.115129 0
M  V30 122 H 1.797803 -4.458485 -1.692722 0
M  V30 123 H 4.054593 -6.418834 -3.586620 0
M  V30 124 H 4.266218 -4.594298 -2.832861 0
M  V30 125 H 1.579106 -6.432645 -0.396556 0
M  V30 126 H 2.344785 -8.563602 -2.053930 0
M  V30 127 H 0.761580 -8.338087 -1.260783 0
M  V30 128 H 0.934459 -7.697205 -2.905169 0
M  V30 129 H 5.230539 -7.306482 1.598372 0
M  V30 130 H 2.389024 -4.832460 1.316013 0
M  V30 131 H 1.648722 0.169807 -4.663660 0
M  V30 END ATOM
M  V30 BEGIN BOND
M  V30 1 1 1 2
M  V30 2 2 2 3
M  V30 3 1 2 4
M  V30 4 1 4 5
M  V30 5 2 5 6
M  V30 6 1 6 7
M  V30 7 2 7 8
M  V30 8 1 8 9
M  V30 9 2 9 10
M  V30 10 1 4 11
M  V30 11 2 11 12
M  V30 12 1 12 13
M  V30 13 1 13 14
M  V30 14 2 14 15
M  V30 15 1 15 16
M  V30 16 1 16 17
M  V30 17 1 17 18
M  V30 18 1 18 19
M  V30 19 1 19 20
M  V30 20 1 20 21
M  V30 21 1 21 22
M  V30 22 1 22 23
M  V30 23 2 23 24
M  V30 24 1 24 25
M  V30 25 2 25 26
M  V30 26 1 26 27
M  V30 27 1 27 28
M  V30 28 1 28 29
M  V30 29 1 29 30
M  V30 30 2 30 31
M  V30 31 1 30 32
M  V30 32 1 32 33
M  V30 33 1 33 34
M  V30 34 1 34 35
M  V30 35 1 34 36
M  V30 36 1 32 37
M  V30 37 1 37 38
M  V30 38 2 38 39
M  V30 39 1 38 40
M  V30 40 1 40 41
M  V30 41 1 41 42
M  V30 42 1 42 43
M  V30 43 1 43 44
M  V30 44 1 44 45
M  V30 45 1 45 46
M  V30 46 2 45 47
M  V30 47 1 28 48
M  V30 48 2 48 49
M  V30 49 1 48 50
M  V30 50 1 50 51
M  V30 51 1 51 52
M  V30 52 1 52 53
M  V30 53 1 51 54
M  V30 54 2 54 55
M  V30 55 1 54 56
M  V30 56 1 56 57
M  V30 57 1 57 58
M  V30 58 1 58 59
M  V30 59 2 58 60
M  V30 60 1 57 61
M  V30 61 1 61 62
M  V30 62 1 61 63
M  V30 63 1 63 64
M  V30 64 2 64 65
M  V30 65 1 64 66
M  V30 66 1 64 67
M  V30 67 2 13 68
M  V30 68 1 68 69
M  V30 69 1 10 5
M  V30 70 1 69 11
M  V30 71 1 26 22
M  V30 72 1 44 40
M  V30 73 1 1 70
M  V30 74 1 1 71
M  V30 75 1 1 72
M  V30 76 1 6 73
M  V30 77 1 7 74
M  V30 78 1 8 75
M  V30 79 1 9 76
M  V30 80 1 10 77
M  V30 81 1 14 78
M  V30 82 1 17 79
M  V30 83 1 17 80
M  V30 84 1 18 81
M  V30 85 1 18 82
M  V30 86 1 19 83
M  V30 87 1 19 84
M  V30 88 1 20 85
M  V30 89 1 20 86
M  V30 90 1 21 87
M  V30 91 1 21 88
M  V30 92 1 23 89
M  V30 93 1 25 90
M  V30 94 1 27 91
M  V30 95 1 27 92
M  V30 96 1 28 93 CFG=1
M  V30 97 1 29 94
M  V30 98 1 32 95 CFG=3
M  V30 99 1 33 96
M  V30 100 1 33 97
M  V30 101 1 34 98
M  V30 102 1 35 99
M  V30 103 1 35 100
M  V30 104 1 35 101
M  V30 105 1 36 102
M  V30 106 1 36 103
M  V30 107 1 36 104
M  V30 108 1 37 105
M  V30 109 1 40 106 CFG=3
M  V30 110 1 41 107
M  V30 111 1 41 108
M  V30 112 1 42 109
M  V30 113 1 42 110
M  V30 114 1 43 111
M  V30 115 1 43 112
M  V30 116 1 46 113
M  V30 117 1 46 114
M  V30 118 1 46 115
M  V30 119 1 50 116
M  V30 120 1 51 117 CFG=1
M  V30 121 1 52 118
M  V30 122 1 52 119
M  V30 123 1 53 120
M  V30 124 1 56 121
M  V30 125 1 57 122 CFG=1
M  V30 126 1 59 123
M  V30 127 1 59 124
M  V30 128 1 61 125 CFG=1
M  V30 129 1 62 126
M  V30 130 1 62 127
M  V30 131 1 62 128
M  V30 132 1 66 129
M  V30 133 1 67 130
M  V30 134 1 68 131
M  V30 END BOND
M  V30 END CTAB
M  END
>  <Dataset>  (978) 
ChEMBL_Kinases

>  <Ligand_Instance>  (978) 
nan

>  <PDB_ID>  (978) 
nan

>  <Standardized_SMILES>  (978) 
CC(=O)N(c1ccccc1)c1nc(/C=N/OCCCCCn2cncc2C[C@H](NC(=O)[C@H](CC(C)C)NC(=O)[C@@H]2CCCN2C(C)=O)C(=O)N[C@@H](CO)C(=O)N[C@H](C(N)=O)[C@@H](C)OP(=O)(O)O)cs1

>  <Name>  (978) 
nan

>  <Pocket>  (978) 
nan

>  <ATP_Site>  (978) 
nan

>  <Peripheral>  (978) 
nan

>  <Num_H_Atoms_ProtBoundConf>  (978) 
nan

>  <Num_Resolved_Atoms>  (978) 
nan

>  <Num_Not_Resolved_Atoms>  (978) 
nan

$$$$
CHEMBL388251
     RDKit          3D

  0  0  0  0  0  0  0  0  0  0999 V3000
M  V30 BEGIN CTAB
M  V30 COUNTS 44 48 0 0 0
M  V30 BEGIN ATOM
M  V30 1 O 3.383080 -0.164268 1.831470 0
M  V30 2 C 2.656955 0.683723 1.220719 0
M  V30 3 C 3.090333 1.316928 -0.018394 0
M  V30 4 C 3.811682 2.513354 -0.080809 0
M  V30 5 N 4.021833 2.769170 -1.400622 0
M  V30 6 C 3.480105 1.812039 -2.176549 0
M  V30 7 C 3.424169 1.622096 -3.535563 0
M  V30 8 C 2.776003 0.508043 -4.027057 0
M  V30 9 C 2.179414 -0.425781 -3.193969 0
M  V30 10 C 2.225964 -0.251031 -1.828890 0
M  V30 11 C 2.880197 0.873684 -1.329530 0
M  V30 12 N 1.447035 0.869226 1.930767 0
M  V30 13 C 1.330194 0.076417 3.140465 0
M  V30 14 C 0.365804 -1.050515 2.823237 0
M  V30 15 C -0.824153 -0.460430 2.124887 0
M  V30 16 C -0.907071 0.816133 1.568593 0
M  V30 17 C -2.191359 0.931888 1.028994 0
M  V30 18 N -2.805154 -0.240815 1.275689 0
M  V30 19 N -2.006706 -1.071687 1.922987 0
M  V30 20 C -2.519914 -2.359436 2.255491 0
M  V30 21 C -2.804548 -2.847540 3.513481 0
M  V30 22 C -3.303765 -4.142310 3.636856 0
M  V30 23 C -3.517707 -4.941140 2.531375 0
M  V30 24 C -3.230085 -4.442905 1.283953 0
M  V30 25 C -2.730486 -3.154952 1.123431 0
M  V30 26 Cl -2.401252 -2.630337 -0.521476 0
M  V30 27 C 0.287521 1.729098 1.651140 0
M  V30 28 H 4.167168 3.161562 0.710956 0
M  V30 29 H 4.538574 3.600103 -1.812114 0
M  V30 30 H 3.881354 2.333847 -4.228196 0
M  V30 31 H 2.693673 0.295577 -5.085362 0
M  V30 32 H 1.659353 -1.314915 -3.521865 0
M  V30 33 H 1.767065 -0.964987 -1.127047 0
M  V30 34 H 0.798876 0.684793 3.925277 0
M  V30 35 H 2.275178 -0.306067 3.526706 0
M  V30 36 H 0.780641 -1.808874 2.136845 0
M  V30 37 H 0.099862 -1.536225 3.765198 0
M  V30 38 H -2.468609 1.841848 0.548883 0
M  V30 39 H -2.606888 -2.159696 4.296531 0
M  V30 40 H -3.507680 -4.467413 4.654810 0
M  V30 41 H -3.903293 -5.929872 2.680487 0
M  V30 42 H -3.421741 -5.124892 0.453328 0
M  V30 43 H 0.396547 2.272256 0.689351 0
M  V30 44 H 0.129713 2.413483 2.513123 0
M  V30 END ATOM
M  V30 BEGIN BOND
M  V30 1 2 1 2
M  V30 2 1 2 3
M  V30 3 2 3 4
M  V30 4 1 4 5
M  V30 5 1 5 6
M  V30 6 2 6 7
M  V30 7 1 7 8
M  V30 8 2 8 9
M  V30 9 1 9 10
M  V30 10 2 10 11
M  V30 11 1 2 12
M  V30 12 1 12 13
M  V30 13 1 13 14
M  V30 14 1 14 15
M  V30 15 2 15 16
M  V30 16 1 16 17
M  V30 17 2 17 18
M  V30 18 1 18 19
M  V30 19 1 19 20
M  V30 20 2 20 21
M  V30 21 1 21 22
M  V30 22 2 22 23
M  V30 23 1 23 24
M  V30 24 2 24 25
M  V30 25 1 25 26
M  V30 26 1 16 27
M  V30 27 1 11 3
M  V30 28 1 27 12
M  V30 29 1 11 6
M  V30 30 1 19 15
M  V30 31 1 25 20
M  V30 32 1 4 28
M  V30 33 1 5 29
M  V30 34 1 7 30
M  V30 35 1 8 31
M  V30 36 1 9 32
M  V30 37 1 10 33
M  V30 38 1 13 34
M  V30 39 1 13 35
M  V30 40 1 14 36
M  V30 41 1 14 37
M  V30 42 1 17 38
M  V30 43 1 21 39
M  V30 44 1 22 40
M  V30 45 1 23 41
M  V30 46 1 24 42
M  V30 47 1 27 43
M  V30 48 1 27 44
M  V30 END BOND
M  V30 END CTAB
M  END
>  <Dataset>  (979) 
ChEMBL_Kinases

>  <Ligand_Instance>  (979) 
nan

>  <PDB_ID>  (979) 
nan

>  <Standardized_SMILES>  (979) 
O=C(c1c[nH]c2ccccc12)N1CCc2c(cnn2-c2ccccc2Cl)C1

>  <Name>  (979) 
nan

>  <Pocket>  (979) 
nan

>  <ATP_Site>  (979) 
nan

>  <Peripheral>  (979) 
nan

>  <Num_H_Atoms_ProtBoundConf>  (979) 
nan

>  <Num_Resolved_Atoms>  (979) 
nan

>  <Num_Not_Resolved_Atoms>  (979) 
nan

$$$$
CHEMBL388230
     RDKit          3D

  0  0  0  0  0  0  0  0  0  0999 V3000
M  V30 BEGIN CTAB
M  V30 COUNTS 47 51 0 0 0
M  V30 BEGIN ATOM
M  V30 1 C 0.346233 -1.648223 -2.118927 0
M  V30 2 O 0.556488 -0.395875 -1.512040 0
M  V30 3 C 1.793559 0.110049 -1.156107 0
M  V30 4 N 2.854480 -0.693503 -1.430541 0
M  V30 5 C 4.117065 -0.331647 -1.139645 0
M  V30 6 N 5.308862 -0.931106 -1.305888 0
M  V30 7 C 6.241133 -0.093569 -0.823910 0
M  V30 8 C 5.677911 1.067875 -0.333970 0
M  V30 9 C 4.327895 0.892288 -0.546015 0
M  V30 10 C 3.286498 1.754695 -0.242132 0
M  V30 11 C 2.004506 1.352151 -0.553955 0
M  V30 12 C 0.767819 2.075836 -0.333817 0
M  V30 13 O 0.175288 2.880451 -1.086137 0
M  V30 14 N 0.146924 1.826028 0.925389 0
M  V30 15 C 0.602527 0.951064 1.984028 0
M  V30 16 C -0.315966 -0.240905 2.143430 0
M  V30 17 N -1.695430 0.048277 1.956118 0
M  V30 18 C -2.016789 1.297558 1.598302 0
M  V30 19 C -3.385171 1.350391 1.481473 0
M  V30 20 N -3.856916 0.136776 1.769890 0
M  V30 21 C -2.808884 -0.654300 2.059613 0
M  V30 22 C -3.024479 -2.046398 2.415366 0
M  V30 23 C -2.063114 -2.984972 2.705017 0
M  V30 24 C -2.259140 -4.301478 3.046952 0
M  V30 25 C -3.556024 -4.761693 3.115154 0
M  V30 26 F -3.885367 -6.030873 3.438952 0
M  V30 27 C -4.588232 -3.893296 2.841054 0
M  V30 28 C -4.306211 -2.589361 2.506112 0
M  V30 29 F -5.389353 -1.791190 2.248562 0
M  V30 30 C -1.115391 2.457295 1.351299 0
M  V30 31 H -0.658471 -2.018503 -1.779637 0
M  V30 32 H 0.291006 -1.606214 -3.218328 0
M  V30 33 H 1.082842 -2.420470 -1.802308 0
M  V30 34 H 5.401018 -1.873911 -1.738694 0
M  V30 35 H 7.309343 -0.332986 -0.833370 0
M  V30 36 H 6.157100 1.916298 0.109551 0
M  V30 37 H 3.359408 2.724006 0.218958 0
M  V30 38 H 1.655578 0.611348 1.803596 0
M  V30 39 H 0.668411 1.555073 2.911593 0
M  V30 40 H 0.088991 -1.014812 1.461117 0
M  V30 41 H -0.121143 -0.616810 3.188748 0
M  V30 42 H -4.057379 2.178383 1.210068 0
M  V30 43 H -1.031448 -2.702179 2.669393 0
M  V30 44 H -1.464491 -4.979454 3.260471 0
M  V30 45 H -5.610327 -4.237085 2.889827 0
M  V30 46 H -0.988785 3.004583 2.284383 0
M  V30 47 H -1.432285 3.056117 0.482602 0
M  V30 END ATOM
M  V30 BEGIN BOND
M  V30 1 1 1 2
M  V30 2 1 2 3
M  V30 3 2 3 4
M  V30 4 1 4 5
M  V30 5 1 5 6
M  V30 6 1 6 7
M  V30 7 2 7 8
M  V30 8 1 8 9
M  V30 9 1 9 10
M  V30 10 2 10 11
M  V30 11 1 11 12
M  V30 12 2 12 13
M  V30 13 1 12 14
M  V30 14 1 14 15
M  V30 15 1 15 16
M  V30 16 1 16 17
M  V30 17 1 17 18
M  V30 18 2 18 19
M  V30 19 1 19 20
M  V30 20 2 20 21
M  V30 21 1 21 22
M  V30 22 2 22 23
M  V30 23 1 23 24
M  V30 24 2 24 25
M  V30 25 1 25 26
M  V30 26 1 25 27
M  V30 27 2 27 28
M  V30 28 1 28 29
M  V30 29 1 18 30
M  V30 30 1 11 3
M  V30 31 1 30 14
M  V30 32 2 9 5
M  V30 33 1 21 17
M  V30 34 1 28 22
M  V30 35 1 1 31
M  V30 36 1 1 32
M  V30 37 1 1 33
M  V30 38 1 6 34
M  V30 39 1 7 35
M  V30 40 1 8 36
M  V30 41 1 10 37
M  V30 42 1 15 38
M  V30 43 1 15 39
M  V30 44 1 16 40
M  V30 45 1 16 41
M  V30 46 1 19 42
M  V30 47 1 23 43
M  V30 48 1 24 44
M  V30 49 1 27 45
M  V30 50 1 30 46
M  V30 51 1 30 47
M  V30 END BOND
M  V30 END CTAB
M  END
>  <Dataset>  (980) 
ChEMBL_Kinases

>  <Ligand_Instance>  (980) 
nan

>  <PDB_ID>  (980) 
nan

>  <Standardized_SMILES>  (980) 
COc1nc2[nH]ccc2cc1C(=O)N1CCn2c(cnc2-c2ccc(F)cc2F)C1

>  <Name>  (980) 
nan

>  <Pocket>  (980) 
nan

>  <ATP_Site>  (980) 
nan

>  <Peripheral>  (980) 
nan

>  <Num_H_Atoms_ProtBoundConf>  (980) 
nan

>  <Num_Resolved_Atoms>  (980) 
nan

>  <Num_Not_Resolved_Atoms>  (980) 
nan

$$$$
CHEMBL391655
     RDKit          3D

  0  0  0  0  0  0  0  0  0  0999 V3000
M  V30 BEGIN CTAB
M  V30 COUNTS 58 62 0 0 0
M  V30 BEGIN ATOM
M  V30 1 C -3.425375 1.020156 3.077465 0
M  V30 2 S -4.238680 2.280630 2.107199 0
M  V30 3 O -3.517849 3.561664 2.404881 0
M  V30 4 O -5.666339 2.435564 2.439675 0
M  V30 5 C -3.976370 1.951641 0.385036 0
M  V30 6 C -2.859667 2.442007 -0.221456 0
M  V30 7 C -2.645691 2.161321 -1.568425 0
M  V30 8 C -3.567306 1.386490 -2.287001 0
M  V30 9 C -3.098492 1.119224 -3.701055 0
M  V30 10 N -2.574192 -0.261812 -3.739126 0
M  V30 11 C -3.480838 -1.385671 -3.988882 0
M  V30 12 C -2.612410 -2.634924 -4.199927 0
M  V30 13 C -1.348643 -2.268171 -4.999953 0
M  V30 14 C -0.469495 -1.539555 -4.047448 0
M  V30 15 C -1.252631 -0.543603 -3.490997 0
M  V30 16 S -0.139276 0.243014 -2.363600 0
M  V30 17 C 1.286996 -0.753905 -2.663714 0
M  V30 18 N 2.550742 -0.702165 -2.016756 0
M  V30 19 C 2.612582 0.015670 -0.837523 0
M  V30 20 O 1.482292 0.552393 -0.483627 0
M  V30 21 C 3.395213 0.490874 0.284699 0
M  V30 22 C 4.352532 1.478517 0.244016 0
M  V30 23 C 5.029865 1.842361 1.391237 0
M  V30 24 C 4.694847 1.173115 2.545247 0
M  V30 25 C 3.776285 0.188049 2.713472 0
M  V30 26 C 3.474910 -0.448295 3.890649 0
M  V30 27 C 2.508056 -1.440836 3.939806 0
M  V30 28 C 1.837843 -1.791005 2.771670 0
M  V30 29 C 2.150594 -1.140694 1.584863 0
M  V30 30 C 3.129982 -0.131203 1.520475 0
M  V30 31 C 0.833441 -1.667541 -3.642467 0
M  V30 32 C 1.708127 -2.675030 -4.157475 0
M  V30 33 N 2.445452 -3.496868 -4.572473 0
M  V30 34 C -4.692805 0.894538 -1.683241 0
M  V30 35 C -4.877746 1.187257 -0.352395 0
M  V30 36 H -2.361942 1.324869 3.286343 0
M  V30 37 H -3.428474 0.052201 2.583427 0
M  V30 38 H -3.905579 0.950048 4.070464 0
M  V30 39 H -2.177161 3.040189 0.396445 0
M  V30 40 H -1.733585 2.630329 -1.918816 0
M  V30 41 H -3.945113 1.155710 -4.406863 0
M  V30 42 H -2.356363 1.843905 -4.047035 0
M  V30 43 H -4.091448 -1.589689 -3.075772 0
M  V30 44 H -4.094602 -1.256501 -4.887712 0
M  V30 45 H -3.167147 -3.465926 -4.630079 0
M  V30 46 H -2.231587 -2.884667 -3.166570 0
M  V30 47 H -0.897655 -3.221457 -5.359037 0
M  V30 48 H -1.598423 -1.642136 -5.894945 0
M  V30 49 H 3.503114 -1.029626 -2.131648 0
M  V30 50 H 4.520435 1.923575 -0.721495 0
M  V30 51 H 5.780411 2.620395 1.362633 0
M  V30 52 H 5.251004 1.490189 3.436153 0
M  V30 53 H 3.999756 -0.165876 4.784016 0
M  V30 54 H 2.249938 -1.952970 4.848493 0
M  V30 55 H 1.076622 -2.567427 2.782940 0
M  V30 56 H 1.604143 -1.456849 0.718057 0
M  V30 57 H -5.350217 0.314310 -2.301513 0
M  V30 58 H -5.759285 0.799378 0.149414 0
M  V30 END ATOM
M  V30 BEGIN BOND
M  V30 1 1 1 2
M  V30 2 2 2 3
M  V30 3 2 2 4
M  V30 4 1 2 5
M  V30 5 2 5 6
M  V30 6 1 6 7
M  V30 7 2 7 8
M  V30 8 1 8 9
M  V30 9 1 9 10
M  V30 10 1 10 11
M  V30 11 1 11 12
M  V30 12 1 12 13
M  V30 13 1 13 14
M  V30 14 2 14 15
M  V30 15 1 15 16
M  V30 16 1 16 17
M  V30 17 1 17 18
M  V30 18 1 18 19
M  V30 19 2 19 20
M  V30 20 1 19 21
M  V30 21 2 21 22
M  V30 22 1 22 23
M  V30 23 2 23 24
M  V30 24 1 24 25
M  V30 25 2 25 26
M  V30 26 1 26 27
M  V30 27 2 27 28
M  V30 28 1 28 29
M  V30 29 2 29 30
M  V30 30 2 17 31
M  V30 31 1 31 32
M  V30 32 3 32 33
M  V30 33 1 8 34
M  V30 34 2 34 35
M  V30 35 1 35 5
M  V30 36 1 15 10
M  V30 37 1 30 21
M  V30 38 1 31 14
M  V30 39 1 30 25
M  V30 40 1 1 36
M  V30 41 1 1 37
M  V30 42 1 1 38
M  V30 43 1 6 39
M  V30 44 1 7 40
M  V30 45 1 9 41
M  V30 46 1 9 42
M  V30 47 1 11 43
M  V30 48 1 11 44
M  V30 49 1 12 45
M  V30 50 1 12 46
M  V30 51 1 13 47
M  V30 52 1 13 48
M  V30 53 1 18 49
M  V30 54 1 22 50
M  V30 55 1 23 51
M  V30 56 1 24 52
M  V30 57 1 26 53
M  V30 58 1 27 54
M  V30 59 1 28 55
M  V30 60 1 29 56
M  V30 61 1 34 57
M  V30 62 1 35 58
M  V30 END BOND
M  V30 END CTAB
M  END
>  <Dataset>  (981) 
ChEMBL_Kinases

>  <Ligand_Instance>  (981) 
nan

>  <PDB_ID>  (981) 
nan

>  <Standardized_SMILES>  (981) 
CS(=O)(=O)c1ccc(CN2CCCc3c2sc(NC(=O)c2cccc4ccccc24)c3C#N)cc1

>  <Name>  (981) 
nan

>  <Pocket>  (981) 
nan

>  <ATP_Site>  (981) 
nan

>  <Peripheral>  (981) 
nan

>  <Num_H_Atoms_ProtBoundConf>  (981) 
nan

>  <Num_Resolved_Atoms>  (981) 
nan

>  <Num_Not_Resolved_Atoms>  (981) 
nan

$$$$
CHEMBL610195
     RDKit          3D

  0  0  0  0  0  0  0  0  0  0999 V3000
M  V30 BEGIN CTAB
M  V30 COUNTS 37 40 0 0 0
M  V30 BEGIN ATOM
M  V30 1 C 2.048997 -3.282698 1.588582 0
M  V30 2 N 0.817989 -2.612042 1.976058 0
M  V30 3 C 0.430790 -1.451976 1.408684 0
M  V30 4 C 1.039132 -0.615906 0.369160 0
M  V30 5 C 2.274852 0.005367 0.436438 0
M  V30 6 C 2.702211 0.765919 -0.644391 0
M  V30 7 C 1.889645 0.880122 -1.746299 0
M  V30 8 N 2.306553 1.621579 -2.799902 0
M  V30 9 C 1.527941 1.754568 -3.903693 0
M  V30 10 C 0.281765 1.140538 -3.996978 0
M  V30 11 N -0.117850 0.403578 -2.933958 0
M  V30 12 C 0.654772 0.269798 -1.834937 0
M  V30 13 C 0.219287 -0.494336 -0.755544 0
M  V30 14 C -0.779828 -1.096483 2.010509 0
M  V30 15 C -1.599398 0.095719 1.726830 0
M  V30 16 C -1.102613 1.361639 1.956557 0
M  V30 17 C -2.094831 2.274532 1.597653 0
M  V30 18 C -3.139265 1.474011 1.168750 0
M  V30 19 O -2.816727 0.188972 1.256710 0
M  V30 20 C -1.088097 -2.074969 2.940040 0
M  V30 21 O -2.113153 -2.115172 3.697389 0
M  V30 22 N -0.074468 -2.983039 2.879416 0
M  V30 23 C 0.029040 -4.186377 3.679649 0
M  V30 24 H 2.866452 -3.090965 2.328192 0
M  V30 25 H 1.875951 -4.384983 1.605104 0
M  V30 26 H 2.331681 -3.039004 0.560916 0
M  V30 27 H 2.821744 -0.156243 1.349612 0
M  V30 28 H 3.678787 1.242396 -0.561510 0
M  V30 29 H 1.924767 2.368314 -4.720311 0
M  V30 30 H -0.324609 1.256683 -4.882040 0
M  V30 31 H -0.747547 -0.950148 -0.869432 0
M  V30 32 H -0.144063 1.669840 2.337847 0
M  V30 33 H -2.057179 3.349816 1.643500 0
M  V30 34 H -4.062334 1.927591 0.823404 0
M  V30 35 H 0.919702 -4.113531 4.342305 0
M  V30 36 H 0.074349 -5.102475 3.043345 0
M  V30 37 H -0.856796 -4.257057 4.365316 0
M  V30 END ATOM
M  V30 BEGIN BOND
M  V30 1 1 1 2
M  V30 2 1 2 3
M  V30 3 1 3 4
M  V30 4 2 4 5
M  V30 5 1 5 6
M  V30 6 2 6 7
M  V30 7 1 7 8
M  V30 8 2 8 9
M  V30 9 1 9 10
M  V30 10 2 10 11
M  V30 11 1 11 12
M  V30 12 2 12 13
M  V30 13 2 3 14
M  V30 14 1 14 15
M  V30 15 2 15 16
M  V30 16 1 16 17
M  V30 17 2 17 18
M  V30 18 1 18 19
M  V30 19 1 14 20
M  V30 20 2 20 21
M  V30 21 1 20 22
M  V30 22 1 22 23
M  V30 23 1 22 2
M  V30 24 1 13 4
M  V30 25 1 19 15
M  V30 26 1 12 7
M  V30 27 1 1 24
M  V30 28 1 1 25
M  V30 29 1 1 26
M  V30 30 1 5 27
M  V30 31 1 6 28
M  V30 32 1 9 29
M  V30 33 1 10 30
M  V30 34 1 13 31
M  V30 35 1 16 32
M  V30 36 1 17 33
M  V30 37 1 18 34
M  V30 38 1 23 35
M  V30 39 1 23 36
M  V30 40 1 23 37
M  V30 END BOND
M  V30 END CTAB
M  END
>  <Dataset>  (982) 
ChEMBL_Kinases

>  <Ligand_Instance>  (982) 
nan

>  <PDB_ID>  (982) 
nan

>  <Standardized_SMILES>  (982) 
Cn1c(-c2ccc3nccnc3c2)c(-c2ccco2)c(=O)n1C

>  <Name>  (982) 
nan

>  <Pocket>  (982) 
nan

>  <ATP_Site>  (982) 
nan

>  <Peripheral>  (982) 
nan

>  <Num_H_Atoms_ProtBoundConf>  (982) 
nan

>  <Num_Resolved_Atoms>  (982) 
nan

>  <Num_Not_Resolved_Atoms>  (982) 
nan

$$$$
CHEMBL492258
     RDKit          3D

  0  0  0  0  0  0  0  0  0  0999 V3000
M  V30 BEGIN CTAB
M  V30 COUNTS 51 56 0 0 0
M  V30 BEGIN ATOM
M  V30 1 C 7.171100 -1.105846 0.133448 0
M  V30 2 C 5.943571 -1.985907 -0.061495 0
M  V30 3 C 6.453752 -3.198199 -0.861391 0
M  V30 4 O 4.914546 -1.334810 -0.711317 0
M  V30 5 C 3.634016 -1.199770 -0.233092 0
M  V30 6 C 3.150514 -1.681707 0.963186 0
M  V30 7 C 1.831024 -1.430739 1.242685 0
M  V30 8 C 0.904970 -0.775445 0.526676 0
M  V30 9 C 1.429255 -0.313498 -0.654953 0
M  V30 10 C 2.758295 -0.493003 -1.077037 0
M  V30 11 C 0.634835 0.443199 -1.618984 0
M  V30 12 C -0.795809 0.641815 -1.347810 0
M  V30 13 C -1.300558 0.142390 -0.051228 0
M  V30 14 C -0.473801 -0.530015 0.807184 0
M  V30 15 C -0.988509 -0.956992 1.954135 0
M  V30 16 C -2.305172 -0.739133 2.280448 0
M  V30 17 C -3.112290 -0.059361 1.394541 0
M  V30 18 C -2.613200 0.408171 0.178633 0
M  V30 19 N -3.616024 1.032515 -0.485151 0
M  V30 20 C -4.748921 0.996927 0.236771 0
M  V30 21 C -6.003518 1.500329 -0.043636 0
M  V30 22 C -6.955619 1.287276 0.924975 0
M  V30 23 C -6.698341 0.611442 2.119296 0
M  V30 24 C -5.428153 0.143501 2.320450 0
M  V30 25 C -4.436486 0.320770 1.400341 0
M  V30 26 C -2.755154 -1.274829 3.614497 0
M  V30 27 N -1.485884 -1.855464 4.085473 0
M  V30 28 C -0.504785 -1.652287 3.095739 0
M  V30 29 O 0.503650 -2.159279 3.546860 0
M  V30 30 H 6.907574 -0.113313 0.537611 0
M  V30 31 H 7.876099 -1.642496 0.766789 0
M  V30 32 H 7.627808 -1.020684 -0.883096 0
M  V30 33 H 5.653581 -2.411319 0.914461 0
M  V30 34 H 7.047369 -3.867665 -0.224257 0
M  V30 35 H 5.597895 -3.707531 -1.381955 0
M  V30 36 H 7.108071 -2.775996 -1.657132 0
M  V30 37 H 3.815246 -2.215090 1.598185 0
M  V30 38 H 1.567314 -1.837714 2.141486 0
M  V30 39 H 3.128104 -0.106405 -2.026730 0
M  V30 40 H 0.712573 -0.104727 -2.607883 0
M  V30 41 H 1.172009 1.416733 -1.842466 0
M  V30 42 H -1.465520 0.310448 -2.181646 0
M  V30 43 H -0.980482 1.759347 -1.310940 0
M  V30 44 H -3.495064 1.462912 -1.409681 0
M  V30 45 H -6.202151 2.022364 -0.966237 0
M  V30 46 H -7.958485 1.673935 0.732089 0
M  V30 47 H -7.513460 0.486851 2.833639 0
M  V30 48 H -5.258639 -0.376014 3.252396 0
M  V30 49 H -3.107103 -0.488384 4.281178 0
M  V30 50 H -3.462488 -2.104920 3.450967 0
M  V30 51 H -1.629851 -2.269090 5.028638 0
M  V30 END ATOM
M  V30 BEGIN BOND
M  V30 1 1 1 2
M  V30 2 1 2 3
M  V30 3 1 2 4
M  V30 4 1 4 5
M  V30 5 2 5 6
M  V30 6 1 6 7
M  V30 7 2 7 8
M  V30 8 1 8 9
M  V30 9 2 9 10
M  V30 10 1 9 11
M  V30 11 1 11 12
M  V30 12 1 12 13
M  V30 13 2 13 14
M  V30 14 1 14 15
M  V30 15 2 15 16
M  V30 16 1 16 17
M  V30 17 2 17 18
M  V30 18 1 18 19
M  V30 19 1 19 20
M  V30 20 2 20 21
M  V30 21 1 21 22
M  V30 22 2 22 23
M  V30 23 1 23 24
M  V30 24 2 24 25
M  V30 25 1 16 26
M  V30 26 1 26 27
M  V30 27 1 27 28
M  V30 28 2 28 29
M  V30 29 1 10 5
M  V30 30 1 18 13
M  V30 31 1 25 20
M  V30 32 1 14 8
M  V30 33 1 28 15
M  V30 34 1 25 17
M  V30 35 1 1 30
M  V30 36 1 1 31
M  V30 37 1 1 32
M  V30 38 1 2 33
M  V30 39 1 3 34
M  V30 40 1 3 35
M  V30 41 1 3 36
M  V30 42 1 6 37
M  V30 43 1 7 38
M  V30 44 1 10 39
M  V30 45 1 11 40
M  V30 46 1 11 41
M  V30 47 1 12 42
M  V30 48 1 12 43
M  V30 49 1 19 44
M  V30 50 1 21 45
M  V30 51 1 22 46
M  V30 52 1 23 47
M  V30 53 1 24 48
M  V30 54 1 26 49
M  V30 55 1 26 50
M  V30 56 1 27 51
M  V30 END BOND
M  V30 END CTAB
M  END
>  <Dataset>  (983) 
ChEMBL_Kinases

>  <Ligand_Instance>  (983) 
nan

>  <PDB_ID>  (983) 
nan

>  <Standardized_SMILES>  (983) 
CC(C)Oc1ccc2c(c1)CCc1c-2c2c(c3c1[nH]c1ccccc13)CNC2=O

>  <Name>  (983) 
nan

>  <Pocket>  (983) 
nan

>  <ATP_Site>  (983) 
nan

>  <Peripheral>  (983) 
nan

>  <Num_H_Atoms_ProtBoundConf>  (983) 
nan

>  <Num_Resolved_Atoms>  (983) 
nan

>  <Num_Not_Resolved_Atoms>  (983) 
nan

$$$$
CHEMBL391656
     RDKit          3D

  0  0  0  0  0  0  0  0  0  0999 V3000
M  V30 BEGIN CTAB
M  V30 COUNTS 51 55 0 0 0
M  V30 BEGIN ATOM
M  V30 1 N 1.231865 -1.616676 4.737878 0
M  V30 2 C 0.607945 -1.584906 3.739605 0
M  V30 3 C -0.175037 -1.569804 2.504464 0
M  V30 4 C 0.247189 -0.897107 1.422680 0
M  V30 5 N 1.328583 -0.132431 1.019909 0
M  V30 6 C 2.598070 0.235062 1.545817 0
M  V30 7 O 2.812927 -0.252633 2.655536 0
M  V30 8 C 3.571315 1.093800 0.885512 0
M  V30 9 C 4.804883 0.720866 0.408237 0
M  V30 10 C 5.655132 1.626666 -0.205886 0
M  V30 11 C 5.226748 2.935970 -0.329077 0
M  V30 12 C 3.995802 3.349232 0.137084 0
M  V30 13 C 3.594164 4.682653 -0.006663 0
M  V30 14 C 2.337644 5.068655 0.476412 0
M  V30 15 C 1.505295 4.159767 1.083401 0
M  V30 16 C 1.953482 2.869594 1.194748 0
M  V30 17 C 3.169277 2.400064 0.750573 0
M  V30 18 S -1.050917 -1.186058 0.219324 0
M  V30 19 C -2.083763 -2.230746 1.332988 0
M  V30 20 C -1.351065 -2.257935 2.500145 0
M  V30 21 C -2.141063 -3.077294 3.453659 0
M  V30 22 C -3.597539 -2.646173 3.421807 0
M  V30 23 C -4.206651 -3.169965 2.144744 0
M  V30 24 N -3.325085 -2.844315 1.047575 0
M  V30 25 C -3.798303 -3.166238 -0.269536 0
M  V30 26 C -2.841682 -2.958694 -1.368998 0
M  V30 27 C -2.063977 -4.092066 -1.657748 0
M  V30 28 C -1.135553 -3.989291 -2.697496 0
M  V30 29 C -0.945301 -2.851364 -3.443605 0
M  V30 30 N -1.702777 -1.781848 -3.146302 0
M  V30 31 C -2.596801 -1.858069 -2.156039 0
M  V30 32 H 1.292002 0.366558 0.073473 0
M  V30 33 H 5.077241 -0.321688 0.541044 0
M  V30 34 H 6.621393 1.301720 -0.572612 0
M  V30 35 H 5.862162 3.685188 -0.806896 0
M  V30 36 H 4.227033 5.424841 -0.481833 0
M  V30 37 H 1.975531 6.097191 0.388680 0
M  V30 38 H 0.519113 4.447515 1.466248 0
M  V30 39 H 1.272465 2.159074 1.683152 0
M  V30 40 H -2.071514 -4.145132 3.258831 0
M  V30 41 H -1.798442 -2.901153 4.512560 0
M  V30 42 H -3.696646 -1.541946 3.492639 0
M  V30 43 H -4.085256 -3.071922 4.321301 0
M  V30 44 H -4.336375 -4.270212 2.250057 0
M  V30 45 H -5.192598 -2.699158 1.953631 0
M  V30 46 H -4.172514 -4.220531 -0.261529 0
M  V30 47 H -4.721337 -2.544187 -0.418469 0
M  V30 48 H -2.163811 -5.034262 -1.104011 0
M  V30 49 H -0.548523 -4.898911 -2.891184 0
M  V30 50 H -0.199908 -2.931690 -4.201134 0
M  V30 51 H -3.237119 -1.006717 -1.880035 0
M  V30 END ATOM
M  V30 BEGIN BOND
M  V30 1 3 1 2
M  V30 2 1 2 3
M  V30 3 2 3 4
M  V30 4 1 4 5
M  V30 5 1 5 6
M  V30 6 2 6 7
M  V30 7 1 6 8
M  V30 8 2 8 9
M  V30 9 1 9 10
M  V30 10 2 10 11
M  V30 11 1 11 12
M  V30 12 2 12 13
M  V30 13 1 13 14
M  V30 14 2 14 15
M  V30 15 1 15 16
M  V30 16 2 16 17
M  V30 17 1 4 18
M  V30 18 1 18 19
M  V30 19 2 19 20
M  V30 20 1 20 21
M  V30 21 1 21 22
M  V30 22 1 22 23
M  V30 23 1 23 24
M  V30 24 1 24 25
M  V30 25 1 25 26
M  V30 26 2 26 27
M  V30 27 1 27 28
M  V30 28 2 28 29
M  V30 29 1 29 30
M  V30 30 2 30 31
M  V30 31 1 20 3
M  V30 32 1 31 26
M  V30 33 1 17 8
M  V30 34 1 24 19
M  V30 35 1 17 12
M  V30 36 1 5 32
M  V30 37 1 9 33
M  V30 38 1 10 34
M  V30 39 1 11 35
M  V30 40 1 13 36
M  V30 41 1 14 37
M  V30 42 1 15 38
M  V30 43 1 16 39
M  V30 44 1 21 40
M  V30 45 1 21 41
M  V30 46 1 22 42
M  V30 47 1 22 43
M  V30 48 1 23 44
M  V30 49 1 23 45
M  V30 50 1 25 46
M  V30 51 1 25 47
M  V30 52 1 27 48
M  V30 53 1 28 49
M  V30 54 1 29 50
M  V30 55 1 31 51
M  V30 END BOND
M  V30 END CTAB
M  END
>  <Dataset>  (984) 
ChEMBL_Kinases

>  <Ligand_Instance>  (984) 
nan

>  <PDB_ID>  (984) 
nan

>  <Standardized_SMILES>  (984) 
N#Cc1c(NC(=O)c2cccc3ccccc23)sc2c1CCCN2Cc1cccnc1

>  <Name>  (984) 
nan

>  <Pocket>  (984) 
nan

>  <ATP_Site>  (984) 
nan

>  <Peripheral>  (984) 
nan

>  <Num_H_Atoms_ProtBoundConf>  (984) 
nan

>  <Num_Resolved_Atoms>  (984) 
nan

>  <Num_Not_Resolved_Atoms>  (984) 
nan

$$$$
CHEMBL3916619
     RDKit          3D

  0  0  0  0  0  0  0  0  0  0999 V3000
M  V30 BEGIN CTAB
M  V30 COUNTS 51 54 0 0 0
M  V30 BEGIN ATOM
M  V30 1 C -5.208403 2.019608 0.922739 0
M  V30 2 C -3.990580 2.032903 1.784065 0
M  V30 3 N -3.582621 0.717794 2.230339 0
M  V30 4 N -3.944086 0.002164 3.301412 0
M  V30 5 C -3.334251 -1.197059 3.339861 0
M  V30 6 C -2.564191 -1.184532 2.218170 0
M  V30 7 C -1.721138 -2.173198 1.768274 0
M  V30 8 C -1.019554 -1.970909 0.611576 0
M  V30 9 N -1.227591 -0.785763 -0.001811 0
M  V30 10 C -2.007561 0.138577 0.410167 0
M  V30 11 C -2.729625 0.000296 1.549271 0
M  V30 12 C -1.961653 1.319380 -0.453426 0
M  V30 13 C -1.061849 1.262171 -1.657221 0 CFG=1
M  V30 14 O -1.196525 2.426210 -2.406722 0
M  V30 15 C 0.429686 1.189580 -1.353994 0
M  V30 16 O 1.245806 1.061207 -2.415110 0
M  V30 17 C 2.580612 0.782857 -2.295163 0
M  V30 18 C 2.926990 -0.677184 -1.967947 0 CFG=2
M  V30 19 C 2.669955 -1.557374 -3.131492 0
M  V30 20 C 2.202492 -1.130804 -4.355107 0
M  V30 21 C 1.979178 -1.902293 -5.475926 0
M  V30 22 C 2.260295 -3.267443 -5.351068 0
M  V30 23 C 2.733048 -3.766268 -4.150554 0
M  V30 24 C 2.915856 -2.915643 -3.111754 0
M  V30 25 N 2.204369 -0.889896 -0.796427 0
M  V30 26 C 1.089508 -1.633286 -0.460420 0
M  V30 27 O 0.927801 -2.232959 -1.475978 0
M  V30 28 N -0.025497 -2.477430 -0.349880 0
M  V30 29 H -5.488536 0.943474 0.740850 0
M  V30 30 H -5.099885 2.501032 -0.066605 0
M  V30 31 H -6.120228 2.462747 1.367684 0
M  V30 32 H -3.203560 2.738117 1.552232 0
M  V30 33 H -4.374972 2.490926 2.754071 0
M  V30 34 H -3.374150 -2.023298 4.033218 0
M  V30 35 H -1.410554 -3.152446 2.060341 0
M  V30 36 H -1.396608 2.052516 0.222755 0
M  V30 37 H -2.859507 1.874591 -0.653434 0
M  V30 38 H -1.366241 0.474001 -2.380285 0
M  V30 39 H -0.372322 2.858545 -2.669421 0
M  V30 40 H 0.569114 0.770379 -0.389238 0
M  V30 41 H 0.709929 2.335139 -1.053995 0
M  V30 42 H 3.072224 1.018506 -3.263446 0
M  V30 43 H 2.977597 1.444539 -1.481880 0
M  V30 44 H 4.027484 -0.729614 -1.843045 0
M  V30 45 H 1.966667 -0.086715 -4.502933 0
M  V30 46 H 1.609139 -1.492979 -6.402842 0
M  V30 47 H 2.094988 -3.896023 -6.212423 0
M  V30 48 H 2.928399 -4.829274 -4.130339 0
M  V30 49 H 3.296191 -3.391533 -2.197112 0
M  V30 50 H 2.543826 -0.418137 0.053540 0
M  V30 51 H -0.772056 -3.162795 -0.497804 0
M  V30 END ATOM
M  V30 BEGIN BOND
M  V30 1 1 1 2
M  V30 2 1 2 3
M  V30 3 1 3 4
M  V30 4 2 4 5
M  V30 5 1 5 6
M  V30 6 2 6 7
M  V30 7 1 7 8
M  V30 8 2 8 9
M  V30 9 1 9 10
M  V30 10 2 10 11
M  V30 11 1 10 12
M  V30 12 1 12 13
M  V30 13 1 13 14
M  V30 14 1 13 15
M  V30 15 1 15 16
M  V30 16 1 16 17
M  V30 17 1 17 18
M  V30 18 1 18 19
M  V30 19 2 19 20
M  V30 20 1 20 21
M  V30 21 2 21 22
M  V30 22 1 22 23
M  V30 23 2 23 24
M  V30 24 1 18 25
M  V30 25 1 25 26
M  V30 26 2 26 27
M  V30 27 1 26 28
M  V30 28 1 11 3
M  V30 29 1 24 19
M  V30 30 1 11 6
M  V30 31 1 28 8
M  V30 32 1 1 29
M  V30 33 1 1 30
M  V30 34 1 1 31
M  V30 35 1 2 32
M  V30 36 1 2 33
M  V30 37 1 5 34
M  V30 38 1 7 35
M  V30 39 1 12 36
M  V30 40 1 12 37
M  V30 41 1 13 38 CFG=3
M  V30 42 1 14 39
M  V30 43 1 15 40
M  V30 44 1 15 41
M  V30 45 1 17 42
M  V30 46 1 17 43
M  V30 47 1 18 44 CFG=1
M  V30 48 1 20 45
M  V30 49 1 21 46
M  V30 50 1 22 47
M  V30 51 1 23 48
M  V30 52 1 24 49
M  V30 53 1 25 50
M  V30 54 1 28 51
M  V30 END BOND
M  V30 END CTAB
M  END
>  <Dataset>  (985) 
ChEMBL_Kinases

>  <Ligand_Instance>  (985) 
nan

>  <PDB_ID>  (985) 
nan

>  <Standardized_SMILES>  (985) 
CCn1ncc2cc3nc(c21)C[C@@H](O)COC[C@H](c1ccccc1)NC(=O)N3

>  <Name>  (985) 
nan

>  <Pocket>  (985) 
nan

>  <ATP_Site>  (985) 
nan

>  <Peripheral>  (985) 
nan

>  <Num_H_Atoms_ProtBoundConf>  (985) 
nan

>  <Num_Resolved_Atoms>  (985) 
nan

>  <Num_Not_Resolved_Atoms>  (985) 
nan

$$$$
CHEMBL492244
     RDKit          3D

  0  0  0  0  0  0  0  0  0  0999 V3000
M  V30 BEGIN CTAB
M  V30 COUNTS 55 59 0 0 0
M  V30 BEGIN ATOM
M  V30 1 C 0.926961 -5.818132 2.669854 0
M  V30 2 N 1.724577 -5.536364 1.480407 0
M  V30 3 C 3.032357 -5.031004 1.844682 0
M  V30 4 C 3.011365 -3.607041 2.281030 0
M  V30 5 N 2.283252 -2.730694 1.329876 0
M  V30 6 C 2.392625 -1.420941 1.925647 0
M  V30 7 C 1.855363 -0.294203 1.126669 0
M  V30 8 O 0.504345 -0.455797 0.864581 0
M  V30 9 N -0.368968 0.482590 0.470772 0
M  V30 10 C -0.829584 0.678814 -0.641556 0
M  V30 11 C -1.760528 1.658998 -1.122257 0
M  V30 12 C -2.393130 2.620605 -0.542069 0
M  V30 13 C -3.327282 3.576808 -1.109784 0
M  V30 14 O -3.717490 3.668267 -2.298636 0
M  V30 15 N -3.781149 4.459501 -0.094260 0
M  V30 16 C -3.110662 4.024933 1.091503 0
M  V30 17 C -3.283730 4.638779 2.337932 0
M  V30 18 C -2.581890 4.126992 3.406234 0
M  V30 19 Br -2.797053 4.941278 5.112246 0
M  V30 20 C -1.748949 3.040836 3.191205 0
M  V30 21 C -1.641374 2.502404 1.930770 0
M  V30 22 C -2.295451 2.950772 0.846858 0
M  V30 23 N -1.907813 1.383926 -2.507528 0
M  V30 24 C -1.115062 0.277490 -2.924537 0
M  V30 25 C -0.981889 -0.298615 -4.178115 0
M  V30 26 C -0.127252 -1.373168 -4.265426 0
M  V30 27 C 0.555078 -1.845563 -3.165230 0
M  V30 28 C 0.368760 -1.219076 -1.955604 0
M  V30 29 C -0.467521 -0.136772 -1.775860 0
M  V30 30 C 0.946235 -3.265898 1.320291 0
M  V30 31 C 1.009787 -4.611449 0.622628 0
M  V30 32 H 1.016121 -6.899441 2.890274 0
M  V30 33 H -0.122333 -5.508270 2.473793 0
M  V30 34 H 1.404535 -5.256166 3.507549 0
M  V30 35 H 3.333911 -5.628344 2.749127 0
M  V30 36 H 3.756945 -5.257647 1.059293 0
M  V30 37 H 4.055953 -3.257459 2.373290 0
M  V30 38 H 2.485934 -3.523778 3.256646 0
M  V30 39 H 3.477829 -1.259515 2.127863 0
M  V30 40 H 1.839580 -1.480498 2.891317 0
M  V30 41 H 2.361801 -0.238518 0.114355 0
M  V30 42 H 2.102727 0.676532 1.613367 0
M  V30 43 H -4.466567 5.251344 -0.235370 0
M  V30 44 H -3.925136 5.476281 2.505391 0
M  V30 45 H -1.243425 2.723979 4.118687 0
M  V30 46 H -0.972294 1.709333 2.005779 0
M  V30 47 H -2.517326 1.910785 -3.171123 0
M  V30 48 H -1.515530 0.070755 -5.038684 0
M  V30 49 H -0.037640 -1.808195 -5.249918 0
M  V30 50 H 1.200917 -2.693489 -3.343696 0
M  V30 51 H 0.948771 -1.675765 -1.186520 0
M  V30 52 H 0.182551 -2.689560 0.815568 0
M  V30 53 H 0.672775 -3.473806 2.389287 0
M  V30 54 H 1.549509 -4.489497 -0.327519 0
M  V30 55 H -0.018458 -5.008274 0.496169 0
M  V30 END ATOM
M  V30 BEGIN BOND
M  V30 1 1 1 2
M  V30 2 1 2 3
M  V30 3 1 3 4
M  V30 4 1 4 5
M  V30 5 1 5 6
M  V30 6 1 6 7
M  V30 7 1 7 8
M  V30 8 1 8 9
M  V30 9 2 9 10
M  V30 10 1 10 11
M  V30 11 2 11 12
M  V30 12 1 12 13
M  V30 13 2 13 14
M  V30 14 1 13 15
M  V30 15 1 15 16
M  V30 16 2 16 17
M  V30 17 1 17 18
M  V30 18 1 18 19
M  V30 19 2 18 20
M  V30 20 1 20 21
M  V30 21 2 21 22
M  V30 22 1 11 23
M  V30 23 1 23 24
M  V30 24 2 24 25
M  V30 25 1 25 26
M  V30 26 2 26 27
M  V30 27 1 27 28
M  V30 28 2 28 29
M  V30 29 1 5 30
M  V30 30 1 30 31
M  V30 31 1 31 2
M  V30 32 1 29 10
M  V30 33 1 22 12
M  V30 34 1 29 24
M  V30 35 1 22 16
M  V30 36 1 1 32
M  V30 37 1 1 33
M  V30 38 1 1 34
M  V30 39 1 3 35
M  V30 40 1 3 36
M  V30 41 1 4 37
M  V30 42 1 4 38
M  V30 43 1 6 39
M  V30 44 1 6 40
M  V30 45 1 7 41
M  V30 46 1 7 42
M  V30 47 1 15 43
M  V30 48 1 17 44
M  V30 49 1 20 45
M  V30 50 1 21 46
M  V30 51 1 23 47
M  V30 52 1 25 48
M  V30 53 1 26 49
M  V30 54 1 27 50
M  V30 55 1 28 51
M  V30 56 1 30 52
M  V30 57 1 30 53
M  V30 58 1 31 54
M  V30 59 1 31 55
M  V30 END BOND
M  V30 END CTAB
M  END
>  <Dataset>  (986) 
ChEMBL_Kinases

>  <Ligand_Instance>  (986) 
nan

>  <PDB_ID>  (986) 
nan

>  <Standardized_SMILES>  (986) 
CN1CCN(CCO/N=C2C(=C3/C(=O)Nc4cc(Br)ccc43)/Nc3ccccc3/2)CC1

>  <Name>  (986) 
nan

>  <Pocket>  (986) 
nan

>  <ATP_Site>  (986) 
nan

>  <Peripheral>  (986) 
nan

>  <Num_H_Atoms_ProtBoundConf>  (986) 
nan

>  <Num_Resolved_Atoms>  (986) 
nan

>  <Num_Not_Resolved_Atoms>  (986) 
nan

$$$$
CHEMBL597211
     RDKit          3D

  0  0  0  0  0  0  0  0  0  0999 V3000
M  V30 BEGIN CTAB
M  V30 COUNTS 56 59 0 0 0
M  V30 BEGIN ATOM
M  V30 1 C 2.409251 -2.086073 4.835520 0
M  V30 2 C 2.613645 -2.809470 3.515282 0
M  V30 3 C 1.503747 -3.844028 3.437414 0
M  V30 4 C 3.952732 -3.480254 3.575817 0
M  V30 5 C 2.486487 -1.816327 2.421202 0
M  V30 6 C 2.224498 -0.501635 2.746509 0
M  V30 7 C 2.105201 0.426196 1.733645 0
M  V30 8 C 2.228885 0.142076 0.388157 0
M  V30 9 C 2.108964 1.071614 -0.731234 0
M  V30 10 C 0.751727 1.213443 -1.340001 0
M  V30 11 N 0.914790 2.197827 -2.428514 0
M  V30 12 C -0.213993 1.857236 -0.378776 0
M  V30 13 C -1.652144 1.552829 -0.716089 0
M  V30 14 N -1.889867 0.133666 -0.855129 0
M  V30 15 C -3.146985 -0.520482 -0.773743 0
M  V30 16 N -3.206190 -1.423714 0.238864 0
M  V30 17 C -4.341201 -2.140122 0.461848 0
M  V30 18 N -5.402592 -1.944202 -0.330636 0
M  V30 19 C -5.414212 -1.070037 -1.347507 0
M  V30 20 N -6.271140 -0.639008 -2.304000 0
M  V30 21 C -5.682153 0.305724 -3.083020 0
M  V30 22 C -4.394480 0.504793 -2.625828 0
M  V30 23 C -4.260207 -0.349913 -1.564672 0
M  V30 24 C -0.773756 -0.759087 -1.100127 0
M  V30 25 C 0.211969 -0.021394 -1.974739 0
M  V30 26 C 2.494720 -1.205990 0.110792 0
M  V30 27 C 2.621793 -2.166547 1.093999 0
M  V30 28 H 2.438040 -2.911699 5.605959 0
M  V30 29 H 1.380015 -1.713300 4.865529 0
M  V30 30 H 3.188294 -1.331805 5.038328 0
M  V30 31 H 0.549540 -3.310132 3.274847 0
M  V30 32 H 1.408678 -4.290184 4.461399 0
M  V30 33 H 1.696440 -4.614648 2.689911 0
M  V30 34 H 3.800835 -4.484671 4.055168 0
M  V30 35 H 4.625774 -2.932590 4.256631 0
M  V30 36 H 4.409340 -3.672975 2.599931 0
M  V30 37 H 2.103312 -0.144110 3.781007 0
M  V30 38 H 1.905939 1.453478 2.000023 0
M  V30 39 H 2.473624 2.102831 -0.444236 0
M  V30 40 H 2.881236 0.746479 -1.481797 0
M  V30 41 H 0.655098 3.153922 -2.133992 0
M  V30 42 H 0.392068 1.937967 -3.272381 0
M  V30 43 H -0.037717 1.478030 0.648146 0
M  V30 44 H -0.120539 2.961157 -0.328793 0
M  V30 45 H -2.281564 1.909562 0.123613 0
M  V30 46 H -1.978237 2.101505 -1.620505 0
M  V30 47 H -4.389045 -2.862279 1.271200 0
M  V30 48 H -7.237104 -1.066653 -2.324799 0
M  V30 49 H -6.186996 0.785832 -3.908340 0
M  V30 50 H -3.674958 1.186559 -3.031862 0
M  V30 51 H -1.065828 -1.660127 -1.667911 0
M  V30 52 H -0.389970 -1.081837 -0.135682 0
M  V30 53 H -0.377925 0.282817 -2.879486 0
M  V30 54 H 1.027897 -0.637451 -2.367869 0
M  V30 55 H 2.625101 -1.622649 -0.878333 0
M  V30 56 H 2.822666 -3.196009 0.922106 0
M  V30 END ATOM
M  V30 BEGIN BOND
M  V30 1 1 1 2
M  V30 2 1 2 3
M  V30 3 1 2 4
M  V30 4 1 2 5
M  V30 5 2 5 6
M  V30 6 1 6 7
M  V30 7 2 7 8
M  V30 8 1 8 9
M  V30 9 1 9 10
M  V30 10 1 10 11
M  V30 11 1 10 12
M  V30 12 1 12 13
M  V30 13 1 13 14
M  V30 14 1 14 15
M  V30 15 2 15 16
M  V30 16 1 16 17
M  V30 17 2 17 18
M  V30 18 1 18 19
M  V30 19 1 19 20
M  V30 20 1 20 21
M  V30 21 2 21 22
M  V30 22 1 22 23
M  V30 23 1 14 24
M  V30 24 1 24 25
M  V30 25 1 8 26
M  V30 26 2 26 27
M  V30 27 1 27 5
M  V30 28 1 25 10
M  V30 29 1 23 15
M  V30 30 2 23 19
M  V30 31 1 1 28
M  V30 32 1 1 29
M  V30 33 1 1 30
M  V30 34 1 3 31
M  V30 35 1 3 32
M  V30 36 1 3 33
M  V30 37 1 4 34
M  V30 38 1 4 35
M  V30 39 1 4 36
M  V30 40 1 6 37
M  V30 41 1 7 38
M  V30 42 1 9 39
M  V30 43 1 9 40
M  V30 44 1 11 41
M  V30 45 1 11 42
M  V30 46 1 12 43
M  V30 47 1 12 44
M  V30 48 1 13 45
M  V30 49 1 13 46
M  V30 50 1 17 47
M  V30 51 1 20 48
M  V30 52 1 21 49
M  V30 53 1 22 50
M  V30 54 1 24 51
M  V30 55 1 24 52
M  V30 56 1 25 53
M  V30 57 1 25 54
M  V30 58 1 26 55
M  V30 59 1 27 56
M  V30 END BOND
M  V30 END CTAB
M  END
>  <Dataset>  (987) 
ChEMBL_Kinases

>  <Ligand_Instance>  (987) 
nan

>  <PDB_ID>  (987) 
nan

>  <Standardized_SMILES>  (987) 
CC(C)(C)c1ccc(CC2(N)CCN(c3ncnc4[nH]ccc34)CC2)cc1

>  <Name>  (987) 
nan

>  <Pocket>  (987) 
nan

>  <ATP_Site>  (987) 
nan

>  <Peripheral>  (987) 
nan

>  <Num_H_Atoms_ProtBoundConf>  (987) 
nan

>  <Num_Resolved_Atoms>  (987) 
nan

>  <Num_Not_Resolved_Atoms>  (987) 
nan

$$$$
CHEMBL597127
     RDKit          3D

  0  0  0  0  0  0  0  0  0  0999 V3000
M  V30 BEGIN CTAB
M  V30 COUNTS 62 64 0 0 0
M  V30 BEGIN ATOM
M  V30 1 C -0.020556 -7.857112 2.507229 0
M  V30 2 O 1.319036 -7.423922 2.481232 0
M  V30 3 C 1.595738 -6.077002 2.388192 0
M  V30 4 C 0.561704 -5.137752 2.318750 0
M  V30 5 C 0.954752 -3.818758 2.227201 0
M  V30 6 C 2.259119 -3.378546 2.199659 0
M  V30 7 C 2.637385 -1.970942 2.106344 0
M  V30 8 O 3.862429 -1.635087 1.981637 0
M  V30 9 N 1.746435 -0.872706 2.141596 0
M  V30 10 C 2.099995 0.507738 2.048261 0
M  V30 11 C 2.377157 0.972498 0.652281 0
M  V30 12 C 3.566405 0.983163 -0.022465 0
M  V30 13 C 3.634034 1.451011 -1.312716 0
M  V30 14 C 2.513614 1.930952 -1.989815 0
M  V30 15 C 1.290923 1.943953 -1.361774 0
M  V30 16 C 0.131426 2.452978 -2.080805 0
M  V30 17 O 0.361915 2.860075 -3.260457 0
M  V30 18 N -1.213234 2.524865 -1.564410 0
M  V30 19 C -2.134766 3.072125 -2.495022 0
M  V30 20 C -3.525816 3.125912 -1.988763 0
M  V30 21 C -4.216170 1.862312 -1.670804 0
M  V30 22 C -3.652661 0.960924 -0.644501 0
M  V30 23 C -3.678877 1.540986 0.748444 0
M  V30 24 C -5.070578 2.014889 1.118839 0
M  V30 25 N -5.721055 2.737950 0.079122 0
M  V30 26 C -5.645116 2.180104 -1.232692 0
M  V30 27 C 1.281156 1.462266 -0.066858 0
M  V30 28 C 3.285752 -4.313296 2.268076 0
M  V30 29 C 2.930923 -5.660758 2.362438 0
M  V30 30 O 3.882580 -6.634056 2.435170 0
M  V30 31 C 5.278939 -6.468586 2.430473 0
M  V30 32 H -0.469764 -7.511648 3.462551 0
M  V30 33 H -0.617737 -7.356312 1.693206 0
M  V30 34 H -0.102020 -8.961207 2.358547 0
M  V30 35 H -0.459652 -5.433397 2.338818 0
M  V30 36 H 0.148853 -3.095470 2.177235 0
M  V30 37 H 0.725065 -1.147443 2.250285 0
M  V30 38 H 1.257689 1.120167 2.427523 0
M  V30 39 H 2.965738 0.781188 2.697375 0
M  V30 40 H 4.412173 0.609152 0.536192 0
M  V30 41 H 4.609693 1.441905 -1.818454 0
M  V30 42 H 2.673139 2.282824 -3.019600 0
M  V30 43 H -1.192738 2.160383 -0.600527 0
M  V30 44 H -1.812614 4.142217 -2.709775 0
M  V30 45 H -2.077748 2.588661 -3.503511 0
M  V30 46 H -3.586826 3.879651 -1.148552 0
M  V30 47 H -4.155917 3.631605 -2.791135 0
M  V30 48 H -4.334575 1.290828 -2.621421 0
M  V30 49 H -4.401081 0.090314 -0.575793 0
M  V30 50 H -2.711497 0.473960 -0.841146 0
M  V30 51 H -2.970109 2.353062 0.929659 0
M  V30 52 H -3.424067 0.710429 1.434472 0
M  V30 53 H -4.950026 2.684913 1.997756 0
M  V30 54 H -5.664868 1.147095 1.456052 0
M  V30 55 H -5.718773 3.761970 0.144116 0
M  V30 56 H -6.195523 1.218989 -1.250813 0
M  V30 57 H -6.117012 2.898509 -1.924961 0
M  V30 58 H 0.324987 1.460225 0.455171 0
M  V30 59 H 4.289205 -3.965744 2.245058 0
M  V30 60 H 5.636060 -5.440142 2.506161 0
M  V30 61 H 5.785814 -7.147618 3.153641 0
M  V30 62 H 5.640360 -6.827483 1.421717 0
M  V30 END ATOM
M  V30 BEGIN BOND
M  V30 1 1 1 2
M  V30 2 1 2 3
M  V30 3 2 3 4
M  V30 4 1 4 5
M  V30 5 2 5 6
M  V30 6 1 6 7
M  V30 7 2 7 8
M  V30 8 1 7 9
M  V30 9 1 9 10
M  V30 10 1 10 11
M  V30 11 2 11 12
M  V30 12 1 12 13
M  V30 13 2 13 14
M  V30 14 1 14 15
M  V30 15 1 15 16
M  V30 16 2 16 17
M  V30 17 1 16 18
M  V30 18 1 18 19
M  V30 19 1 19 20
M  V30 20 1 20 21
M  V30 21 1 21 22
M  V30 22 1 22 23
M  V30 23 1 23 24
M  V30 24 1 24 25
M  V30 25 1 25 26
M  V30 26 2 15 27
M  V30 27 1 6 28
M  V30 28 2 28 29
M  V30 29 1 29 30
M  V30 30 1 30 31
M  V30 31 1 29 3
M  V30 32 1 27 11
M  V30 33 1 26 21
M  V30 34 1 1 32
M  V30 35 1 1 33
M  V30 36 1 1 34
M  V30 37 1 4 35
M  V30 38 1 5 36
M  V30 39 1 9 37
M  V30 40 1 10 38
M  V30 41 1 10 39
M  V30 42 1 12 40
M  V30 43 1 13 41
M  V30 44 1 14 42
M  V30 45 1 18 43
M  V30 46 1 19 44
M  V30 47 1 19 45
M  V30 48 1 20 46
M  V30 49 1 20 47
M  V30 50 1 21 48
M  V30 51 1 22 49
M  V30 52 1 22 50
M  V30 53 1 23 51
M  V30 54 1 23 52
M  V30 55 1 24 53
M  V30 56 1 24 54
M  V30 57 1 25 55
M  V30 58 1 26 56
M  V30 59 1 26 57
M  V30 60 1 27 58
M  V30 61 1 28 59
M  V30 62 1 31 60
M  V30 63 1 31 61
M  V30 64 1 31 62
M  V30 END BOND
M  V30 END CTAB
M  END
>  <Dataset>  (988) 
ChEMBL_Kinases

>  <Ligand_Instance>  (988) 
nan

>  <PDB_ID>  (988) 
nan

>  <Standardized_SMILES>  (988) 
COc1ccc(C(=O)NCc2cccc(C(=O)NCCC3CCCNC3)c2)cc1OC

>  <Name>  (988) 
nan

>  <Pocket>  (988) 
nan

>  <ATP_Site>  (988) 
nan

>  <Peripheral>  (988) 
nan

>  <Num_H_Atoms_ProtBoundConf>  (988) 
nan

>  <Num_Resolved_Atoms>  (988) 
nan

>  <Num_Not_Resolved_Atoms>  (988) 
nan

$$$$
CHEMBL492252
     RDKit          3D

  0  0  0  0  0  0  0  0  0  0999 V3000
M  V30 BEGIN CTAB
M  V30 COUNTS 46 49 0 0 0
M  V30 BEGIN ATOM
M  V30 1 C -1.053723 -5.678364 -0.418277 0
M  V30 2 O -1.861248 -4.516388 -0.427209 0
M  V30 3 C -1.207190 -3.295388 -0.615849 0
M  V30 4 C 0.155311 -3.272414 -0.780484 0
M  V30 5 C 0.836948 -2.100469 -0.967979 0
M  V30 6 C 0.177247 -0.889573 -0.998936 0
M  V30 7 C 0.718048 0.450656 -1.183896 0
M  V30 8 C 0.049516 1.295234 -2.074801 0
M  V30 9 N 0.439451 2.548518 -2.337192 0
M  V30 10 C 1.526310 3.070820 -1.737790 0
M  V30 11 C 2.240202 2.278500 -0.835500 0
M  V30 12 C 3.410079 2.747225 -0.148436 0
M  V30 13 N 4.359448 3.123759 0.404861 0
M  V30 14 C 1.827306 0.989931 -0.574901 0
M  V30 15 N 2.518409 0.157987 0.328189 0
M  V30 16 C 2.097875 0.198286 1.694915 0
M  V30 17 C 2.691851 -0.567849 2.675669 0
M  V30 18 C 2.327359 -0.567879 4.004457 0
M  V30 19 C 1.292652 0.254999 4.397305 0
M  V30 20 C 0.684139 0.499695 5.610876 0
M  V30 21 C -0.309827 1.433017 5.401816 0
M  V30 22 N -0.317326 1.760555 4.084094 0
M  V30 23 C 0.656023 1.048628 3.459129 0
M  V30 24 C 1.061592 1.009544 2.141186 0
M  V30 25 C -1.208288 -0.921773 -0.830729 0
M  V30 26 C -1.910310 -2.093218 -0.640869 0
M  V30 27 O -3.264377 -2.203746 -0.469349 0
M  V30 28 C -4.203467 -1.172500 -0.450972 0
M  V30 29 H -1.733872 -6.506449 -0.115470 0
M  V30 30 H -0.620717 -5.823700 -1.416254 0
M  V30 31 H -0.224078 -5.545428 0.318991 0
M  V30 32 H 0.777704 -4.145602 -0.775628 0
M  V30 33 H 1.905351 -2.008506 -1.104421 0
M  V30 34 H -0.835985 1.021783 -2.631282 0
M  V30 35 H 1.907530 4.067955 -1.892128 0
M  V30 36 H 3.292583 -0.471177 0.098952 0
M  V30 37 H 3.498024 -1.216368 2.399917 0
M  V30 38 H 2.839347 -1.196589 4.719687 0
M  V30 39 H 0.960572 0.023281 6.559527 0
M  V30 40 H -0.987743 1.855138 6.139861 0
M  V30 41 H -0.962126 2.443853 3.628860 0
M  V30 42 H 0.572052 1.626207 1.393448 0
M  V30 43 H -1.818161 -0.042606 -0.837491 0
M  V30 44 H -4.385999 -0.880925 0.603419 0
M  V30 45 H -5.207841 -1.505993 -0.842754 0
M  V30 46 H -3.822358 -0.329137 -1.068661 0
M  V30 END ATOM
M  V30 BEGIN BOND
M  V30 1 1 1 2
M  V30 2 1 2 3
M  V30 3 2 3 4
M  V30 4 1 4 5
M  V30 5 2 5 6
M  V30 6 1 6 7
M  V30 7 2 7 8
M  V30 8 1 8 9
M  V30 9 2 9 10
M  V30 10 1 10 11
M  V30 11 1 11 12
M  V30 12 3 12 13
M  V30 13 2 11 14
M  V30 14 1 14 15
M  V30 15 1 15 16
M  V30 16 2 16 17
M  V30 17 1 17 18
M  V30 18 2 18 19
M  V30 19 1 19 20
M  V30 20 2 20 21
M  V30 21 1 21 22
M  V30 22 1 22 23
M  V30 23 2 23 24
M  V30 24 1 6 25
M  V30 25 2 25 26
M  V30 26 1 26 27
M  V30 27 1 27 28
M  V30 28 1 26 3
M  V30 29 1 14 7
M  V30 30 1 24 16
M  V30 31 1 23 19
M  V30 32 1 1 29
M  V30 33 1 1 30
M  V30 34 1 1 31
M  V30 35 1 4 32
M  V30 36 1 5 33
M  V30 37 1 8 34
M  V30 38 1 10 35
M  V30 39 1 15 36
M  V30 40 1 17 37
M  V30 41 1 18 38
M  V30 42 1 20 39
M  V30 43 1 21 40
M  V30 44 1 22 41
M  V30 45 1 24 42
M  V30 46 1 25 43
M  V30 47 1 28 44
M  V30 48 1 28 45
M  V30 49 1 28 46
M  V30 END BOND
M  V30 END CTAB
M  END
>  <Dataset>  (989) 
ChEMBL_Kinases

>  <Ligand_Instance>  (989) 
nan

>  <PDB_ID>  (989) 
nan

>  <Standardized_SMILES>  (989) 
COc1ccc(-c2cncc(C#N)c2Nc2ccc3cc[nH]c3c2)cc1OC

>  <Name>  (989) 
nan

>  <Pocket>  (989) 
nan

>  <ATP_Site>  (989) 
nan

>  <Peripheral>  (989) 
nan

>  <Num_H_Atoms_ProtBoundConf>  (989) 
nan

>  <Num_Resolved_Atoms>  (989) 
nan

>  <Num_Not_Resolved_Atoms>  (989) 
nan

$$$$
CHEMBL3916661
     RDKit          3D

  0  0  0  0  0  0  0  0  0  0999 V3000
M  V30 BEGIN CTAB
M  V30 COUNTS 44 47 0 0 0
M  V30 BEGIN ATOM
M  V30 1 C 3.477950 -2.340551 -3.278434 0
M  V30 2 C 2.325164 -2.520472 -4.170847 0
M  V30 3 C 2.364189 -3.494636 -5.155639 0
M  V30 4 C 1.321463 -3.655920 -6.009216 0
M  V30 5 C 0.234459 -2.847084 -5.885269 0
M  V30 6 C 0.245082 -1.905164 -4.900917 0
M  V30 7 C 1.284996 -1.660368 -3.961682 0
M  V30 8 C 0.956960 -0.630557 -3.016822 0
M  V30 9 O 0.638251 0.435632 -3.674679 0
M  V30 10 C 0.875834 -0.460522 -1.580709 0
M  V30 11 C 1.486077 -1.074033 -0.518645 0
M  V30 12 C 1.300581 -0.889471 0.826104 0
M  V30 13 C 0.349770 0.061120 1.130440 0
M  V30 14 C 0.082744 0.302985 2.546275 0
M  V30 15 N -0.863096 1.113821 3.086599 0
M  V30 16 C -0.817551 1.039074 4.424204 0
M  V30 17 C -1.630731 1.709005 5.312527 0
M  V30 18 C -1.414834 1.470214 6.666198 0
M  V30 19 C -2.170915 2.083678 7.777391 0
M  V30 20 N -3.083666 3.094378 7.381787 0
M  V30 21 O -2.115816 1.839753 8.996890 0
M  V30 22 C -0.420873 0.595218 7.089864 0
M  V30 23 C 0.342608 -0.029117 6.124771 0
M  V30 24 C 0.191024 0.152253 4.768375 0
M  V30 25 N 0.708753 -0.268410 3.597250 0
M  V30 26 C -0.362110 0.777124 0.196469 0
M  V30 27 C -0.066596 0.483945 -1.118306 0
M  V30 28 H 3.811234 -1.282975 -3.201002 0
M  V30 29 H 3.422634 -2.891861 -2.328280 0
M  V30 30 H 4.373970 -2.841867 -3.785745 0
M  V30 31 H 3.265305 -4.103492 -5.191647 0
M  V30 32 H 1.445801 -4.424411 -6.725836 0
M  V30 33 H -0.572227 -3.000615 -6.578576 0
M  V30 34 H -0.680908 -1.318407 -4.899186 0
M  V30 35 H 2.219330 -1.814395 -0.782723 0
M  V30 36 H 1.871324 -1.461689 1.539713 0
M  V30 37 H -2.419208 2.399417 5.059568 0
M  V30 38 H -3.683411 3.829226 7.773896 0
M  V30 39 H -3.562972 3.562566 6.587353 0
M  V30 40 H -0.216293 0.380133 8.127615 0
M  V30 41 H 1.146387 -0.731853 6.410040 0
M  V30 42 H 1.497044 -0.950682 3.570575 0
M  V30 43 H -1.095366 1.513678 0.476155 0
M  V30 44 H -0.664475 1.084515 -1.828313 0
M  V30 END ATOM
M  V30 BEGIN BOND
M  V30 1 1 1 2
M  V30 2 2 2 3
M  V30 3 1 3 4
M  V30 4 2 4 5
M  V30 5 1 5 6
M  V30 6 2 6 7
M  V30 7 1 7 8
M  V30 8 2 8 9
M  V30 9 1 8 10
M  V30 10 2 10 11
M  V30 11 1 11 12
M  V30 12 2 12 13
M  V30 13 1 13 14
M  V30 14 2 14 15
M  V30 15 1 15 16
M  V30 16 2 16 17
M  V30 17 1 17 18
M  V30 18 1 18 19
M  V30 19 1 19 20
M  V30 20 2 19 21
M  V30 21 2 18 22
M  V30 22 1 22 23
M  V30 23 2 23 24
M  V30 24 1 24 25
M  V30 25 1 13 26
M  V30 26 2 26 27
M  V30 27 1 7 2
M  V30 28 1 27 10
M  V30 29 1 25 14
M  V30 30 1 24 16
M  V30 31 1 1 28
M  V30 32 1 1 29
M  V30 33 1 1 30
M  V30 34 1 3 31
M  V30 35 1 4 32
M  V30 36 1 5 33
M  V30 37 1 6 34
M  V30 38 1 11 35
M  V30 39 1 12 36
M  V30 40 1 17 37
M  V30 41 1 20 38
M  V30 42 1 20 39
M  V30 43 1 22 40
M  V30 44 1 23 41
M  V30 45 1 25 42
M  V30 46 1 26 43
M  V30 47 1 27 44
M  V30 END BOND
M  V30 END CTAB
M  END
>  <Dataset>  (990) 
ChEMBL_Kinases

>  <Ligand_Instance>  (990) 
nan

>  <PDB_ID>  (990) 
nan

>  <Standardized_SMILES>  (990) 
Cc1ccccc1C(=O)c1ccc(-c2nc3cc(C(N)=O)ccc3[nH]2)cc1

>  <Name>  (990) 
nan

>  <Pocket>  (990) 
nan

>  <ATP_Site>  (990) 
nan

>  <Peripheral>  (990) 
nan

>  <Num_H_Atoms_ProtBoundConf>  (990) 
nan

>  <Num_Resolved_Atoms>  (990) 
nan

>  <Num_Not_Resolved_Atoms>  (990) 
nan

$$$$
CHEMBL3916678
     RDKit          3D

  0  0  0  0  0  0  0  0  0  0999 V3000
M  V30 BEGIN CTAB
M  V30 COUNTS 39 42 0 0 0
M  V30 BEGIN ATOM
M  V30 1 N 2.099176 -8.240298 -0.309771 0
M  V30 2 C 1.152135 -7.407178 0.304474 0
M  V30 3 O 0.349369 -7.907235 1.111762 0
M  V30 4 C 1.211663 -5.992308 -0.082759 0
M  V30 5 C 2.129835 -5.464821 -0.995766 0
M  V30 6 C 2.106344 -4.116688 -1.295878 0
M  V30 7 C 1.197532 -3.252649 -0.721472 0
M  V30 8 N 0.938250 -1.921608 -0.815222 0
M  V30 9 C -0.090982 -1.635828 -0.000129 0
M  V30 10 C -0.616145 -0.279250 0.128169 0
M  V30 11 C -0.058631 0.737424 -0.591718 0
M  V30 12 C -0.543580 2.036322 -0.484168 0
M  V30 13 C -1.600897 2.335928 0.351882 0
M  V30 14 S -2.193190 4.020729 0.459953 0
M  V30 15 C -1.241335 4.794575 1.789856 0
M  V30 16 C -0.039204 5.444233 1.542662 0
M  V30 17 C 0.625398 6.009116 2.615759 0
M  V30 18 C 0.087298 5.918579 3.904113 0
M  V30 19 Cl 0.918605 6.628252 5.264651 0
M  V30 20 C -1.109048 5.266139 4.115374 0
M  V30 21 C -1.801955 4.686747 3.052718 0
M  V30 22 N -2.143191 1.320486 1.058413 0
M  V30 23 C -1.672014 0.047825 0.956447 0
M  V30 24 N -0.455583 -2.771016 0.582325 0
M  V30 25 C 0.302339 -3.808241 0.178498 0
M  V30 26 C 0.287346 -5.150489 0.510224 0
M  V30 27 H 2.970457 -8.791681 -0.209932 0
M  V30 28 H 2.788841 -8.449419 0.472092 0
M  V30 29 H 2.835025 -6.156950 -1.436317 0
M  V30 30 H 2.824140 -3.728567 -2.003871 0
M  V30 31 H 1.533492 -1.353307 -1.460884 0
M  V30 32 H 0.778162 0.578510 -1.271981 0
M  V30 33 H -0.083586 2.811575 -1.063021 0
M  V30 34 H 0.342958 5.492644 0.534235 0
M  V30 35 H 1.581211 6.532759 2.460928 0
M  V30 36 H -1.529216 5.193412 5.109397 0
M  V30 37 H -2.728935 4.183937 3.232502 0
M  V30 38 H -2.145889 -0.722372 1.545996 0
M  V30 39 H -0.419233 -5.530090 1.206573 0
M  V30 END ATOM
M  V30 BEGIN BOND
M  V30 1 1 1 2
M  V30 2 2 2 3
M  V30 3 1 2 4
M  V30 4 2 4 5
M  V30 5 1 5 6
M  V30 6 2 6 7
M  V30 7 1 7 8
M  V30 8 1 8 9
M  V30 9 1 9 10
M  V30 10 2 10 11
M  V30 11 1 11 12
M  V30 12 2 12 13
M  V30 13 1 13 14
M  V30 14 1 14 15
M  V30 15 2 15 16
M  V30 16 1 16 17
M  V30 17 2 17 18
M  V30 18 1 18 19
M  V30 19 1 18 20
M  V30 20 2 20 21
M  V30 21 1 13 22
M  V30 22 2 22 23
M  V30 23 2 9 24
M  V30 24 1 24 25
M  V30 25 2 25 26
M  V30 26 1 26 4
M  V30 27 1 25 7
M  V30 28 1 23 10
M  V30 29 1 21 15
M  V30 30 1 1 27
M  V30 31 1 1 28
M  V30 32 1 5 29
M  V30 33 1 6 30
M  V30 34 1 8 31
M  V30 35 1 11 32
M  V30 36 1 12 33
M  V30 37 1 16 34
M  V30 38 1 17 35
M  V30 39 1 20 36
M  V30 40 1 21 37
M  V30 41 1 23 38
M  V30 42 1 26 39
M  V30 END BOND
M  V30 END CTAB
M  END
>  <Dataset>  (991) 
ChEMBL_Kinases

>  <Ligand_Instance>  (991) 
nan

>  <PDB_ID>  (991) 
nan

>  <Standardized_SMILES>  (991) 
NC(=O)c1ccc2[nH]c(-c3ccc(Sc4ccc(Cl)cc4)nc3)nc2c1

>  <Name>  (991) 
nan

>  <Pocket>  (991) 
nan

>  <ATP_Site>  (991) 
nan

>  <Peripheral>  (991) 
nan

>  <Num_H_Atoms_ProtBoundConf>  (991) 
nan

>  <Num_Resolved_Atoms>  (991) 
nan

>  <Num_Not_Resolved_Atoms>  (991) 
nan

$$$$
CHEMBL492257
     RDKit          3D

  0  0  0  0  0  0  0  0  0  0999 V3000
M  V30 BEGIN CTAB
M  V30 COUNTS 45 50 0 0 0
M  V30 BEGIN ATOM
M  V30 1 C 2.646058 -6.018896 -2.593186 0
M  V30 2 O 3.348162 -4.996495 -1.918950 0
M  V30 3 C 2.591637 -3.984915 -1.323747 0
M  V30 4 C 1.213361 -4.011744 -1.408827 0
M  V30 5 C 0.543644 -2.979945 -0.796768 0
M  V30 6 C 1.040021 -1.935402 -0.118850 0
M  V30 7 C 2.408997 -1.964207 -0.068892 0
M  V30 8 C 3.204314 -2.943458 -0.642005 0
M  V30 9 C 3.231176 -0.954478 0.608814 0
M  V30 10 C 2.535152 0.178779 1.250459 0
M  V30 11 C 1.080755 0.111357 1.147337 0
M  V30 12 C 0.358515 -0.857231 0.514125 0
M  V30 13 C -0.968307 -0.802079 0.488740 0
M  V30 14 C -1.654323 0.224064 1.094377 0
M  V30 15 C -0.939164 1.210722 1.738424 0
M  V30 16 C 0.458639 1.190882 1.788992 0
M  V30 17 N 0.865001 2.287506 2.487492 0
M  V30 18 C -0.188160 3.007231 2.886561 0
M  V30 19 C -0.222068 4.178092 3.611378 0
M  V30 20 C -1.482082 4.685272 3.869393 0
M  V30 21 C -2.627453 4.058062 3.428845 0
M  V30 22 C -2.544146 2.886734 2.705955 0
M  V30 23 C -1.308287 2.347263 2.426812 0
M  V30 24 C -3.161201 0.157979 0.990063 0
M  V30 25 N -3.294082 -1.085579 0.208055 0
M  V30 26 C -2.003541 -1.595470 -0.049586 0
M  V30 27 O -2.184293 -2.613157 -0.688115 0
M  V30 28 H 3.335259 -6.816401 -2.940974 0
M  V30 29 H 1.901722 -6.516024 -1.907028 0
M  V30 30 H 2.089122 -5.645099 -3.464899 0
M  V30 31 H 0.752146 -4.829641 -1.943164 0
M  V30 32 H -0.467107 -3.072859 -0.907618 0
M  V30 33 H 4.286551 -2.998322 -0.622735 0
M  V30 34 H 3.879181 -1.515355 1.329921 0
M  V30 35 H 3.943142 -0.567675 -0.169087 0
M  V30 36 H 2.884364 1.136653 0.773422 0
M  V30 37 H 2.811497 0.246952 2.336183 0
M  V30 38 H 1.861238 2.513916 2.672739 0
M  V30 39 H 0.655204 4.693592 3.970584 0
M  V30 40 H -1.523835 5.606603 4.439061 0
M  V30 41 H -3.589754 4.518798 3.671426 0
M  V30 42 H -3.448027 2.429344 2.381751 0
M  V30 43 H -3.601421 -0.054402 1.978775 0
M  V30 44 H -3.587402 1.008350 0.454809 0
M  V30 45 H -4.301370 -1.292318 0.030084 0
M  V30 END ATOM
M  V30 BEGIN BOND
M  V30 1 1 1 2
M  V30 2 1 2 3
M  V30 3 2 3 4
M  V30 4 1 4 5
M  V30 5 2 5 6
M  V30 6 1 6 7
M  V30 7 2 7 8
M  V30 8 1 7 9
M  V30 9 1 9 10
M  V30 10 1 10 11
M  V30 11 2 11 12
M  V30 12 1 12 13
M  V30 13 2 13 14
M  V30 14 1 14 15
M  V30 15 2 15 16
M  V30 16 1 16 17
M  V30 17 1 17 18
M  V30 18 2 18 19
M  V30 19 1 19 20
M  V30 20 2 20 21
M  V30 21 1 21 22
M  V30 22 2 22 23
M  V30 23 1 14 24
M  V30 24 1 24 25
M  V30 25 1 25 26
M  V30 26 2 26 27
M  V30 27 1 8 3
M  V30 28 1 16 11
M  V30 29 1 23 18
M  V30 30 1 12 6
M  V30 31 1 26 13
M  V30 32 1 23 15
M  V30 33 1 1 28
M  V30 34 1 1 29
M  V30 35 1 1 30
M  V30 36 1 4 31
M  V30 37 1 5 32
M  V30 38 1 8 33
M  V30 39 1 9 34
M  V30 40 1 9 35
M  V30 41 1 10 36
M  V30 42 1 10 37
M  V30 43 1 17 38
M  V30 44 1 19 39
M  V30 45 1 20 40
M  V30 46 1 21 41
M  V30 47 1 22 42
M  V30 48 1 24 43
M  V30 49 1 24 44
M  V30 50 1 25 45
M  V30 END BOND
M  V30 END CTAB
M  END
>  <Dataset>  (992) 
ChEMBL_Kinases

>  <Ligand_Instance>  (992) 
nan

>  <PDB_ID>  (992) 
nan

>  <Standardized_SMILES>  (992) 
COc1ccc2c(c1)CCc1c-2c2c(c3c1[nH]c1ccccc13)CNC2=O

>  <Name>  (992) 
nan

>  <Pocket>  (992) 
nan

>  <ATP_Site>  (992) 
nan

>  <Peripheral>  (992) 
nan

>  <Num_H_Atoms_ProtBoundConf>  (992) 
nan

>  <Num_Resolved_Atoms>  (992) 
nan

>  <Num_Not_Resolved_Atoms>  (992) 
nan

$$$$
CHEMBL388184
     RDKit          3D

  0  0  0  0  0  0  0  0  0  0999 V3000
M  V30 BEGIN CTAB
M  V30 COUNTS 55 58 0 0 0
M  V30 BEGIN ATOM
M  V30 1 N 7.281265 -1.007339 6.959051 0
M  V30 2 C 6.891237 -0.679378 5.623275 0
M  V30 3 O 7.278248 -1.711133 4.973859 0
M  V30 4 N 6.242461 0.524891 5.245605 0
M  V30 5 C 5.868307 0.814778 3.903735 0
M  V30 6 C 6.804663 1.474866 3.116690 0
M  V30 7 C 6.465968 1.777457 1.791220 0
M  V30 8 C 5.248448 1.452584 1.227895 0
M  V30 9 C 4.363187 0.800436 2.055347 0
M  V30 10 C 4.645379 0.478186 3.368239 0
M  V30 11 C 3.116093 0.513898 1.352471 0
M  V30 12 C 1.990599 -0.081696 1.614708 0
M  V30 13 C 0.819462 -0.278626 0.778673 0
M  V30 14 C 0.009939 0.431502 -0.037521 0
M  V30 15 C -0.977114 -0.347697 -0.601615 0
M  V30 16 C -1.996628 0.150348 -1.516978 0
M  V30 17 O -1.980182 1.353758 -1.822980 0
M  V30 18 N -3.005917 -0.684134 -2.070334 0
M  V30 19 C -4.019343 -0.156960 -2.982267 0
M  V30 20 C -4.913680 -1.318738 -3.361162 0
M  V30 21 N -5.547560 -1.921361 -2.238823 0
M  V30 22 C -6.537620 -1.193847 -1.552508 0
M  V30 23 C -7.585201 -2.063421 -0.893786 0
M  V30 24 O -7.095044 -3.180389 -0.295272 0
M  V30 25 C -6.018854 -3.800508 -0.846050 0
M  V30 26 C -5.568711 -3.331130 -2.186494 0
M  V30 27 C -0.745057 -1.605779 -0.090961 0
M  V30 28 N 0.336230 -1.560544 0.738579 0
M  V30 29 C 3.362356 1.072146 0.007894 0
M  V30 30 O 2.643647 1.115849 -1.019519 0
M  V30 31 N 4.680362 1.652790 -0.069085 0
M  V30 32 H 6.945785 -1.339287 7.904644 0
M  V30 33 H 8.278040 -0.933085 7.261436 0
M  V30 34 H 6.083795 1.147003 6.066494 0
M  V30 35 H 7.803405 1.795721 3.422514 0
M  V30 36 H 7.164538 2.293663 1.131914 0
M  V30 37 H 3.925089 -0.040926 4.002329 0
M  V30 38 H 2.011619 -0.466782 2.652906 0
M  V30 39 H 0.149626 1.471089 -0.185063 0
M  V30 40 H -2.968694 -1.683948 -1.781468 0
M  V30 41 H -3.488572 0.250452 -3.863881 0
M  V30 42 H -4.555743 0.648670 -2.475861 0
M  V30 43 H -4.367974 -2.099977 -3.913020 0
M  V30 44 H -5.742795 -0.912281 -4.011527 0
M  V30 45 H -7.087175 -0.544070 -2.285136 0
M  V30 46 H -6.131469 -0.474649 -0.808303 0
M  V30 47 H -8.383729 -2.279946 -1.660448 0
M  V30 48 H -8.102867 -1.438641 -0.139809 0
M  V30 49 H -6.287862 -4.891508 -0.972802 0
M  V30 50 H -5.159864 -3.821748 -0.135743 0
M  V30 51 H -6.136628 -3.841537 -3.001090 0
M  V30 52 H -4.489620 -3.669087 -2.279493 0
M  V30 53 H -1.364093 -2.455323 -0.351854 0
M  V30 54 H 0.632146 -2.462933 1.205143 0
M  V30 55 H 5.161186 2.117389 -0.846521 0
M  V30 END ATOM
M  V30 BEGIN BOND
M  V30 1 1 1 2
M  V30 2 2 2 3
M  V30 3 1 2 4
M  V30 4 1 4 5
M  V30 5 2 5 6
M  V30 6 1 6 7
M  V30 7 2 7 8
M  V30 8 1 8 9
M  V30 9 2 9 10
M  V30 10 1 9 11
M  V30 11 2 11 12
M  V30 12 1 12 13
M  V30 13 2 13 14
M  V30 14 1 14 15
M  V30 15 1 15 16
M  V30 16 2 16 17
M  V30 17 1 16 18
M  V30 18 1 18 19
M  V30 19 1 19 20
M  V30 20 1 20 21
M  V30 21 1 21 22
M  V30 22 1 22 23
M  V30 23 1 23 24
M  V30 24 1 24 25
M  V30 25 1 25 26
M  V30 26 2 15 27
M  V30 27 1 27 28
M  V30 28 1 11 29
M  V30 29 2 29 30
M  V30 30 1 29 31
M  V30 31 1 10 5
M  V30 32 1 28 13
M  V30 33 1 31 8
M  V30 34 1 26 21
M  V30 35 1 1 32
M  V30 36 1 1 33
M  V30 37 1 4 34
M  V30 38 1 6 35
M  V30 39 1 7 36
M  V30 40 1 10 37
M  V30 41 1 12 38
M  V30 42 1 14 39
M  V30 43 1 18 40
M  V30 44 1 19 41
M  V30 45 1 19 42
M  V30 46 1 20 43
M  V30 47 1 20 44
M  V30 48 1 22 45
M  V30 49 1 22 46
M  V30 50 1 23 47
M  V30 51 1 23 48
M  V30 52 1 25 49
M  V30 53 1 25 50
M  V30 54 1 26 51
M  V30 55 1 26 52
M  V30 56 1 27 53
M  V30 57 1 28 54
M  V30 58 1 31 55
M  V30 END BOND
M  V30 END CTAB
M  END
>  <Dataset>  (993) 
ChEMBL_Kinases

>  <Ligand_Instance>  (993) 
nan

>  <PDB_ID>  (993) 
nan

>  <Standardized_SMILES>  (993) 
NC(=O)Nc1ccc2c(c1)/C(=C/c1cc(C(=O)NCCN3CCOCC3)c[nH]1)C(=O)N2

>  <Name>  (993) 
nan

>  <Pocket>  (993) 
nan

>  <ATP_Site>  (993) 
nan

>  <Peripheral>  (993) 
nan

>  <Num_H_Atoms_ProtBoundConf>  (993) 
nan

>  <Num_Resolved_Atoms>  (993) 
nan

>  <Num_Not_Resolved_Atoms>  (993) 
nan

$$$$
CHEMBL490639
     RDKit          3D

  0  0  0  0  0  0  0  0  0  0999 V3000
M  V30 BEGIN CTAB
M  V30 COUNTS 51 56 0 0 0
M  V30 BEGIN ATOM
M  V30 1 C 0.754849 -7.492404 -0.354309 0
M  V30 2 N 0.404648 -6.100991 -0.075753 0
M  V30 3 C 0.520792 -5.517942 1.113315 0
M  V30 4 C 0.104838 -4.181819 1.062326 0
M  V30 5 C 0.102680 -3.275372 2.203442 0
M  V30 6 C 0.469838 -1.998120 2.389101 0
M  V30 7 C 1.030632 -1.063299 1.412556 0
M  V30 8 C 2.046128 -1.365976 0.495391 0
M  V30 9 O 2.319044 -0.338924 -0.245197 0
M  V30 10 C 1.559974 0.692509 0.080931 0
M  V30 11 C 1.411251 2.016113 -0.357041 0
M  V30 12 C 0.474425 2.885706 0.221938 0
M  V30 13 O 0.566872 4.084416 -0.411372 0
M  V30 14 C -0.124874 5.263516 -0.219946 0
M  V30 15 C -0.006207 5.913430 1.118322 0
M  V30 16 C -0.760502 7.225957 1.352198 0
M  V30 17 C -1.172964 5.964300 2.040751 0
M  V30 18 C -0.305004 2.394846 1.246783 0
M  V30 19 C -0.176275 1.099154 1.693606 0
M  V30 20 C 0.749989 0.259975 1.112893 0
M  V30 21 C 0.238263 -1.629766 3.781191 0
M  V30 22 O 0.415325 -0.576334 4.442557 0
M  V30 23 N -0.305608 -2.748586 4.493458 0
M  V30 24 C -0.394039 -3.789551 3.504120 0
M  V30 25 O -0.840714 -4.940844 3.788134 0
M  V30 26 C -0.260445 -4.047225 -0.255523 0
M  V30 27 C -0.761346 -2.944863 -0.911513 0
M  V30 28 C -1.088121 -2.969468 -2.250078 0
M  V30 29 F -1.581403 -1.923510 -2.948104 0
M  V30 30 C -0.897097 -4.156347 -2.936017 0
M  V30 31 Cl -1.251269 -4.391200 -4.641711 0
M  V30 32 C -0.397827 -5.276860 -2.305279 0
M  V30 33 C -0.078429 -5.218860 -0.955432 0
M  V30 34 H 1.839172 -7.674458 -0.330493 0
M  V30 35 H 0.296654 -8.180025 0.417022 0
M  V30 36 H 0.277323 -7.802382 -1.312658 0
M  V30 37 H 0.890058 -6.016650 2.001913 0
M  V30 38 H 2.499088 -2.355373 0.468036 0
M  V30 39 H 2.118796 2.212651 -1.175171 0
M  V30 40 H 0.174705 6.030235 -0.978697 0
M  V30 41 H -1.233653 5.101907 -0.382846 0
M  V30 42 H 1.022141 5.939859 1.540547 0
M  V30 43 H -0.333085 7.979919 2.035297 0
M  V30 44 H -1.364327 7.624194 0.519784 0
M  V30 45 H -2.133214 5.531919 1.684080 0
M  V30 46 H -1.018066 5.812854 3.129305 0
M  V30 47 H -0.976292 3.131286 1.607945 0
M  V30 48 H -0.830169 0.791201 2.494252 0
M  V30 49 H -0.597275 -2.854628 5.508466 0
M  V30 50 H -0.928967 -2.007266 -0.406247 0
M  V30 51 H -0.222610 -6.243611 -2.781617 0
M  V30 END ATOM
M  V30 BEGIN BOND
M  V30 1 1 1 2
M  V30 2 1 2 3
M  V30 3 2 3 4
M  V30 4 1 4 5
M  V30 5 2 5 6
M  V30 6 1 6 7
M  V30 7 2 7 8
M  V30 8 1 8 9
M  V30 9 1 9 10
M  V30 10 2 10 11
M  V30 11 1 11 12
M  V30 12 1 12 13
M  V30 13 1 13 14
M  V30 14 1 14 15
M  V30 15 1 15 16
M  V30 16 1 16 17
M  V30 17 2 12 18
M  V30 18 1 18 19
M  V30 19 2 19 20
M  V30 20 1 6 21
M  V30 21 2 21 22
M  V30 22 1 21 23
M  V30 23 1 23 24
M  V30 24 2 24 25
M  V30 25 1 4 26
M  V30 26 2 26 27
M  V30 27 1 27 28
M  V30 28 1 28 29
M  V30 29 2 28 30
M  V30 30 1 30 31
M  V30 31 1 30 32
M  V30 32 2 32 33
M  V30 33 1 33 2
M  V30 34 1 24 5
M  V30 35 1 33 26
M  V30 36 1 20 7
M  V30 37 1 20 10
M  V30 38 1 17 15
M  V30 39 1 1 34
M  V30 40 1 1 35
M  V30 41 1 1 36
M  V30 42 1 3 37
M  V30 43 1 8 38
M  V30 44 1 11 39
M  V30 45 1 14 40
M  V30 46 1 14 41
M  V30 47 1 15 42
M  V30 48 1 16 43
M  V30 49 1 16 44
M  V30 50 1 17 45
M  V30 51 1 17 46
M  V30 52 1 18 47
M  V30 53 1 19 48
M  V30 54 1 23 49
M  V30 55 1 27 50
M  V30 56 1 32 51
M  V30 END BOND
M  V30 END CTAB
M  END
>  <Dataset>  (994) 
ChEMBL_Kinases

>  <Ligand_Instance>  (994) 
nan

>  <PDB_ID>  (994) 
nan

>  <Standardized_SMILES>  (994) 
Cn1cc(C2=C(c3coc4cc(OCC5CC5)ccc34)C(=O)NC2=O)c2cc(F)c(Cl)cc21

>  <Name>  (994) 
nan

>  <Pocket>  (994) 
nan

>  <ATP_Site>  (994) 
nan

>  <Peripheral>  (994) 
nan

>  <Num_H_Atoms_ProtBoundConf>  (994) 
nan

>  <Num_Resolved_Atoms>  (994) 
nan

>  <Num_Not_Resolved_Atoms>  (994) 
nan

$$$$
CHEMBL490814
     RDKit          3D

  0  0  0  0  0  0  0  0  0  0999 V3000
M  V30 BEGIN CTAB
M  V30 COUNTS 51 54 0 0 0
M  V30 BEGIN ATOM
M  V30 1 C 1.085213 -5.972148 -0.556574 0
M  V30 2 C -0.036609 -4.973730 -0.668756 0 CFG=2
M  V30 3 N 0.427843 -3.597810 -0.554751 0
M  V30 4 C -0.553137 -2.548610 -0.646197 0
M  V30 5 C -0.175892 -1.221871 -0.545713 0
M  V30 6 C -1.138018 -0.257189 -0.637824 0
M  V30 7 C -1.029688 1.133079 -0.570865 0
M  V30 8 C 0.161092 1.967595 -0.380286 0
M  V30 9 C 1.335115 1.775217 -1.034445 0
M  V30 10 C 2.403093 2.613912 -0.788675 0
M  V30 11 Cl 3.932532 2.392747 -1.616431 0
M  V30 12 C 2.319399 3.653750 0.109109 0
M  V30 13 C 1.153476 3.899567 0.804191 0
M  V30 14 C 0.911261 4.976021 1.799493 0
M  V30 15 C 1.258186 4.504957 3.193529 0
M  V30 16 C 2.709013 4.121346 3.224662 0
M  V30 17 O 3.484100 5.236130 2.889223 0
M  V30 18 C 0.096777 3.026001 0.524740 0
M  V30 19 N -2.288642 1.611709 -0.720974 0
M  V30 20 O -3.118274 0.614677 -0.869447 0
M  V30 21 C -2.480658 -0.524948 -0.827295 0
M  V30 22 C -2.811397 -1.875237 -0.922455 0
M  V30 23 N -1.841920 -2.807767 -0.828149 0
M  V30 24 C -1.088659 -5.227504 0.375639 0
M  V30 25 C -2.298093 -5.873177 0.205127 0
M  V30 26 C -3.128597 -6.003587 1.300497 0
M  V30 27 C -2.764211 -5.501849 2.542011 0
M  V30 28 C -1.549182 -4.851442 2.720080 0
M  V30 29 C -0.715651 -4.720537 1.620790 0
M  V30 30 H 2.070517 -5.510450 -0.842093 0
M  V30 31 H 1.220454 -6.383434 0.460846 0
M  V30 32 H 0.946575 -6.841076 -1.249134 0
M  V30 33 H -0.441241 -5.078607 -1.702373 0
M  V30 34 H 1.418170 -3.356180 -0.413314 0
M  V30 35 H 0.871610 -0.961221 -0.395943 0
M  V30 36 H 1.409798 0.955621 -1.745740 0
M  V30 37 H 3.132989 4.322523 0.320887 0
M  V30 38 H 1.460374 5.888234 1.523610 0
M  V30 39 H -0.178981 5.245820 1.748324 0
M  V30 40 H 0.616533 3.638531 3.450574 0
M  V30 41 H 1.085460 5.348855 3.893058 0
M  V30 42 H 2.961153 3.856380 4.281593 0
M  V30 43 H 2.922650 3.243159 2.608821 0
M  V30 44 H 4.307485 4.950585 2.397644 0
M  V30 45 H -0.848645 3.177629 1.048790 0
M  V30 46 H -3.844548 -2.138133 -1.070405 0
M  V30 47 H -2.474965 -6.220207 -0.798429 0
M  V30 48 H -4.062561 -6.511291 1.133570 0
M  V30 49 H -3.465808 -5.635494 3.376423 0
M  V30 50 H -1.319231 -4.481662 3.709449 0
M  V30 51 H 0.201444 -4.205593 1.848249 0
M  V30 END ATOM
M  V30 BEGIN BOND
M  V30 1 1 1 2
M  V30 2 1 2 3
M  V30 3 1 3 4
M  V30 4 2 4 5
M  V30 5 1 5 6
M  V30 6 1 6 7
M  V30 7 1 7 8
M  V30 8 2 8 9
M  V30 9 1 9 10
M  V30 10 1 10 11
M  V30 11 2 10 12
M  V30 12 1 12 13
M  V30 13 1 13 14
M  V30 14 1 14 15
M  V30 15 1 15 16
M  V30 16 1 16 17
M  V30 17 2 13 18
M  V30 18 2 7 19
M  V30 19 1 19 20
M  V30 20 1 20 21
M  V30 21 1 21 22
M  V30 22 2 22 23
M  V30 23 1 2 24
M  V30 24 2 24 25
M  V30 25 1 25 26
M  V30 26 2 26 27
M  V30 27 1 27 28
M  V30 28 2 28 29
M  V30 29 1 23 4
M  V30 30 1 29 24
M  V30 31 2 21 6
M  V30 32 1 18 8
M  V30 33 1 1 30
M  V30 34 1 1 31
M  V30 35 1 1 32
M  V30 36 1 2 33 CFG=3
M  V30 37 1 3 34
M  V30 38 1 5 35
M  V30 39 1 9 36
M  V30 40 1 12 37
M  V30 41 1 14 38
M  V30 42 1 14 39
M  V30 43 1 15 40
M  V30 44 1 15 41
M  V30 45 1 16 42
M  V30 46 1 16 43
M  V30 47 1 17 44
M  V30 48 1 18 45
M  V30 49 1 22 46
M  V30 50 1 25 47
M  V30 51 1 26 48
M  V30 52 1 27 49
M  V30 53 1 28 50
M  V30 54 1 29 51
M  V30 END BOND
M  V30 END CTAB
M  END
>  <Dataset>  (995) 
ChEMBL_Kinases

>  <Ligand_Instance>  (995) 
nan

>  <PDB_ID>  (995) 
nan

>  <Standardized_SMILES>  (995) 
C[C@H](Nc1cc2c(-c3cc(Cl)cc(CCCO)c3)noc2cn1)c1ccccc1

>  <Name>  (995) 
nan

>  <Pocket>  (995) 
nan

>  <ATP_Site>  (995) 
nan

>  <Peripheral>  (995) 
nan

>  <Num_H_Atoms_ProtBoundConf>  (995) 
nan

>  <Num_Resolved_Atoms>  (995) 
nan

>  <Num_Not_Resolved_Atoms>  (995) 
nan

$$$$
CHEMBL4877125
     RDKit          3D

  0  0  0  0  0  0  0  0  0  0999 V3000
M  V30 BEGIN CTAB
M  V30 COUNTS 45 48 0 0 0
M  V30 BEGIN ATOM
M  V30 1 C -0.583865 -4.272441 1.701836 0
M  V30 2 C 0.626910 -3.421904 2.029893 0 CFG=1
M  V30 3 N 0.839610 -2.383934 1.068585 0
M  V30 4 C 1.992554 -2.213684 0.282915 0
M  V30 5 O 2.772367 -3.172002 0.622243 0
M  V30 6 C 2.457829 -1.295598 -0.723092 0
M  V30 7 C 3.709217 -1.522878 -1.250579 0
M  V30 8 N 3.960894 -0.562113 -2.169943 0
M  V30 9 C 2.927459 0.262419 -2.249238 0
M  V30 10 C 2.646912 1.385866 -2.997866 0
M  V30 11 C 1.442804 2.049855 -2.850341 0
M  V30 12 C 0.529436 1.539861 -1.919030 0
M  V30 13 C -0.759709 2.196122 -1.717173 0
M  V30 14 C -1.617518 2.900957 -2.534515 0
M  V30 15 N -2.674035 3.275700 -1.784728 0
M  V30 16 N -2.558048 2.862528 -0.542467 0
M  V30 17 C -3.490144 3.072181 0.552548 0
M  V30 18 C -1.381548 2.188530 -0.463716 0
M  V30 19 C 0.869545 0.414395 -1.202611 0
M  V30 20 N 2.044768 -0.202241 -1.372092 0
M  V30 21 C 0.469108 -2.778965 3.375493 0
M  V30 22 C 1.070004 -3.205847 4.536116 0
M  V30 23 C 0.868124 -2.551885 5.736474 0
M  V30 24 C 0.043679 -1.432591 5.806060 0
M  V30 25 C -0.552581 -1.018462 4.624873 0
M  V30 26 C -0.352270 -1.671927 3.419722 0
M  V30 27 H -0.880662 -4.184928 0.621784 0
M  V30 28 H -1.423292 -3.954603 2.330643 0
M  V30 29 H -0.420493 -5.353553 1.878182 0
M  V30 30 H 1.477032 -4.125728 2.124403 0
M  V30 31 H 0.114818 -1.668035 0.894034 0
M  V30 32 H 4.555832 -2.222450 -1.166240 0
M  V30 33 H 3.369357 1.773153 -3.721435 0
M  V30 34 H 1.209772 2.936627 -3.434757 0
M  V30 35 H -1.356480 3.047979 -3.573060 0
M  V30 36 H -4.407931 2.456249 0.472554 0
M  V30 37 H -2.982918 2.764460 1.513044 0
M  V30 38 H -3.687973 4.156170 0.678502 0
M  V30 39 H -1.024952 1.729726 0.466645 0
M  V30 40 H 0.139177 0.070455 -0.509313 0
M  V30 41 H 1.697589 -4.066326 4.457292 0
M  V30 42 H 1.355606 -2.912464 6.634826 0
M  V30 43 H -0.123123 -0.910554 6.741122 0
M  V30 44 H -1.187337 -0.140300 4.730418 0
M  V30 45 H -0.896691 -1.210824 2.602137 0
M  V30 END ATOM
M  V30 BEGIN BOND
M  V30 1 1 1 2
M  V30 2 1 2 3
M  V30 3 1 3 4
M  V30 4 2 4 5
M  V30 5 1 4 6
M  V30 6 2 6 7
M  V30 7 1 7 8
M  V30 8 2 8 9
M  V30 9 1 9 10
M  V30 10 2 10 11
M  V30 11 1 11 12
M  V30 12 1 12 13
M  V30 13 1 13 14
M  V30 14 2 14 15
M  V30 15 1 15 16
M  V30 16 1 16 17
M  V30 17 1 16 18
M  V30 18 2 12 19
M  V30 19 1 19 20
M  V30 20 1 2 21
M  V30 21 2 21 22
M  V30 22 1 22 23
M  V30 23 2 23 24
M  V30 24 1 24 25
M  V30 25 2 25 26
M  V30 26 1 20 6
M  V30 27 1 26 21
M  V30 28 1 20 9
M  V30 29 2 18 13
M  V30 30 1 1 27
M  V30 31 1 1 28
M  V30 32 1 1 29
M  V30 33 1 2 30 CFG=1
M  V30 34 1 3 31
M  V30 35 1 7 32
M  V30 36 1 10 33
M  V30 37 1 11 34
M  V30 38 1 14 35
M  V30 39 1 17 36
M  V30 40 1 17 37
M  V30 41 1 17 38
M  V30 42 1 18 39
M  V30 43 1 19 40
M  V30 44 1 22 41
M  V30 45 1 23 42
M  V30 46 1 24 43
M  V30 47 1 25 44
M  V30 48 1 26 45
M  V30 END BOND
M  V30 END CTAB
M  END
>  <Dataset>  (996) 
ChEMBL_Kinases

>  <Ligand_Instance>  (996) 
nan

>  <PDB_ID>  (996) 
nan

>  <Standardized_SMILES>  (996) 
C[C@@H](NC(=O)c1cnc2ccc(-c3cnn(C)c3)cn12)c1ccccc1

>  <Name>  (996) 
nan

>  <Pocket>  (996) 
nan

>  <ATP_Site>  (996) 
nan

>  <Peripheral>  (996) 
nan

>  <Num_H_Atoms_ProtBoundConf>  (996) 
nan

>  <Num_Resolved_Atoms>  (996) 
nan

>  <Num_Not_Resolved_Atoms>  (996) 
nan

$$$$
CHEMBL490842
     RDKit          3D

  0  0  0  0  0  0  0  0  0  0999 V3000
M  V30 BEGIN CTAB
M  V30 COUNTS 49 53 0 0 0
M  V30 BEGIN ATOM
M  V30 1 C -2.575297 0.061268 0.761839 0
M  V30 2 N -1.345053 -0.705875 0.738637 0
M  V30 3 C -0.123911 -0.208364 1.090670 0
M  V30 4 C 0.872499 -1.188736 0.973644 0
M  V30 5 C 2.244110 -0.857353 1.324502 0
M  V30 6 C 2.783511 0.299829 0.982824 0
M  V30 7 C 2.225559 1.425710 0.247373 0
M  V30 8 C 1.563389 1.501528 -0.984249 0
M  V30 9 O 1.216271 2.738054 -1.221021 0
M  V30 10 C 1.601283 3.507881 -0.224383 0
M  V30 11 C 1.502583 4.859259 0.055232 0
M  V30 12 C 2.017249 5.412181 1.224489 0
M  V30 13 C 2.652375 4.639542 2.170349 0
M  V30 14 C 2.758029 3.292861 1.905968 0
M  V30 15 C 2.245480 2.725993 0.731237 0
M  V30 16 C 4.171427 0.319921 1.489461 0
M  V30 17 O 5.111069 1.180478 1.432601 0
M  V30 18 N 4.462916 -0.909370 2.176162 0
M  V30 19 C 3.231328 -1.643262 2.061993 0
M  V30 20 O 3.072030 -2.790332 2.542045 0
M  V30 21 C 0.176326 -2.290840 0.533128 0
M  V30 22 C 0.732233 -3.526104 0.266969 0
M  V30 23 C -0.132126 -4.527674 -0.167734 0
M  V30 24 C -1.494480 -4.221920 -0.305676 0
M  V30 25 C -2.026570 -2.981602 -0.035133 0
M  V30 26 C -3.453553 -2.693491 -0.190363 0
M  V30 27 C -4.325155 -3.922727 -0.327776 0
M  V30 28 C -4.221472 -4.791778 0.878319 0
M  V30 29 O -3.517266 -4.594748 1.923393 0
M  V30 30 O -5.030096 -5.926840 0.743324 0
M  V30 31 C -1.165133 -1.995641 0.393299 0
M  V30 32 H -3.188359 -0.020341 -0.132813 0
M  V30 33 H -3.137623 -0.104270 1.711517 0
M  V30 34 H -2.312095 1.161101 0.819264 0
M  V30 35 H 0.020018 0.838483 1.416236 0
M  V30 36 H 1.394774 0.613206 -1.610211 0
M  V30 37 H 1.021662 5.493814 -0.649610 0
M  V30 38 H 1.936340 6.460795 1.431688 0
M  V30 39 H 3.060100 5.023280 3.083915 0
M  V30 40 H 3.248771 2.691059 2.653933 0
M  V30 41 H 5.338629 -1.227623 2.651514 0
M  V30 42 H 1.784737 -3.743827 0.373666 0
M  V30 43 H 0.255673 -5.511484 -0.391822 0
M  V30 44 H -2.194469 -4.985480 -0.644971 0
M  V30 45 H -3.594980 -2.135183 -1.157775 0
M  V30 46 H -3.839386 -2.149039 0.690007 0
M  V30 47 H -4.129321 -4.431773 -1.265473 0
M  V30 48 H -5.390308 -3.549616 -0.325229 0
M  V30 49 H -4.910817 -6.718404 1.400639 0
M  V30 END ATOM
M  V30 BEGIN BOND
M  V30 1 1 1 2
M  V30 2 1 2 3
M  V30 3 2 3 4
M  V30 4 1 4 5
M  V30 5 2 5 6
M  V30 6 1 6 7
M  V30 7 2 7 8
M  V30 8 1 8 9
M  V30 9 1 9 10
M  V30 10 2 10 11
M  V30 11 1 11 12
M  V30 12 2 12 13
M  V30 13 1 13 14
M  V30 14 2 14 15
M  V30 15 1 6 16
M  V30 16 2 16 17
M  V30 17 1 16 18
M  V30 18 1 18 19
M  V30 19 2 19 20
M  V30 20 1 4 21
M  V30 21 2 21 22
M  V30 22 1 22 23
M  V30 23 2 23 24
M  V30 24 1 24 25
M  V30 25 1 25 26
M  V30 26 1 26 27
M  V30 27 1 27 28
M  V30 28 2 28 29
M  V30 29 1 28 30
M  V30 30 2 25 31
M  V30 31 1 31 2
M  V30 32 1 19 5
M  V30 33 1 31 21
M  V30 34 1 15 7
M  V30 35 1 15 10
M  V30 36 1 1 32
M  V30 37 1 1 33
M  V30 38 1 1 34
M  V30 39 1 3 35
M  V30 40 1 8 36
M  V30 41 1 11 37
M  V30 42 1 12 38
M  V30 43 1 13 39
M  V30 44 1 14 40
M  V30 45 1 18 41
M  V30 46 1 22 42
M  V30 47 1 23 43
M  V30 48 1 24 44
M  V30 49 1 26 45
M  V30 50 1 26 46
M  V30 51 1 27 47
M  V30 52 1 27 48
M  V30 53 1 30 49
M  V30 END BOND
M  V30 END CTAB
M  END
>  <Dataset>  (997) 
ChEMBL_Kinases

>  <Ligand_Instance>  (997) 
nan

>  <PDB_ID>  (997) 
nan

>  <Standardized_SMILES>  (997) 
Cn1cc(C2=C(c3coc4ccccc34)C(=O)NC2=O)c2cccc(CCC(=O)O)c21

>  <Name>  (997) 
nan

>  <Pocket>  (997) 
nan

>  <ATP_Site>  (997) 
nan

>  <Peripheral>  (997) 
nan

>  <Num_H_Atoms_ProtBoundConf>  (997) 
nan

>  <Num_Resolved_Atoms>  (997) 
nan

>  <Num_Not_Resolved_Atoms>  (997) 
nan

$$$$
CHEMBL4877113
     RDKit          3D

  0  0  0  0  0  0  0  0  0  0999 V3000
M  V30 BEGIN CTAB
M  V30 COUNTS 44 47 0 0 0
M  V30 BEGIN ATOM
M  V30 1 C 0.685296 -2.890905 2.344787 0
M  V30 2 C 2.087184 -3.436684 2.427977 0 CFG=2
M  V30 3 N 2.966705 -2.661733 3.240091 0
M  V30 4 C 3.649633 -3.029947 4.338363 0
M  V30 5 N 4.390905 -2.034307 4.871326 0
M  V30 6 N 4.156191 -1.002041 4.064490 0
M  V30 7 C 3.300825 -1.389298 3.089029 0
M  V30 8 C 2.910912 -0.403370 2.098206 0
M  V30 9 C 3.962082 0.137613 1.350269 0
M  V30 10 C 3.828409 1.086326 0.359761 0
M  V30 11 C 2.546614 1.543744 0.079288 0
M  V30 12 C 1.511266 1.004147 0.822564 0
M  V30 13 N 0.205715 1.480891 0.520637 0
M  V30 14 C -0.337423 0.632285 -0.474579 0
M  V30 15 O 0.525581 -0.275850 -0.762153 0
M  V30 16 C -1.635231 0.674096 -1.140624 0
M  V30 17 C -1.724788 -0.011042 -2.347612 0
M  V30 18 C -2.870253 -0.052559 -3.071809 0
M  V30 19 C -4.014819 0.583965 -2.650221 0
M  V30 20 C -3.961864 1.281173 -1.445679 0
M  V30 21 N -5.034081 1.938734 -0.943804 0
M  V30 22 C -4.962141 2.601500 0.221323 0
M  V30 23 C -3.780095 2.618326 0.926310 0
M  V30 24 N -2.714858 1.969562 0.432307 0
M  V30 25 C -2.783701 1.302922 -0.736492 0
M  V30 26 N 1.681756 0.091905 1.768232 0
M  V30 27 C 2.651063 -3.699575 1.030912 0
M  V30 28 F 3.918212 -4.182115 1.200167 0
M  V30 29 F 2.562564 -2.534711 0.322191 0
M  V30 30 F 1.892230 -4.696584 0.398970 0
M  V30 31 H 0.428752 -2.533575 1.320318 0
M  V30 32 H -0.064765 -3.697017 2.598829 0
M  V30 33 H 0.578623 -2.105145 3.121462 0
M  V30 34 H 2.031771 -4.468997 2.885542 0
M  V30 35 H 3.637263 -4.025701 4.798551 0
M  V30 36 H 5.000406 -0.179412 1.524400 0
M  V30 37 H 4.671470 1.470985 -0.181794 0
M  V30 38 H 2.405631 2.281404 -0.684879 0
M  V30 39 H -0.432776 2.271318 0.832315 0
M  V30 40 H -0.854092 -0.543553 -2.754952 0
M  V30 41 H -2.896569 -0.599727 -4.011968 0
M  V30 42 H -4.962648 0.573770 -3.193655 0
M  V30 43 H -5.920290 3.058199 0.443818 0
M  V30 44 H -3.838780 3.180165 1.845374 0
M  V30 END ATOM
M  V30 BEGIN BOND
M  V30 1 1 1 2
M  V30 2 1 2 3
M  V30 3 1 3 4
M  V30 4 2 4 5
M  V30 5 1 5 6
M  V30 6 2 6 7
M  V30 7 1 7 8
M  V30 8 2 8 9
M  V30 9 1 9 10
M  V30 10 2 10 11
M  V30 11 1 11 12
M  V30 12 1 12 13
M  V30 13 1 13 14
M  V30 14 2 14 15
M  V30 15 1 14 16
M  V30 16 2 16 17
M  V30 17 1 17 18
M  V30 18 2 18 19
M  V30 19 1 19 20
M  V30 20 2 20 21
M  V30 21 1 21 22
M  V30 22 2 22 23
M  V30 23 1 23 24
M  V30 24 2 24 25
M  V30 25 2 12 26
M  V30 26 1 2 27
M  V30 27 1 27 28
M  V30 28 1 27 29
M  V30 29 1 27 30
M  V30 30 1 7 3
M  V30 31 1 26 8
M  V30 32 1 25 16
M  V30 33 1 25 20
M  V30 34 1 1 31
M  V30 35 1 1 32
M  V30 36 1 1 33
M  V30 37 1 2 34 CFG=1
M  V30 38 1 4 35
M  V30 39 1 9 36
M  V30 40 1 10 37
M  V30 41 1 11 38
M  V30 42 1 13 39
M  V30 43 1 17 40
M  V30 44 1 18 41
M  V30 45 1 19 42
M  V30 46 1 22 43
M  V30 47 1 23 44
M  V30 END BOND
M  V30 END CTAB
M  END
>  <Dataset>  (998) 
ChEMBL_Kinases

>  <Ligand_Instance>  (998) 
nan

>  <PDB_ID>  (998) 
nan

>  <Standardized_SMILES>  (998) 
C[C@H](n1cnnc1-c1cccc(NC(=O)c2cccc3nccnc23)n1)C(F)(F)F

>  <Name>  (998) 
nan

>  <Pocket>  (998) 
nan

>  <ATP_Site>  (998) 
nan

>  <Peripheral>  (998) 
nan

>  <Num_H_Atoms_ProtBoundConf>  (998) 
nan

>  <Num_Resolved_Atoms>  (998) 
nan

>  <Num_Not_Resolved_Atoms>  (998) 
nan

$$$$
CHEMBL3884222
     RDKit          3D

  0  0  0  0  0  0  0  0  0  0999 V3000
M  V30 BEGIN CTAB
M  V30 COUNTS 65 68 0 0 0
M  V30 BEGIN ATOM
M  V30 1 C 0.291204 -0.242977 3.590364 0
M  V30 2 C -0.115514 1.043877 3.766942 0
M  V30 3 C 0.743989 1.926151 2.913600 0
M  V30 4 O 1.515856 1.146452 2.283970 0
M  V30 5 N 1.086128 3.270760 2.492184 0
M  V30 6 C 2.127897 2.881093 1.562490 0
M  V30 7 C 3.372856 2.714479 2.181764 0
M  V30 8 C 4.405218 2.244545 1.424705 0
M  V30 9 N 5.754461 2.003444 1.893143 0
M  V30 10 C 6.886119 2.938581 1.833730 0
M  V30 11 C 7.942737 2.071708 2.471797 0
M  V30 12 O 6.061243 3.709698 1.298018 0
M  V30 13 C 4.123928 1.978411 0.115989 0
M  V30 14 C 2.929639 2.127035 -0.527700 0
M  V30 15 C 1.881873 2.598072 0.208013 0
M  V30 16 O 0.597482 2.885941 -0.044796 0
M  V30 17 C -0.180463 2.723699 -1.163294 0
M  V30 18 N -0.188072 2.160103 -2.426482 0
M  V30 19 C -1.341371 2.357908 -3.161082 0
M  V30 20 N -1.259261 1.650857 -4.401103 0
M  V30 21 C -1.844459 0.405360 -4.060948 0
M  V30 22 C -2.879060 0.185097 -3.183178 0
M  V30 23 C -3.501700 -0.980542 -2.711968 0
M  V30 24 C -2.907468 -2.129557 -3.290132 0
M  V30 25 N -3.455304 -3.404379 -2.810912 0
M  V30 26 C -4.312938 -3.225326 -1.623587 0
M  V30 27 C -4.477669 -4.441502 -0.814507 0
M  V30 28 N -4.404073 -5.672708 -1.613846 0
M  V30 29 C -5.511025 -5.702137 -2.521208 0
M  V30 30 C -3.124817 -5.692808 -2.301816 0
M  V30 31 C -3.167574 -4.681213 -3.475146 0
M  V30 32 C -1.828966 -2.155118 -4.225985 0
M  V30 33 C -1.483106 -0.846603 -4.446950 0
M  V30 34 N -2.424089 3.019360 -2.798213 0
M  V30 35 C -2.502470 3.614264 -1.559416 0
M  V30 36 C -1.351264 3.428451 -0.789400 0
M  V30 37 Cl -1.706497 4.253426 0.741247 0
M  V30 38 H 1.122795 -0.526925 2.918657 0
M  V30 39 H 1.132941 -0.541957 2.912172 0
M  V30 40 H -0.928947 1.192901 4.449109 0
M  V30 41 H 0.411165 3.780592 3.080070 0
M  V30 42 H 3.573093 2.946938 3.241935 0
M  V30 43 H 5.541049 0.990365 2.232481 0
M  V30 44 H 8.910949 2.653896 2.560237 0
M  V30 45 H 7.634172 1.962208 3.546565 0
M  V30 46 H 8.087669 1.119992 1.977727 0
M  V30 47 H 4.875568 1.616305 -0.594185 0
M  V30 48 H 2.640593 1.930886 -1.557203 0
M  V30 49 H -1.029487 1.549421 -5.399038 0
M  V30 50 H -3.376195 1.039484 -2.712344 0
M  V30 51 H -4.313632 -0.965527 -2.039036 0
M  V30 52 H -5.289987 -2.763661 -1.908740 0
M  V30 53 H -3.735874 -2.488493 -0.964273 0
M  V30 54 H -5.408243 -4.439076 -0.223024 0
M  V30 55 H -3.626733 -4.479427 -0.069622 0
M  V30 56 H -6.383598 -6.117687 -1.912935 0
M  V30 57 H -5.776948 -4.690497 -2.870115 0
M  V30 58 H -5.297369 -6.411288 -3.337334 0
M  V30 59 H -2.335386 -5.351882 -1.579754 0
M  V30 60 H -2.934414 -6.673597 -2.704389 0
M  V30 61 H -2.186705 -4.746656 -3.937772 0
M  V30 62 H -3.976520 -4.864852 -4.174054 0
M  V30 63 H -1.430987 -3.032311 -4.612363 0
M  V30 64 H -0.634301 -0.856292 -5.187395 0
M  V30 65 H -3.429809 4.110104 -1.407228 0
M  V30 END ATOM
M  V30 BEGIN BOND
M  V30 1 2 1 2
M  V30 2 1 2 3
M  V30 3 2 3 4
M  V30 4 1 3 5
M  V30 5 1 5 6
M  V30 6 2 6 7
M  V30 7 1 7 8
M  V30 8 1 8 9
M  V30 9 1 9 10
M  V30 10 1 10 11
M  V30 11 2 10 12
M  V30 12 2 8 13
M  V30 13 1 13 14
M  V30 14 2 14 15
M  V30 15 1 15 16
M  V30 16 1 16 17
M  V30 17 2 17 18
M  V30 18 1 18 19
M  V30 19 1 19 20
M  V30 20 1 20 21
M  V30 21 2 21 22
M  V30 22 1 22 23
M  V30 23 2 23 24
M  V30 24 1 24 25
M  V30 25 1 25 26
M  V30 26 1 26 27
M  V30 27 1 27 28
M  V30 28 1 28 29
M  V30 29 1 28 30
M  V30 30 1 30 31
M  V30 31 1 24 32
M  V30 32 2 32 33
M  V30 33 2 19 34
M  V30 34 1 34 35
M  V30 35 2 35 36
M  V30 36 1 36 37
M  V30 37 1 15 6
M  V30 38 1 36 17
M  V30 39 1 33 21
M  V30 40 1 31 25
M  V30 41 1 1 38
M  V30 42 1 1 39
M  V30 43 1 2 40
M  V30 44 1 5 41
M  V30 45 1 7 42
M  V30 46 1 9 43
M  V30 47 1 11 44
M  V30 48 1 11 45
M  V30 49 1 11 46
M  V30 50 1 13 47
M  V30 51 1 14 48
M  V30 52 1 20 49
M  V30 53 1 22 50
M  V30 54 1 23 51
M  V30 55 1 26 52
M  V30 56 1 26 53
M  V30 57 1 27 54
M  V30 58 1 27 55
M  V30 59 1 29 56
M  V30 60 1 29 57
M  V30 61 1 29 58
M  V30 62 1 30 59
M  V30 63 1 30 60
M  V30 64 1 31 61
M  V30 65 1 31 62
M  V30 66 1 32 63
M  V30 67 1 33 64
M  V30 68 1 35 65
M  V30 END BOND
M  V30 END CTAB
M  END
>  <Dataset>  (999) 
ChEMBL_Kinases

>  <Ligand_Instance>  (999) 
nan

>  <PDB_ID>  (999) 
nan

>  <Standardized_SMILES>  (999) 
C=CC(=O)Nc1cc(NC(C)=O)ccc1Oc1nc(Nc2ccc(N3CCN(C)CC3)cc2)ncc1Cl

>  <Name>  (999) 
nan

>  <Pocket>  (999) 
nan

>  <ATP_Site>  (999) 
nan

>  <Peripheral>  (999) 
nan

>  <Num_H_Atoms_ProtBoundConf>  (999) 
nan

>  <Num_Resolved_Atoms>  (999) 
nan

>  <Num_Not_Resolved_Atoms>  (999) 
nan

$$$$
