CHEMBL1773511
     RDKit          3D

  0  0  0  0  0  0  0  0  0  0999 V3000
M  V30 BEGIN CTAB
M  V30 COUNTS 50 52 0 0 0
M  V30 BEGIN ATOM
M  V30 1 C 2.312114 -2.641676 4.701271 0
M  V30 2 C 1.719452 -2.823013 3.291831 0
M  V30 3 C 0.598009 -1.849655 3.174305 0
M  V30 4 C 2.779747 -2.775697 2.250522 0 CFG=2
M  V30 5 C 3.509535 -1.439053 2.278700 0
M  V30 6 N 2.375717 -3.136206 0.927468 0
M  V30 7 C 1.619957 -2.508653 -0.089523 0
M  V30 8 C 1.175105 -1.212706 -0.074464 0
M  V30 9 C 0.426332 -0.606273 -1.058436 0
M  V30 10 C -0.028078 0.777746 -1.006354 0
M  V30 11 N 0.531239 1.992820 -0.946899 0
M  V30 12 C -0.437159 2.943145 -0.924036 0
M  V30 13 S 0.154949 4.587664 -0.844104 0 CHG=1 VAL=3
M  V30 14 C 0.314047 5.113938 0.845116 0
M  V30 15 O -0.893022 5.657860 -1.603582 0 CHG=-1 VAL=1
M  V30 16 N -1.626125 2.318292 -0.969984 0
M  V30 17 C -1.411906 0.974771 -1.021571 0
M  V30 18 C -2.540635 0.037636 -1.074833 0
M  V30 19 C -2.569504 -0.757442 0.076977 0
M  V30 20 C -3.543052 -1.722008 0.263190 0
M  V30 21 C -4.489450 -1.872338 -0.733438 0
M  V30 22 F -5.461143 -2.810528 -0.582314 0
M  V30 23 C -4.469994 -1.094572 -1.871457 0
M  V30 24 C -3.497149 -0.133116 -2.053935 0
M  V30 25 C 0.090659 -1.342445 -2.146306 0
M  V30 26 C 0.523911 -2.648732 -2.190234 0
M  V30 27 N 1.249534 -3.171723 -1.195203 0
M  V30 28 H 3.259135 -3.222397 4.723190 0
M  V30 29 H 2.498566 -1.557738 4.857745 0
M  V30 30 H 1.555731 -3.063017 5.395865 0
M  V30 31 H 1.349696 -3.886896 3.313847 0
M  V30 32 H -0.047831 -1.940951 4.088841 0
M  V30 33 H -0.083094 -2.132272 2.328792 0
M  V30 34 H 0.889545 -0.811460 3.041506 0
M  V30 35 H 3.567774 -3.516485 2.579043 0
M  V30 36 H 3.701485 -1.039182 1.262321 0
M  V30 37 H 4.476715 -1.518766 2.816102 0
M  V30 38 H 2.894772 -0.748232 2.873870 0
M  V30 39 H 2.720375 -4.106503 0.627958 0
M  V30 40 H 1.413731 -0.572618 0.750456 0
M  V30 41 H 1.580581 1.972132 -0.929932 0
M  V30 42 H -0.710214 5.438933 1.156952 0
M  V30 43 H 0.945531 6.021422 0.895036 0
M  V30 44 H 0.665290 4.286985 1.493539 0
M  V30 45 H -1.872853 -0.711868 0.908909 0
M  V30 46 H -3.618450 -2.358630 1.118109 0
M  V30 47 H -5.187964 -1.177121 -2.674904 0
M  V30 48 H -3.358625 0.538889 -2.879209 0
M  V30 49 H -0.482848 -1.032755 -2.999805 0
M  V30 50 H 0.331379 -3.360943 -3.001674 0
M  V30 END ATOM
M  V30 BEGIN BOND
M  V30 1 1 1 2
M  V30 2 1 2 3
M  V30 3 1 2 4
M  V30 4 1 4 5
M  V30 5 1 4 6
M  V30 6 1 6 7
M  V30 7 2 7 8
M  V30 8 1 8 9
M  V30 9 1 9 10
M  V30 10 1 10 11
M  V30 11 1 11 12
M  V30 12 1 12 13
M  V30 13 1 13 14
M  V30 14 1 13 15 CFG=3
M  V30 15 2 12 16
M  V30 16 1 16 17
M  V30 17 1 17 18
M  V30 18 2 18 19
M  V30 19 1 19 20
M  V30 20 2 20 21
M  V30 21 1 21 22
M  V30 22 1 21 23
M  V30 23 2 23 24
M  V30 24 2 9 25
M  V30 25 1 25 26
M  V30 26 2 26 27
M  V30 27 1 27 7
M  V30 28 2 17 10
M  V30 29 1 24 18
M  V30 30 1 1 28
M  V30 31 1 1 29
M  V30 32 1 1 30
M  V30 33 1 2 31
M  V30 34 1 3 32
M  V30 35 1 3 33
M  V30 36 1 3 34
M  V30 37 1 4 35 CFG=1
M  V30 38 1 5 36
M  V30 39 1 5 37
M  V30 40 1 5 38
M  V30 41 1 6 39
M  V30 42 1 8 40
M  V30 43 1 11 41
M  V30 44 1 14 42
M  V30 45 1 14 43
M  V30 46 1 14 44
M  V30 47 1 19 45
M  V30 48 1 20 46
M  V30 49 1 23 47
M  V30 50 1 24 48
M  V30 51 1 25 49
M  V30 52 1 26 50
M  V30 END BOND
M  V30 END CTAB
M  END
>  <Dataset>  (1) 
ChEMBL_Kinases

>  <Ligand_Instance>  (1) 
nan

>  <PDB_ID>  (1) 
nan

>  <Standardized_SMILES>  (1) 
CC(C)[C@H](C)Nc1cc(-c2[nH]c([S@+](C)[O-])nc2-c2ccc(F)cc2)ccn1

>  <Name>  (1) 
nan

>  <Pocket>  (1) 
nan

>  <ATP_Site>  (1) 
nan

>  <Peripheral>  (1) 
nan

>  <Num_H_Atoms_ProtBoundConf>  (1) 
nan

>  <Num_Resolved_Atoms>  (1) 
nan

>  <Num_Not_Resolved_Atoms>  (1) 
nan

$$$$
CHEMBL1773510
     RDKit          3D

  0  0  0  0  0  0  0  0  0  0999 V3000
M  V30 BEGIN CTAB
M  V30 COUNTS 50 52 0 0 0
M  V30 BEGIN ATOM
M  V30 1 C -3.772211 -1.489723 -3.366700 0
M  V30 2 C -2.599221 -0.606302 -3.003125 0
M  V30 3 C -3.151779 0.796563 -2.802907 0
M  V30 4 C -1.574467 -0.606247 -4.136194 0 CFG=2
M  V30 5 C -1.065749 -2.008660 -4.384229 0
M  V30 6 N -0.438149 0.218808 -3.867405 0
M  V30 7 C 0.648466 0.187404 -2.953924 0
M  V30 8 C 0.546470 0.380829 -1.608793 0
M  V30 9 C 1.612511 0.369500 -0.682986 0
M  V30 10 C 1.075991 0.613060 0.655232 0
M  V30 11 N 1.004282 1.732634 1.434263 0
M  V30 12 C 0.356434 1.403596 2.554948 0
M  V30 13 S 0.132399 2.731021 3.714188 0 CHG=1 VAL=3
M  V30 14 C -1.110808 3.845139 3.036478 0
M  V30 15 O -0.581189 2.091361 5.133155 0 CHG=-1 VAL=1
M  V30 16 N 0.008278 0.092528 2.518592 0
M  V30 17 C 0.447791 -0.437250 1.337485 0
M  V30 18 C 0.269034 -1.833726 0.953038 0
M  V30 19 C -0.856749 -2.582556 0.703944 0
M  V30 20 C -0.829400 -3.897219 0.361726 0
M  V30 21 C 0.353327 -4.591782 0.236507 0
M  V30 22 F 0.296103 -5.896484 -0.105837 0
M  V30 23 C 1.496000 -3.871012 0.479598 0
M  V30 24 C 1.464842 -2.520366 0.830692 0
M  V30 25 C 2.858113 0.138136 -1.221031 0
M  V30 26 C 2.970598 -0.061211 -2.579879 0
M  V30 27 N 1.917720 -0.039608 -3.421526 0
M  V30 28 H -4.656776 -1.235588 -2.713215 0
M  V30 29 H -3.584095 -2.578498 -3.157546 0
M  V30 30 H -3.972114 -1.413868 -4.439282 0
M  V30 31 H -2.201517 -0.967463 -2.055432 0
M  V30 32 H -3.047165 1.317460 -3.788350 0
M  V30 33 H -2.635238 1.352131 -2.008365 0
M  V30 34 H -4.226201 0.707732 -2.558961 0
M  V30 35 H -2.076107 -0.179270 -5.018880 0
M  V30 36 H -1.849412 -2.559191 -4.942710 0
M  V30 37 H -0.119913 -1.924509 -4.930379 0
M  V30 38 H -0.916973 -2.481653 -3.377320 0
M  V30 39 H -0.244752 1.110378 -4.415668 0
M  V30 40 H -0.491374 0.552868 -1.345486 0
M  V30 41 H 1.453905 2.574163 1.008057 0
M  V30 42 H -1.759033 4.174443 3.869736 0
M  V30 43 H -1.742148 3.357122 2.285014 0
M  V30 44 H -0.617770 4.746829 2.609431 0
M  V30 45 H -1.760126 -1.981567 0.815491 0
M  V30 46 H -1.774125 -4.405009 0.183503 0
M  V30 47 H 2.400950 -4.484905 0.360862 0
M  V30 48 H 2.445462 -2.108261 0.979323 0
M  V30 49 H 3.586773 0.154561 -0.428854 0
M  V30 50 H 3.993801 -0.232596 -2.894793 0
M  V30 END ATOM
M  V30 BEGIN BOND
M  V30 1 1 1 2
M  V30 2 1 2 3
M  V30 3 1 2 4
M  V30 4 1 4 5
M  V30 5 1 4 6
M  V30 6 1 6 7
M  V30 7 2 7 8
M  V30 8 1 8 9
M  V30 9 1 9 10
M  V30 10 1 10 11
M  V30 11 1 11 12
M  V30 12 1 12 13
M  V30 13 1 13 14
M  V30 14 1 13 15 CFG=1
M  V30 15 2 12 16
M  V30 16 1 16 17
M  V30 17 1 17 18
M  V30 18 2 18 19
M  V30 19 1 19 20
M  V30 20 2 20 21
M  V30 21 1 21 22
M  V30 22 1 21 23
M  V30 23 2 23 24
M  V30 24 2 9 25
M  V30 25 1 25 26
M  V30 26 2 26 27
M  V30 27 1 27 7
M  V30 28 2 17 10
M  V30 29 1 24 18
M  V30 30 1 1 28
M  V30 31 1 1 29
M  V30 32 1 1 30
M  V30 33 1 2 31
M  V30 34 1 3 32
M  V30 35 1 3 33
M  V30 36 1 3 34
M  V30 37 1 4 35 CFG=3
M  V30 38 1 5 36
M  V30 39 1 5 37
M  V30 40 1 5 38
M  V30 41 1 6 39
M  V30 42 1 8 40
M  V30 43 1 11 41
M  V30 44 1 14 42
M  V30 45 1 14 43
M  V30 46 1 14 44
M  V30 47 1 19 45
M  V30 48 1 20 46
M  V30 49 1 23 47
M  V30 50 1 24 48
M  V30 51 1 25 49
M  V30 52 1 26 50
M  V30 END BOND
M  V30 END CTAB
M  END
>  <Dataset>  (2) 
ChEMBL_Kinases

>  <Ligand_Instance>  (2) 
nan

>  <PDB_ID>  (2) 
nan

>  <Standardized_SMILES>  (2) 
CC(C)[C@H](C)Nc1cc(-c2[nH]c([S@@+](C)[O-])nc2-c2ccc(F)cc2)ccn1

>  <Name>  (2) 
nan

>  <Pocket>  (2) 
nan

>  <ATP_Site>  (2) 
nan

>  <Peripheral>  (2) 
nan

>  <Num_H_Atoms_ProtBoundConf>  (2) 
nan

>  <Num_Resolved_Atoms>  (2) 
nan

>  <Num_Not_Resolved_Atoms>  (2) 
nan

$$$$
CHEMBL1773509
     RDKit          3D

  0  0  0  0  0  0  0  0  0  0999 V3000
M  V30 BEGIN CTAB
M  V30 COUNTS 50 52 0 0 0
M  V30 BEGIN ATOM
M  V30 1 C 0.661862 -3.525644 3.759111 0
M  V30 2 C 1.173021 -2.533548 2.722010 0
M  V30 3 C 1.372974 -1.216635 3.387706 0
M  V30 4 C 2.442257 -3.068728 2.105635 0 CFG=2
M  V30 5 C 3.464592 -3.252959 3.176753 0
M  V30 6 N 2.886659 -2.240911 1.021734 0
M  V30 7 C 2.040075 -2.000282 -0.094097 0
M  V30 8 C 1.295678 -0.815258 -0.140458 0
M  V30 9 C 0.421556 -0.457123 -1.172272 0
M  V30 10 C -0.262695 0.848048 -1.038740 0
M  V30 11 N 0.552316 1.910248 -1.194974 0
M  V30 12 C -0.206940 3.034095 -1.053473 0
M  V30 13 S 0.286585 4.713999 -1.160841 0 CHG=1 VAL=3
M  V30 14 C 0.861309 5.308775 0.434998 0
M  V30 15 O -1.064451 5.650795 -1.531111 0 CHG=-1 VAL=1
M  V30 16 N -1.481210 2.631929 -0.811848 0
M  V30 17 C -1.547757 1.293998 -0.796548 0
M  V30 18 C -2.522463 0.240847 -0.612665 0
M  V30 19 C -2.511414 -0.739865 0.352308 0
M  V30 20 C -3.530763 -1.673321 0.387881 0
M  V30 21 C -4.589028 -1.683071 -0.509487 0
M  V30 22 F -5.568637 -2.600528 -0.455727 0
M  V30 23 C -4.602536 -0.699675 -1.478392 0
M  V30 24 C -3.591131 0.216683 -1.504891 0
M  V30 25 C 0.305695 -1.361344 -2.208142 0
M  V30 26 C 1.039710 -2.527156 -2.159001 0
M  V30 27 N 1.870636 -2.831328 -1.144522 0
M  V30 28 H 1.117211 -3.336937 4.737432 0
M  V30 29 H -0.430609 -3.494384 3.748989 0
M  V30 30 H 0.935629 -4.535728 3.346842 0
M  V30 31 H 0.364889 -2.466189 1.935453 0
M  V30 32 H 1.329069 -1.338434 4.489264 0
M  V30 33 H 0.538843 -0.495990 3.147044 0
M  V30 34 H 2.296000 -0.675399 3.099990 0
M  V30 35 H 2.226727 -4.080236 1.655969 0
M  V30 36 H 4.493016 -3.006645 2.846442 0
M  V30 37 H 3.465537 -4.313927 3.494657 0
M  V30 38 H 3.277385 -2.647988 4.083629 0
M  V30 39 H 3.821797 -1.784895 0.992560 0
M  V30 40 H 1.416871 -0.121278 0.705863 0
M  V30 41 H 1.574351 2.045775 -1.387305 0
M  V30 42 H 1.880502 4.856543 0.615258 0
M  V30 43 H 0.209510 4.899329 1.234199 0
M  V30 44 H 0.908696 6.402191 0.408348 0
M  V30 45 H -1.676012 -0.712600 1.040421 0
M  V30 46 H -3.507920 -2.438301 1.151680 0
M  V30 47 H -5.418016 -0.702024 -2.173829 0
M  V30 48 H -3.669582 0.966909 -2.300840 0
M  V30 49 H -0.375783 -1.060825 -2.992298 0
M  V30 50 H 0.927511 -3.222448 -2.991451 0
M  V30 END ATOM
M  V30 BEGIN BOND
M  V30 1 1 1 2
M  V30 2 1 2 3
M  V30 3 1 2 4
M  V30 4 1 4 5
M  V30 5 1 4 6
M  V30 6 1 6 7
M  V30 7 2 7 8
M  V30 8 1 8 9
M  V30 9 1 9 10
M  V30 10 1 10 11
M  V30 11 1 11 12
M  V30 12 1 12 13
M  V30 13 1 13 14
M  V30 14 1 13 15
M  V30 15 2 12 16
M  V30 16 1 16 17
M  V30 17 1 17 18
M  V30 18 2 18 19
M  V30 19 1 19 20
M  V30 20 2 20 21
M  V30 21 1 21 22
M  V30 22 1 21 23
M  V30 23 2 23 24
M  V30 24 2 9 25
M  V30 25 1 25 26
M  V30 26 2 26 27
M  V30 27 1 27 7
M  V30 28 2 17 10
M  V30 29 1 24 18
M  V30 30 1 1 28
M  V30 31 1 1 29
M  V30 32 1 1 30
M  V30 33 1 2 31
M  V30 34 1 3 32
M  V30 35 1 3 33
M  V30 36 1 3 34
M  V30 37 1 4 35 CFG=3
M  V30 38 1 5 36
M  V30 39 1 5 37
M  V30 40 1 5 38
M  V30 41 1 6 39
M  V30 42 1 8 40
M  V30 43 1 11 41
M  V30 44 1 14 42
M  V30 45 1 14 43
M  V30 46 1 14 44
M  V30 47 1 19 45
M  V30 48 1 20 46
M  V30 49 1 23 47
M  V30 50 1 24 48
M  V30 51 1 25 49
M  V30 52 1 26 50
M  V30 END BOND
M  V30 END CTAB
M  END
>  <Dataset>  (3) 
ChEMBL_Kinases

>  <Ligand_Instance>  (3) 
nan

>  <PDB_ID>  (3) 
nan

>  <Standardized_SMILES>  (3) 
CC(C)[C@H](C)Nc1cc(-c2[nH]c([S+](C)[O-])nc2-c2ccc(F)cc2)ccn1

>  <Name>  (3) 
nan

>  <Pocket>  (3) 
nan

>  <ATP_Site>  (3) 
nan

>  <Peripheral>  (3) 
nan

>  <Num_H_Atoms_ProtBoundConf>  (3) 
nan

>  <Num_Resolved_Atoms>  (3) 
nan

>  <Num_Not_Resolved_Atoms>  (3) 
nan

$$$$
CHEMBL1773508
     RDKit          3D

  0  0  0  0  0  0  0  0  0  0999 V3000
M  V30 BEGIN CTAB
M  V30 COUNTS 49 51 0 0 0
M  V30 BEGIN ATOM
M  V30 1 C 1.337144 -6.659041 0.277604 0
M  V30 2 S 2.127508 -5.630995 -0.994392 0
M  V30 3 C 1.368722 -3.997693 -1.030213 0
M  V30 4 N 1.782871 -3.043519 -1.890266 0
M  V30 5 C 1.018925 -1.933395 -1.669518 0
M  V30 6 C 1.097661 -0.650281 -2.356925 0
M  V30 7 C 0.826598 -0.806569 -3.718841 0
M  V30 8 C 0.838619 0.267616 -4.594039 0
M  V30 9 C 1.130264 1.523856 -4.082842 0
M  V30 10 F 1.148484 2.589237 -4.917316 0
M  V30 11 C 1.396424 1.676680 -2.745340 0
M  V30 12 C 1.384942 0.608527 -1.871989 0
M  V30 13 C 0.134791 -2.259107 -0.647777 0
M  V30 14 C -0.867349 -1.354579 -0.094588 0
M  V30 15 C -1.889107 -0.844053 -0.863965 0
M  V30 16 C -2.848762 0.011384 -0.366652 0
M  V30 17 N -2.811234 0.385439 0.936660 0
M  V30 18 C -1.822934 -0.086209 1.752496 0
M  V30 19 N -1.805425 0.322546 3.122597 0
M  V30 20 C -1.291185 1.329933 3.990860 0 CFG=1
M  V30 21 C -1.769488 1.022741 5.394201 0
M  V30 22 C 0.208243 1.488188 3.966034 0
M  V30 23 C 0.938620 0.242446 4.362049 0
M  V30 24 C 0.729226 2.004309 2.674152 0
M  V30 25 C -0.878303 -0.940458 1.223142 0
M  V30 26 N 0.355468 -3.525982 -0.261356 0
M  V30 27 H 1.862129 -6.421481 1.242250 0
M  V30 28 H 1.514494 -7.735793 0.089912 0
M  V30 29 H 0.260853 -6.440821 0.391319 0
M  V30 30 H 0.584321 -1.747052 -4.234443 0
M  V30 31 H 0.635403 0.190224 -5.650658 0
M  V30 32 H 1.629149 2.632620 -2.297632 0
M  V30 33 H 1.573683 0.594186 -0.815939 0
M  V30 34 H -1.961899 -1.114912 -1.915583 0
M  V30 35 H -3.657712 0.420489 -0.960434 0
M  V30 36 H -2.405149 -0.476023 3.461756 0
M  V30 37 H -1.725974 2.299668 3.672457 0
M  V30 38 H -2.865323 0.764472 5.311198 0
M  V30 39 H -1.279086 0.150256 5.830793 0
M  V30 40 H -1.744817 1.935448 6.020884 0
M  V30 41 H 0.449474 2.247953 4.765956 0
M  V30 42 H 0.340865 -0.685774 4.153771 0
M  V30 43 H 1.263126 0.257592 5.438261 0
M  V30 44 H 1.862464 0.171597 3.753743 0
M  V30 45 H 1.381416 2.885031 2.839617 0
M  V30 46 H 1.352703 1.226155 2.190878 0
M  V30 47 H -0.079413 2.372390 2.004717 0
M  V30 48 H -0.099359 -1.308701 1.878745 0
M  V30 49 H -0.139170 -4.065994 0.480256 0
M  V30 END ATOM
M  V30 BEGIN BOND
M  V30 1 1 1 2
M  V30 2 1 2 3
M  V30 3 2 3 4
M  V30 4 1 4 5
M  V30 5 1 5 6
M  V30 6 2 6 7
M  V30 7 1 7 8
M  V30 8 2 8 9
M  V30 9 1 9 10
M  V30 10 1 9 11
M  V30 11 2 11 12
M  V30 12 2 5 13
M  V30 13 1 13 14
M  V30 14 2 14 15
M  V30 15 1 15 16
M  V30 16 2 16 17
M  V30 17 1 17 18
M  V30 18 1 18 19
M  V30 19 1 19 20
M  V30 20 1 20 21
M  V30 21 1 20 22
M  V30 22 1 22 23
M  V30 23 1 22 24
M  V30 24 2 18 25
M  V30 25 1 13 26
M  V30 26 1 26 3
M  V30 27 1 12 6
M  V30 28 1 25 14
M  V30 29 1 1 27
M  V30 30 1 1 28
M  V30 31 1 1 29
M  V30 32 1 7 30
M  V30 33 1 8 31
M  V30 34 1 11 32
M  V30 35 1 12 33
M  V30 36 1 15 34
M  V30 37 1 16 35
M  V30 38 1 19 36
M  V30 39 1 20 37 CFG=3
M  V30 40 1 21 38
M  V30 41 1 21 39
M  V30 42 1 21 40
M  V30 43 1 22 41
M  V30 44 1 23 42
M  V30 45 1 23 43
M  V30 46 1 23 44
M  V30 47 1 24 45
M  V30 48 1 24 46
M  V30 49 1 24 47
M  V30 50 1 25 48
M  V30 51 1 26 49
M  V30 END BOND
M  V30 END CTAB
M  END
>  <Dataset>  (4) 
ChEMBL_Kinases

>  <Ligand_Instance>  (4) 
nan

>  <PDB_ID>  (4) 
nan

>  <Standardized_SMILES>  (4) 
CSc1nc(-c2ccc(F)cc2)c(-c2ccnc(N[C@@H](C)C(C)C)c2)[nH]1

>  <Name>  (4) 
nan

>  <Pocket>  (4) 
nan

>  <ATP_Site>  (4) 
nan

>  <Peripheral>  (4) 
nan

>  <Num_H_Atoms_ProtBoundConf>  (4) 
nan

>  <Num_Resolved_Atoms>  (4) 
nan

>  <Num_Not_Resolved_Atoms>  (4) 
nan

$$$$
CHEMBL1773507
     RDKit          3D

  0  0  0  0  0  0  0  0  0  0999 V3000
M  V30 BEGIN CTAB
M  V30 COUNTS 49 52 0 0 0
M  V30 BEGIN ATOM
M  V30 1 C 5.472913 -1.163676 4.585073 0
M  V30 2 S 5.502307 -1.905313 2.971019 0 CHG=1 VAL=3
M  V30 3 O 6.940768 -1.477013 2.230787 0 CHG=-1 VAL=1
M  V30 4 C 4.191824 -1.209996 2.038190 0
M  V30 5 N 4.256647 -0.129743 1.243136 0
M  V30 6 C 3.067318 0.106755 0.694475 0
M  V30 7 C 2.663981 1.159204 -0.228206 0
M  V30 8 C 1.773074 2.204386 -0.093277 0
M  V30 9 C 1.569347 3.075485 -1.142852 0
M  V30 10 C 2.243343 2.924324 -2.337207 0
M  V30 11 F 2.004690 3.809283 -3.333964 0
M  V30 12 C 3.140288 1.886647 -2.497143 0
M  V30 13 C 3.346433 1.005084 -1.435557 0
M  V30 14 C 2.185259 -0.831339 1.128275 0
M  V30 15 C 0.799359 -1.143348 0.933471 0
M  V30 16 C 0.584654 -2.379804 0.310770 0
M  V30 17 C -0.688179 -2.830811 0.056451 0
M  V30 18 N -1.726600 -2.082334 0.406856 0
M  V30 19 C -1.601364 -0.886076 1.007418 0
M  V30 20 N -2.741597 -0.121912 1.365972 0
M  V30 21 C -4.053959 -0.654136 1.069442 0
M  V30 22 C -4.321678 -1.970656 1.688714 0
M  V30 23 C -4.891962 -3.037743 0.858170 0
M  V30 24 O -5.699292 -2.694458 -0.175901 0
M  V30 25 C -5.604563 -1.440462 -0.683132 0
M  V30 26 C -4.323187 -0.721937 -0.391749 0
M  V30 27 C -0.330021 -0.428148 1.265107 0
M  V30 28 N 2.931087 -1.623639 1.958116 0
M  V30 29 H 6.454271 -1.288902 5.079764 0
M  V30 30 H 5.176905 -0.097637 4.500380 0
M  V30 31 H 4.648478 -1.648242 5.170324 0
M  V30 32 H 1.321050 2.203497 0.888043 0
M  V30 33 H 0.852788 3.860172 -0.938527 0
M  V30 34 H 3.637018 1.820950 -3.455226 0
M  V30 35 H 4.079856 0.238026 -1.705750 0
M  V30 36 H 1.385694 -3.044105 -0.002880 0
M  V30 37 H -0.911406 -3.780076 -0.422723 0
M  V30 38 H -2.577684 0.813814 1.839392 0
M  V30 39 H -4.769138 0.099765 1.524413 0
M  V30 40 H -3.360023 -2.332327 2.170756 0
M  V30 41 H -4.981074 -1.806293 2.592576 0
M  V30 42 H -5.479034 -3.738170 1.525204 0
M  V30 43 H -4.067133 -3.679296 0.458656 0
M  V30 44 H -6.421288 -0.827026 -0.246704 0
M  V30 45 H -5.765170 -1.449994 -1.778102 0
M  V30 46 H -4.327603 0.316883 -0.791571 0
M  V30 47 H -3.492919 -1.236544 -0.906467 0
M  V30 48 H -0.128806 0.510820 1.740483 0
M  V30 49 H 2.627229 -2.481392 2.511109 0
M  V30 END ATOM
M  V30 BEGIN BOND
M  V30 1 1 1 2
M  V30 2 1 2 3 CFG=3
M  V30 3 1 2 4
M  V30 4 2 4 5
M  V30 5 1 5 6
M  V30 6 1 6 7
M  V30 7 2 7 8
M  V30 8 1 8 9
M  V30 9 2 9 10
M  V30 10 1 10 11
M  V30 11 1 10 12
M  V30 12 2 12 13
M  V30 13 2 6 14
M  V30 14 1 14 15
M  V30 15 2 15 16
M  V30 16 1 16 17
M  V30 17 2 17 18
M  V30 18 1 18 19
M  V30 19 1 19 20
M  V30 20 1 20 21
M  V30 21 1 21 22
M  V30 22 1 22 23
M  V30 23 1 23 24
M  V30 24 1 24 25
M  V30 25 1 25 26
M  V30 26 2 19 27
M  V30 27 1 14 28
M  V30 28 1 28 4
M  V30 29 1 13 7
M  V30 30 1 27 15
M  V30 31 1 26 21
M  V30 32 1 1 29
M  V30 33 1 1 30
M  V30 34 1 1 31
M  V30 35 1 8 32
M  V30 36 1 9 33
M  V30 37 1 12 34
M  V30 38 1 13 35
M  V30 39 1 16 36
M  V30 40 1 17 37
M  V30 41 1 20 38
M  V30 42 1 21 39
M  V30 43 1 22 40
M  V30 44 1 22 41
M  V30 45 1 23 42
M  V30 46 1 23 43
M  V30 47 1 25 44
M  V30 48 1 25 45
M  V30 49 1 26 46
M  V30 50 1 26 47
M  V30 51 1 27 48
M  V30 52 1 28 49
M  V30 END BOND
M  V30 END CTAB
M  END
>  <Dataset>  (5) 
ChEMBL_Kinases

>  <Ligand_Instance>  (5) 
nan

>  <PDB_ID>  (5) 
nan

>  <Standardized_SMILES>  (5) 
C[S@+]([O-])c1nc(-c2ccc(F)cc2)c(-c2ccnc(NC3CCOCC3)c2)[nH]1

>  <Name>  (5) 
nan

>  <Pocket>  (5) 
nan

>  <ATP_Site>  (5) 
nan

>  <Peripheral>  (5) 
nan

>  <Num_H_Atoms_ProtBoundConf>  (5) 
nan

>  <Num_Resolved_Atoms>  (5) 
nan

>  <Num_Not_Resolved_Atoms>  (5) 
nan

$$$$
CHEMBL1773506
     RDKit          3D

  0  0  0  0  0  0  0  0  0  0999 V3000
M  V30 BEGIN CTAB
M  V30 COUNTS 49 52 0 0 0
M  V30 BEGIN ATOM
M  V30 1 C 4.235040 3.466604 4.449511 0
M  V30 2 S 4.891453 2.145864 3.455848 0 CHG=1 VAL=3
M  V30 3 O 5.417299 0.908038 4.481586 0 CHG=-1 VAL=1
M  V30 4 C 3.692274 1.458706 2.388116 0
M  V30 5 N 3.402629 1.843975 1.134434 0
M  V30 6 C 2.414912 1.069192 0.631734 0
M  V30 7 C 1.830686 1.191321 -0.696618 0
M  V30 8 C 0.543181 1.624002 -0.940750 0
M  V30 9 C 0.006263 1.726518 -2.216795 0
M  V30 10 C 0.769177 1.387967 -3.313813 0
M  V30 11 F 0.143918 1.525980 -4.505311 0
M  V30 12 C 2.061151 0.952082 -3.099095 0
M  V30 13 C 2.572282 0.859141 -1.812153 0
M  V30 14 C 2.062727 0.164095 1.586769 0
M  V30 15 C 1.084370 -0.887157 1.587046 0
M  V30 16 C 1.689081 -2.143022 1.733140 0
M  V30 17 C 0.916428 -3.305495 1.757983 0
M  V30 18 N -0.412049 -3.165254 1.636722 0
M  V30 19 C -1.039608 -1.992198 1.494900 0
M  V30 20 N -2.452187 -1.914470 1.368775 0
M  V30 21 C -3.270365 -3.100602 1.386155 0
M  V30 22 C -2.869047 -4.005412 0.241390 0
M  V30 23 C -2.828288 -3.141843 -1.008267 0
M  V30 24 O -3.430830 -1.918161 -0.811371 0
M  V30 25 C -4.688587 -1.971510 -0.255416 0
M  V30 26 C -4.721040 -2.697713 1.085400 0
M  V30 27 C -0.286505 -0.851590 1.470548 0
M  V30 28 N 2.868542 0.431525 2.656015 0
M  V30 29 H 3.829950 3.069110 5.405433 0
M  V30 30 H 5.049434 4.180372 4.685133 0
M  V30 31 H 3.420861 3.955035 3.871700 0
M  V30 32 H -0.085404 1.902328 -0.107454 0
M  V30 33 H -1.030064 2.081110 -2.306907 0
M  V30 34 H 2.595072 0.706441 -4.006699 0
M  V30 35 H 3.596283 0.509276 -1.708990 0
M  V30 36 H 2.766207 -2.338716 1.837730 0
M  V30 37 H 1.365706 -4.291371 1.871107 0
M  V30 38 H -2.905765 -0.962384 1.260743 0
M  V30 39 H -3.197381 -3.615652 2.367819 0
M  V30 40 H -1.931706 -4.530747 0.436141 0
M  V30 41 H -3.705507 -4.760150 0.167773 0
M  V30 42 H -1.763764 -2.953588 -1.254146 0
M  V30 43 H -3.316175 -3.663893 -1.864398 0
M  V30 44 H -5.011767 -0.913565 -0.104723 0
M  V30 45 H -5.435269 -2.424581 -0.949520 0
M  V30 46 H -5.162924 -2.092049 1.884444 0
M  V30 47 H -5.268927 -3.661214 0.928204 0
M  V30 48 H -0.674503 0.130181 1.366014 0
M  V30 49 H 2.855637 -0.093973 3.579712 0
M  V30 END ATOM
M  V30 BEGIN BOND
M  V30 1 1 1 2
M  V30 2 1 2 3 CFG=1
M  V30 3 1 2 4
M  V30 4 2 4 5
M  V30 5 1 5 6
M  V30 6 1 6 7
M  V30 7 2 7 8
M  V30 8 1 8 9
M  V30 9 2 9 10
M  V30 10 1 10 11
M  V30 11 1 10 12
M  V30 12 2 12 13
M  V30 13 2 6 14
M  V30 14 1 14 15
M  V30 15 2 15 16
M  V30 16 1 16 17
M  V30 17 2 17 18
M  V30 18 1 18 19
M  V30 19 1 19 20
M  V30 20 1 20 21
M  V30 21 1 21 22
M  V30 22 1 22 23
M  V30 23 1 23 24
M  V30 24 1 24 25
M  V30 25 1 25 26
M  V30 26 2 19 27
M  V30 27 1 14 28
M  V30 28 1 28 4
M  V30 29 1 13 7
M  V30 30 1 27 15
M  V30 31 1 26 21
M  V30 32 1 1 29
M  V30 33 1 1 30
M  V30 34 1 1 31
M  V30 35 1 8 32
M  V30 36 1 9 33
M  V30 37 1 12 34
M  V30 38 1 13 35
M  V30 39 1 16 36
M  V30 40 1 17 37
M  V30 41 1 20 38
M  V30 42 1 21 39
M  V30 43 1 22 40
M  V30 44 1 22 41
M  V30 45 1 23 42
M  V30 46 1 23 43
M  V30 47 1 25 44
M  V30 48 1 25 45
M  V30 49 1 26 46
M  V30 50 1 26 47
M  V30 51 1 27 48
M  V30 52 1 28 49
M  V30 END BOND
M  V30 END CTAB
M  END
>  <Dataset>  (6) 
ChEMBL_Kinases

>  <Ligand_Instance>  (6) 
nan

>  <PDB_ID>  (6) 
nan

>  <Standardized_SMILES>  (6) 
C[S@@+]([O-])c1nc(-c2ccc(F)cc2)c(-c2ccnc(NC3CCOCC3)c2)[nH]1

>  <Name>  (6) 
nan

>  <Pocket>  (6) 
nan

>  <ATP_Site>  (6) 
nan

>  <Peripheral>  (6) 
nan

>  <Num_H_Atoms_ProtBoundConf>  (6) 
nan

>  <Num_Resolved_Atoms>  (6) 
nan

>  <Num_Not_Resolved_Atoms>  (6) 
nan

$$$$
CHEMBL1773505
     RDKit          3D

  0  0  0  0  0  0  0  0  0  0999 V3000
M  V30 BEGIN CTAB
M  V30 COUNTS 49 52 0 0 0
M  V30 BEGIN ATOM
M  V30 1 C 5.423173 -4.376221 3.209685 0
M  V30 2 S 4.562264 -4.396654 1.655778 0 CHG=1 VAL=3
M  V30 3 O 5.719909 -4.357807 0.438428 0 CHG=-1 VAL=1
M  V30 4 C 3.488137 -3.021632 1.513878 0
M  V30 5 N 3.909295 -1.852734 0.990779 0
M  V30 6 C 2.925259 -0.939061 0.975911 0
M  V30 7 C 2.903731 0.441633 0.513717 0
M  V30 8 C 1.997343 0.571696 -0.542329 0
M  V30 9 C 1.777078 1.792074 -1.174775 0
M  V30 10 C 2.489404 2.890185 -0.724216 0
M  V30 11 F 2.325370 4.097815 -1.290213 0
M  V30 12 C 3.382905 2.755932 0.318646 0
M  V30 13 C 3.597248 1.547160 0.940573 0
M  V30 14 C 1.840371 -1.610373 1.529253 0
M  V30 15 C 0.519863 -0.987533 1.714124 0
M  V30 16 C 0.406716 0.091472 2.580657 0
M  V30 17 C -0.826764 0.673679 2.749678 0
M  V30 18 N -1.873860 0.174948 2.069213 0
M  V30 19 C -1.778767 -0.868599 1.227099 0
M  V30 20 N -2.916188 -1.355359 0.530892 0
M  V30 21 C -4.212137 -0.737901 0.705212 0
M  V30 22 C -4.169509 0.736985 0.286427 0
M  V30 23 C -3.591560 0.746575 -1.112121 0
M  V30 24 O -4.429573 0.088524 -1.987330 0
M  V30 25 C -4.719868 -1.213602 -1.662011 0
M  V30 26 C -5.238735 -1.363787 -0.244517 0
M  V30 27 C -0.548722 -1.485977 1.028146 0
M  V30 28 N 2.187262 -2.867877 1.852176 0
M  V30 29 H 6.487429 -4.631403 3.077119 0
M  V30 30 H 5.351391 -3.311720 3.580310 0
M  V30 31 H 4.916533 -4.981719 3.975946 0
M  V30 32 H 1.374423 -0.212446 -0.992811 0
M  V30 33 H 1.104945 1.960163 -1.980294 0
M  V30 34 H 3.960088 3.579607 0.704864 0
M  V30 35 H 4.259722 1.313300 1.754677 0
M  V30 36 H 1.244374 0.503425 3.135355 0
M  V30 37 H -1.044218 1.528964 3.404833 0
M  V30 38 H -2.833082 -2.167672 -0.118341 0
M  V30 39 H -4.613315 -0.855959 1.729016 0
M  V30 40 H -3.609966 1.366485 0.974560 0
M  V30 41 H -5.255897 1.027041 0.230755 0
M  V30 42 H -2.565699 0.319057 -1.080391 0
M  V30 43 H -3.540165 1.806435 -1.494994 0
M  V30 44 H -5.550603 -1.528188 -2.340641 0
M  V30 45 H -3.895524 -1.936394 -1.841358 0
M  V30 46 H -5.429219 -2.418721 -0.044466 0
M  V30 47 H -6.130264 -0.702640 -0.159564 0
M  V30 48 H -0.408817 -2.327970 0.364709 0
M  V30 49 H 1.621119 -3.610654 2.273558 0
M  V30 END ATOM
M  V30 BEGIN BOND
M  V30 1 1 1 2
M  V30 2 1 2 3
M  V30 3 1 2 4
M  V30 4 2 4 5
M  V30 5 1 5 6
M  V30 6 1 6 7
M  V30 7 2 7 8
M  V30 8 1 8 9
M  V30 9 2 9 10
M  V30 10 1 10 11
M  V30 11 1 10 12
M  V30 12 2 12 13
M  V30 13 2 6 14
M  V30 14 1 14 15
M  V30 15 2 15 16
M  V30 16 1 16 17
M  V30 17 2 17 18
M  V30 18 1 18 19
M  V30 19 1 19 20
M  V30 20 1 20 21
M  V30 21 1 21 22
M  V30 22 1 22 23
M  V30 23 1 23 24
M  V30 24 1 24 25
M  V30 25 1 25 26
M  V30 26 2 19 27
M  V30 27 1 14 28
M  V30 28 1 28 4
M  V30 29 1 13 7
M  V30 30 1 27 15
M  V30 31 1 26 21
M  V30 32 1 1 29
M  V30 33 1 1 30
M  V30 34 1 1 31
M  V30 35 1 8 32
M  V30 36 1 9 33
M  V30 37 1 12 34
M  V30 38 1 13 35
M  V30 39 1 16 36
M  V30 40 1 17 37
M  V30 41 1 20 38
M  V30 42 1 21 39
M  V30 43 1 22 40
M  V30 44 1 22 41
M  V30 45 1 23 42
M  V30 46 1 23 43
M  V30 47 1 25 44
M  V30 48 1 25 45
M  V30 49 1 26 46
M  V30 50 1 26 47
M  V30 51 1 27 48
M  V30 52 1 28 49
M  V30 END BOND
M  V30 END CTAB
M  END
>  <Dataset>  (7) 
ChEMBL_Kinases

>  <Ligand_Instance>  (7) 
nan

>  <PDB_ID>  (7) 
nan

>  <Standardized_SMILES>  (7) 
C[S+]([O-])c1nc(-c2ccc(F)cc2)c(-c2ccnc(NC3CCOCC3)c2)[nH]1

>  <Name>  (7) 
nan

>  <Pocket>  (7) 
nan

>  <ATP_Site>  (7) 
nan

>  <Peripheral>  (7) 
nan

>  <Num_H_Atoms_ProtBoundConf>  (7) 
nan

>  <Num_Resolved_Atoms>  (7) 
nan

>  <Num_Not_Resolved_Atoms>  (7) 
nan

$$$$
CHEMBL1773504
     RDKit          3D

  0  0  0  0  0  0  0  0  0  0999 V3000
M  V30 BEGIN CTAB
M  V30 COUNTS 57 60 0 0 0
M  V30 BEGIN ATOM
M  V30 1 C 4.389431 -0.501069 5.114384 0
M  V30 2 C 5.298050 -1.224959 4.130822 0
M  V30 3 C 4.792610 -2.623178 3.967447 0
M  V30 4 S 5.229869 -0.315547 2.589172 0 CHG=1 VAL=3
M  V30 5 O 5.780027 1.246183 2.935947 0 CHG=-1 VAL=1
M  V30 6 C 3.560048 -0.176519 2.067851 0
M  V30 7 N 2.707153 0.834713 2.394773 0
M  V30 8 C 1.509892 0.589842 1.803939 0
M  V30 9 C 0.366859 1.471458 1.943515 0
M  V30 10 C 0.305509 2.782297 1.547530 0
M  V30 11 C -0.851701 3.503106 1.743743 0
M  V30 12 C -1.980227 2.971338 2.329280 0
M  V30 13 F -3.134197 3.623693 2.546089 0
M  V30 14 C -1.951795 1.642492 2.743118 0
M  V30 15 C -0.775570 0.941135 2.533752 0
M  V30 16 C 1.675273 -0.595371 1.116693 0
M  V30 17 C 0.561794 -1.154592 0.358247 0
M  V30 18 C 0.032005 -2.405876 0.670260 0
M  V30 19 C -1.031439 -2.889760 -0.088407 0
M  V30 20 N -1.580737 -2.213551 -1.112865 0
M  V30 21 C -1.089686 -1.005104 -1.435335 0
M  V30 22 N -1.625514 -0.242549 -2.505390 0
M  V30 23 C -2.747252 -0.797694 -3.278261 0
M  V30 24 C -3.891112 -1.042094 -2.364336 0
M  V30 25 C -4.656801 -2.300551 -2.585443 0
M  V30 26 C -4.615699 -2.656237 -4.054171 0
M  V30 27 C -3.180119 -3.043805 -4.351661 0
M  V30 28 C -2.201892 -1.980683 -3.996633 0
M  V30 29 C -0.038451 -0.516590 -0.692325 0
M  V30 30 N 2.923232 -1.075178 1.268920 0
M  V30 31 H 4.139289 0.519376 4.755960 0
M  V30 32 H 3.469041 -1.106377 5.329133 0
M  V30 33 H 4.924963 -0.374375 6.095140 0
M  V30 34 H 6.308585 -1.229716 4.533957 0
M  V30 35 H 5.053123 -3.186261 4.884281 0
M  V30 36 H 3.698996 -2.683857 3.849120 0
M  V30 37 H 5.238120 -3.077068 3.057311 0
M  V30 38 H 1.187312 3.203368 1.088223 0
M  V30 39 H -0.923925 4.535344 1.440705 0
M  V30 40 H -2.799998 1.139253 3.216261 0
M  V30 41 H -0.771892 -0.098939 2.864641 0
M  V30 42 H 0.445115 -3.000357 1.499394 0
M  V30 43 H -1.478045 -3.853312 0.112421 0
M  V30 44 H -1.224123 0.687344 -2.727534 0
M  V30 45 H -3.029479 -0.020325 -4.044027 0
M  V30 46 H -3.609524 -0.982261 -1.274230 0
M  V30 47 H -4.630242 -0.197417 -2.476298 0
M  V30 48 H -4.275861 -3.172855 -2.006954 0
M  V30 49 H -5.725816 -2.174953 -2.301897 0
M  V30 50 H -4.942891 -1.824820 -4.688471 0
M  V30 51 H -5.239393 -3.550897 -4.222890 0
M  V30 52 H -3.117609 -3.388748 -5.398943 0
M  V30 53 H -3.002512 -3.964595 -3.722095 0
M  V30 54 H -1.343449 -2.460150 -3.463954 0
M  V30 55 H -1.743726 -1.616151 -4.962909 0
M  V30 56 H 0.377975 0.469961 -0.939648 0
M  V30 57 H 3.298420 -1.950317 0.853739 0
M  V30 END ATOM
M  V30 BEGIN BOND
M  V30 1 1 1 2
M  V30 2 1 2 3
M  V30 3 1 2 4
M  V30 4 1 4 5 CFG=1
M  V30 5 1 4 6
M  V30 6 2 6 7
M  V30 7 1 7 8
M  V30 8 1 8 9
M  V30 9 2 9 10
M  V30 10 1 10 11
M  V30 11 2 11 12
M  V30 12 1 12 13
M  V30 13 1 12 14
M  V30 14 2 14 15
M  V30 15 2 8 16
M  V30 16 1 16 17
M  V30 17 2 17 18
M  V30 18 1 18 19
M  V30 19 2 19 20
M  V30 20 1 20 21
M  V30 21 1 21 22
M  V30 22 1 22 23
M  V30 23 1 23 24
M  V30 24 1 24 25
M  V30 25 1 25 26
M  V30 26 1 26 27
M  V30 27 1 27 28
M  V30 28 2 21 29
M  V30 29 1 16 30
M  V30 30 1 30 6
M  V30 31 1 15 9
M  V30 32 1 29 17
M  V30 33 1 28 23
M  V30 34 1 1 31
M  V30 35 1 1 32
M  V30 36 1 1 33
M  V30 37 1 2 34
M  V30 38 1 3 35
M  V30 39 1 3 36
M  V30 40 1 3 37
M  V30 41 1 10 38
M  V30 42 1 11 39
M  V30 43 1 14 40
M  V30 44 1 15 41
M  V30 45 1 18 42
M  V30 46 1 19 43
M  V30 47 1 22 44
M  V30 48 1 23 45
M  V30 49 1 24 46
M  V30 50 1 24 47
M  V30 51 1 25 48
M  V30 52 1 25 49
M  V30 53 1 26 50
M  V30 54 1 26 51
M  V30 55 1 27 52
M  V30 56 1 27 53
M  V30 57 1 28 54
M  V30 58 1 28 55
M  V30 59 1 29 56
M  V30 60 1 30 57
M  V30 END BOND
M  V30 END CTAB
M  END
>  <Dataset>  (8) 
ChEMBL_Kinases

>  <Ligand_Instance>  (8) 
nan

>  <PDB_ID>  (8) 
nan

>  <Standardized_SMILES>  (8) 
CC(C)[S@+]([O-])c1nc(-c2ccc(F)cc2)c(-c2ccnc(NC3CCCCC3)c2)[nH]1

>  <Name>  (8) 
nan

>  <Pocket>  (8) 
nan

>  <ATP_Site>  (8) 
nan

>  <Peripheral>  (8) 
nan

>  <Num_H_Atoms_ProtBoundConf>  (8) 
nan

>  <Num_Resolved_Atoms>  (8) 
nan

>  <Num_Not_Resolved_Atoms>  (8) 
nan

$$$$
CHEMBL1773503
     RDKit          3D

  0  0  0  0  0  0  0  0  0  0999 V3000
M  V30 BEGIN CTAB
M  V30 COUNTS 57 60 0 0 0
M  V30 BEGIN ATOM
M  V30 1 C 4.841624 0.540700 4.486139 0
M  V30 2 C 5.161777 -0.834277 3.941503 0
M  V30 3 C 3.939483 -1.708068 4.223225 0
M  V30 4 S 5.266350 -0.687447 2.157113 0 CHG=1 VAL=3
M  V30 5 O 5.621583 -2.218369 1.558218 0 CHG=-1 VAL=1
M  V30 6 C 3.663099 -0.200923 1.587364 0
M  V30 7 N 3.312224 1.113489 1.450675 0
M  V30 8 C 2.047569 1.181230 1.003556 0
M  V30 9 C 1.102646 2.246564 0.661829 0
M  V30 10 C 0.516373 2.580866 -0.538291 0
M  V30 11 C -0.363598 3.655244 -0.587029 0
M  V30 12 C -0.678076 4.407256 0.523636 0
M  V30 13 F -1.542526 5.437890 0.408523 0
M  V30 14 C -0.076211 4.052753 1.720642 0
M  V30 15 C 0.813511 2.979669 1.809738 0
M  V30 16 C 1.617784 -0.139499 0.865170 0
M  V30 17 C 0.386280 -0.816682 0.428658 0
M  V30 18 C -0.329076 -1.398232 1.452596 0
M  V30 19 C -1.504207 -2.050801 1.073274 0
M  V30 20 N -1.904608 -2.106929 -0.190754 0
M  V30 21 C -1.206782 -1.541146 -1.183174 0
M  V30 22 N -1.662446 -1.617447 -2.539879 0
M  V30 23 C -2.899093 -2.313609 -2.846847 0
M  V30 24 C -4.059042 -1.690303 -2.140755 0
M  V30 25 C -4.969291 -2.691873 -1.483657 0
M  V30 26 C -5.232160 -3.785168 -2.492171 0
M  V30 27 C -3.971498 -4.572252 -2.658654 0
M  V30 28 C -2.710859 -3.764880 -2.573743 0
M  V30 29 C -0.042788 -0.884240 -0.876035 0
M  V30 30 N 2.613135 -0.982847 1.224768 0
M  V30 31 H 4.254696 0.468292 5.433849 0
M  V30 32 H 4.208549 1.113958 3.776126 0
M  V30 33 H 5.780308 1.133198 4.637268 0
M  V30 34 H 6.066100 -1.263012 4.377152 0
M  V30 35 H 4.001785 -2.236096 5.183043 0
M  V30 36 H 3.002942 -1.121526 4.189564 0
M  V30 37 H 3.843793 -2.502934 3.426914 0
M  V30 38 H 0.829361 1.937768 -1.320024 0
M  V30 39 H -0.764410 3.836221 -1.561192 0
M  V30 40 H -0.381112 4.701538 2.549838 0
M  V30 41 H 1.178421 2.851151 2.811916 0
M  V30 42 H -0.040818 -1.380455 2.507659 0
M  V30 43 H -2.123982 -2.531909 1.816124 0
M  V30 44 H -1.081086 -1.161497 -3.288413 0
M  V30 45 H -3.073465 -2.196712 -3.948491 0
M  V30 46 H -3.733457 -0.976014 -1.341050 0
M  V30 47 H -4.682635 -1.082053 -2.829834 0
M  V30 48 H -4.543221 -3.143085 -0.577966 0
M  V30 49 H -5.944217 -2.242229 -1.247384 0
M  V30 50 H -5.602872 -3.383286 -3.456708 0
M  V30 51 H -6.004134 -4.453842 -2.056729 0
M  V30 52 H -4.030431 -5.165557 -3.618081 0
M  V30 53 H -3.944856 -5.347340 -1.864042 0
M  V30 54 H -2.167762 -3.977919 -1.637572 0
M  V30 55 H -2.025034 -4.154363 -3.381943 0
M  V30 56 H 0.544436 -0.418740 -1.634277 0
M  V30 57 H 2.743942 -2.007981 1.279705 0
M  V30 END ATOM
M  V30 BEGIN BOND
M  V30 1 1 1 2
M  V30 2 1 2 3
M  V30 3 1 2 4
M  V30 4 1 4 5 CFG=3
M  V30 5 1 4 6
M  V30 6 2 6 7
M  V30 7 1 7 8
M  V30 8 1 8 9
M  V30 9 2 9 10
M  V30 10 1 10 11
M  V30 11 2 11 12
M  V30 12 1 12 13
M  V30 13 1 12 14
M  V30 14 2 14 15
M  V30 15 2 8 16
M  V30 16 1 16 17
M  V30 17 2 17 18
M  V30 18 1 18 19
M  V30 19 2 19 20
M  V30 20 1 20 21
M  V30 21 1 21 22
M  V30 22 1 22 23
M  V30 23 1 23 24
M  V30 24 1 24 25
M  V30 25 1 25 26
M  V30 26 1 26 27
M  V30 27 1 27 28
M  V30 28 2 21 29
M  V30 29 1 16 30
M  V30 30 1 30 6
M  V30 31 1 15 9
M  V30 32 1 29 17
M  V30 33 1 28 23
M  V30 34 1 1 31
M  V30 35 1 1 32
M  V30 36 1 1 33
M  V30 37 1 2 34
M  V30 38 1 3 35
M  V30 39 1 3 36
M  V30 40 1 3 37
M  V30 41 1 10 38
M  V30 42 1 11 39
M  V30 43 1 14 40
M  V30 44 1 15 41
M  V30 45 1 18 42
M  V30 46 1 19 43
M  V30 47 1 22 44
M  V30 48 1 23 45
M  V30 49 1 24 46
M  V30 50 1 24 47
M  V30 51 1 25 48
M  V30 52 1 25 49
M  V30 53 1 26 50
M  V30 54 1 26 51
M  V30 55 1 27 52
M  V30 56 1 27 53
M  V30 57 1 28 54
M  V30 58 1 28 55
M  V30 59 1 29 56
M  V30 60 1 30 57
M  V30 END BOND
M  V30 END CTAB
M  END
>  <Dataset>  (9) 
ChEMBL_Kinases

>  <Ligand_Instance>  (9) 
nan

>  <PDB_ID>  (9) 
nan

>  <Standardized_SMILES>  (9) 
CC(C)[S@@+]([O-])c1nc(-c2ccc(F)cc2)c(-c2ccnc(NC3CCCCC3)c2)[nH]1

>  <Name>  (9) 
nan

>  <Pocket>  (9) 
nan

>  <ATP_Site>  (9) 
nan

>  <Peripheral>  (9) 
nan

>  <Num_H_Atoms_ProtBoundConf>  (9) 
nan

>  <Num_Resolved_Atoms>  (9) 
nan

>  <Num_Not_Resolved_Atoms>  (9) 
nan

$$$$
CHEMBL1773502
     RDKit          3D

  0  0  0  0  0  0  0  0  0  0999 V3000
M  V30 BEGIN CTAB
M  V30 COUNTS 56 59 0 0 0
M  V30 BEGIN ATOM
M  V30 1 C 3.821185 -3.127700 -1.792298 0
M  V30 2 C 4.847066 -2.921454 -0.726830 0
M  V30 3 C 4.433135 -3.580962 0.568930 0
M  V30 4 S 5.142951 -1.171953 -0.376510 0
M  V30 5 C 3.706109 -0.399386 0.339896 0
M  V30 6 N 3.803405 0.903839 0.651507 0
M  V30 7 C 2.636891 1.331563 1.181247 0
M  V30 8 C 2.157582 2.606929 1.690105 0
M  V30 9 C 1.785564 2.994752 2.956556 0
M  V30 10 C 1.352589 4.275223 3.202975 0
M  V30 11 C 1.272141 5.221746 2.200557 0
M  V30 12 F 0.837093 6.463695 2.516757 0
M  V30 13 C 1.642864 4.839610 0.933624 0
M  V30 14 C 2.086740 3.546417 0.652056 0
M  V30 15 C 1.784055 0.255888 1.199666 0
M  V30 16 C 0.413339 -0.039813 1.611356 0
M  V30 17 C -0.115816 -0.034670 2.885212 0
M  V30 18 C -1.449478 -0.341537 3.046070 0
M  V30 19 N -2.247183 -0.643644 2.012618 0
M  V30 20 C -1.802674 -0.669151 0.741445 0
M  V30 21 N -2.634938 -0.983601 -0.349603 0
M  V30 22 C -4.035075 -1.309392 -0.202194 0
M  V30 23 C -4.283259 -2.542949 0.623024 0
M  V30 24 C -3.979047 -3.816064 -0.117881 0
M  V30 25 C -4.122757 -3.652515 -1.613733 0
M  V30 26 C -5.222850 -2.636327 -1.900340 0
M  V30 27 C -4.688884 -1.286367 -1.536398 0
M  V30 28 C -0.470322 -0.363323 0.574063 0
M  V30 29 N 2.477987 -0.786891 0.675077 0
M  V30 30 H 3.044108 -2.349643 -1.704606 0
M  V30 31 H 3.397465 -4.161406 -1.700892 0
M  V30 32 H 4.314297 -3.061029 -2.791644 0
M  V30 33 H 5.823512 -3.339847 -1.087973 0
M  V30 34 H 3.402248 -3.984860 0.482749 0
M  V30 35 H 4.437358 -2.875414 1.421767 0
M  V30 36 H 5.146773 -4.387819 0.819583 0
M  V30 37 H 1.880681 2.206757 3.662037 0
M  V30 38 H 1.094236 4.447090 4.227254 0
M  V30 39 H 1.555047 5.632903 0.192423 0
M  V30 40 H 2.339148 3.414341 -0.394944 0
M  V30 41 H 0.574591 0.212168 3.657721 0
M  V30 42 H -1.758253 -0.306485 4.093544 0
M  V30 43 H -2.202257 -0.978259 -1.318433 0
M  V30 44 H -4.456850 -0.461618 0.421761 0
M  V30 45 H -5.323404 -2.562935 1.005016 0
M  V30 46 H -3.634390 -2.491256 1.516924 0
M  V30 47 H -4.712363 -4.580100 0.210040 0
M  V30 48 H -2.977455 -4.162245 0.177457 0
M  V30 49 H -3.181967 -3.239018 -2.018295 0
M  V30 50 H -4.376416 -4.593310 -2.121472 0
M  V30 51 H -6.177524 -2.908494 -1.428899 0
M  V30 52 H -5.403479 -2.645895 -2.999894 0
M  V30 53 H -5.519099 -0.545655 -1.543274 0
M  V30 54 H -3.937833 -1.031326 -2.343226 0
M  V30 55 H -0.115603 -0.384753 -0.448331 0
M  V30 56 H 2.242522 -1.799717 0.489497 0
M  V30 END ATOM
M  V30 BEGIN BOND
M  V30 1 1 1 2
M  V30 2 1 2 3
M  V30 3 1 2 4
M  V30 4 1 4 5
M  V30 5 2 5 6
M  V30 6 1 6 7
M  V30 7 1 7 8
M  V30 8 2 8 9
M  V30 9 1 9 10
M  V30 10 2 10 11
M  V30 11 1 11 12
M  V30 12 1 11 13
M  V30 13 2 13 14
M  V30 14 2 7 15
M  V30 15 1 15 16
M  V30 16 2 16 17
M  V30 17 1 17 18
M  V30 18 2 18 19
M  V30 19 1 19 20
M  V30 20 1 20 21
M  V30 21 1 21 22
M  V30 22 1 22 23
M  V30 23 1 23 24
M  V30 24 1 24 25
M  V30 25 1 25 26
M  V30 26 1 26 27
M  V30 27 2 20 28
M  V30 28 1 15 29
M  V30 29 1 29 5
M  V30 30 1 14 8
M  V30 31 1 28 16
M  V30 32 1 27 22
M  V30 33 1 1 30
M  V30 34 1 1 31
M  V30 35 1 1 32
M  V30 36 1 2 33
M  V30 37 1 3 34
M  V30 38 1 3 35
M  V30 39 1 3 36
M  V30 40 1 9 37
M  V30 41 1 10 38
M  V30 42 1 13 39
M  V30 43 1 14 40
M  V30 44 1 17 41
M  V30 45 1 18 42
M  V30 46 1 21 43
M  V30 47 1 22 44
M  V30 48 1 23 45
M  V30 49 1 23 46
M  V30 50 1 24 47
M  V30 51 1 24 48
M  V30 52 1 25 49
M  V30 53 1 25 50
M  V30 54 1 26 51
M  V30 55 1 26 52
M  V30 56 1 27 53
M  V30 57 1 27 54
M  V30 58 1 28 55
M  V30 59 1 29 56
M  V30 END BOND
M  V30 END CTAB
M  END
>  <Dataset>  (10) 
ChEMBL_Kinases

>  <Ligand_Instance>  (10) 
nan

>  <PDB_ID>  (10) 
nan

>  <Standardized_SMILES>  (10) 
CC(C)Sc1nc(-c2ccc(F)cc2)c(-c2ccnc(NC3CCCCC3)c2)[nH]1

>  <Name>  (10) 
nan

>  <Pocket>  (10) 
nan

>  <ATP_Site>  (10) 
nan

>  <Peripheral>  (10) 
nan

>  <Num_H_Atoms_ProtBoundConf>  (10) 
nan

>  <Num_Resolved_Atoms>  (10) 
nan

>  <Num_Not_Resolved_Atoms>  (10) 
nan

$$$$
CHEMBL1773501
     RDKit          3D

  0  0  0  0  0  0  0  0  0  0999 V3000
M  V30 BEGIN CTAB
M  V30 COUNTS 51 54 0 0 0
M  V30 BEGIN ATOM
M  V30 1 C 0.827950 -0.419571 6.418791 0
M  V30 2 S 2.444044 -0.682019 5.727946 0 CHG=1 VAL=3
M  V30 3 O 3.491874 0.423235 6.434059 0 CHG=-1 VAL=1
M  V30 4 C 2.339049 -0.345306 4.001573 0
M  V30 5 N 2.534550 0.891344 3.483226 0
M  V30 6 C 2.381708 0.788325 2.150435 0
M  V30 7 C 2.501466 1.856472 1.185306 0
M  V30 8 C 1.445650 2.761027 1.351082 0
M  V30 9 C 1.314946 3.899377 0.547513 0
M  V30 10 C 2.265398 4.116714 -0.430421 0
M  V30 11 F 2.250543 5.188997 -1.276809 0
M  V30 12 C 3.316649 3.215283 -0.594897 0
M  V30 13 C 3.428478 2.100049 0.205738 0
M  V30 14 C 2.089238 -0.521500 1.837483 0
M  V30 15 C 1.825813 -1.192579 0.559889 0
M  V30 16 C 2.750729 -1.331535 -0.454991 0
M  V30 17 C 2.392577 -1.980021 -1.616175 0
M  V30 18 N 1.163286 -2.483092 -1.789436 0
M  V30 19 C 0.195387 -2.392697 -0.849159 0
M  V30 20 N -1.087515 -2.948065 -1.074552 0
M  V30 21 C -2.253513 -2.950330 -0.237502 0
M  V30 22 C -2.854264 -1.608090 0.033142 0
M  V30 23 C -3.033289 -0.919566 -1.304433 0
M  V30 24 C -3.842706 -1.800525 -2.199661 0
M  V30 25 C -4.395382 -3.034960 -1.527547 0
M  V30 26 C -3.353774 -3.829162 -0.778158 0
M  V30 27 C 0.576264 -1.742655 0.298508 0
M  V30 28 N 2.064582 -1.220194 2.994393 0
M  V30 29 H 0.705110 -0.908731 7.415783 0
M  V30 30 H 0.013618 -0.829226 5.786699 0
M  V30 31 H 0.595645 0.678464 6.489717 0
M  V30 32 H 0.625383 2.711936 2.082515 0
M  V30 33 H 0.530766 4.619680 0.630834 0
M  V30 34 H 4.100738 3.301774 -1.326156 0
M  V30 35 H 4.188601 1.352454 0.166746 0
M  V30 36 H 3.728117 -0.935140 -0.319724 0
M  V30 37 H 3.098459 -2.105469 -2.433267 0
M  V30 38 H -1.221768 -3.441205 -2.001962 0
M  V30 39 H -1.912054 -3.336695 0.771320 0
M  V30 40 H -2.382265 -1.000025 0.797160 0
M  V30 41 H -3.893981 -1.818521 0.432633 0
M  V30 42 H -3.512545 0.084512 -1.175124 0
M  V30 43 H -2.039937 -0.752069 -1.759102 0
M  V30 44 H -4.754652 -1.219416 -2.528469 0
M  V30 45 H -3.318945 -2.090440 -3.150508 0
M  V30 46 H -5.292908 -2.791813 -0.930201 0
M  V30 47 H -4.744287 -3.695783 -2.359519 0
M  V30 48 H -3.870729 -4.288821 0.097132 0
M  V30 49 H -2.927192 -4.645988 -1.381074 0
M  V30 50 H -0.135313 -1.634363 1.098682 0
M  V30 51 H 1.888104 -2.220777 3.225197 0
M  V30 END ATOM
M  V30 BEGIN BOND
M  V30 1 1 1 2
M  V30 2 1 2 3 CFG=1
M  V30 3 1 2 4
M  V30 4 2 4 5
M  V30 5 1 5 6
M  V30 6 1 6 7
M  V30 7 2 7 8
M  V30 8 1 8 9
M  V30 9 2 9 10
M  V30 10 1 10 11
M  V30 11 1 10 12
M  V30 12 2 12 13
M  V30 13 2 6 14
M  V30 14 1 14 15
M  V30 15 2 15 16
M  V30 16 1 16 17
M  V30 17 2 17 18
M  V30 18 1 18 19
M  V30 19 1 19 20
M  V30 20 1 20 21
M  V30 21 1 21 22
M  V30 22 1 22 23
M  V30 23 1 23 24
M  V30 24 1 24 25
M  V30 25 1 25 26
M  V30 26 2 19 27
M  V30 27 1 14 28
M  V30 28 1 28 4
M  V30 29 1 13 7
M  V30 30 1 27 15
M  V30 31 1 26 21
M  V30 32 1 1 29
M  V30 33 1 1 30
M  V30 34 1 1 31
M  V30 35 1 8 32
M  V30 36 1 9 33
M  V30 37 1 12 34
M  V30 38 1 13 35
M  V30 39 1 16 36
M  V30 40 1 17 37
M  V30 41 1 20 38
M  V30 42 1 21 39
M  V30 43 1 22 40
M  V30 44 1 22 41
M  V30 45 1 23 42
M  V30 46 1 23 43
M  V30 47 1 24 44
M  V30 48 1 24 45
M  V30 49 1 25 46
M  V30 50 1 25 47
M  V30 51 1 26 48
M  V30 52 1 26 49
M  V30 53 1 27 50
M  V30 54 1 28 51
M  V30 END BOND
M  V30 END CTAB
M  END
>  <Dataset>  (11) 
ChEMBL_Kinases

>  <Ligand_Instance>  (11) 
nan

>  <PDB_ID>  (11) 
nan

>  <Standardized_SMILES>  (11) 
C[S@+]([O-])c1nc(-c2ccc(F)cc2)c(-c2ccnc(NC3CCCCC3)c2)[nH]1

>  <Name>  (11) 
nan

>  <Pocket>  (11) 
nan

>  <ATP_Site>  (11) 
nan

>  <Peripheral>  (11) 
nan

>  <Num_H_Atoms_ProtBoundConf>  (11) 
nan

>  <Num_Resolved_Atoms>  (11) 
nan

>  <Num_Not_Resolved_Atoms>  (11) 
nan

$$$$
CHEMBL1773500
     RDKit          3D

  0  0  0  0  0  0  0  0  0  0999 V3000
M  V30 BEGIN CTAB
M  V30 COUNTS 51 54 0 0 0
M  V30 BEGIN ATOM
M  V30 1 C 1.237060 0.980399 6.506500 0
M  V30 2 S 2.772277 0.994667 5.603813 0 CHG=1 VAL=3
M  V30 3 O 3.637085 -0.361792 6.149481 0 CHG=-1 VAL=1
M  V30 4 C 2.422327 0.649270 3.911119 0
M  V30 5 N 2.156493 1.659633 3.056484 0
M  V30 6 C 1.927708 1.106123 1.838432 0
M  V30 7 C 1.598578 1.656760 0.543280 0
M  V30 8 C 0.465273 2.400552 0.216819 0
M  V30 9 C 0.336855 2.835828 -1.079526 0
M  V30 10 C 1.230519 2.599011 -2.076754 0
M  V30 11 F 1.082509 3.035613 -3.336330 0
M  V30 12 C 2.351760 1.865053 -1.760562 0
M  V30 13 C 2.527404 1.404306 -0.470515 0
M  V30 14 C 2.055682 -0.262673 1.950694 0
M  V30 15 C 1.949238 -1.429015 1.074541 0
M  V30 16 C 3.053967 -2.241348 0.888411 0
M  V30 17 C 2.899904 -3.328681 0.051763 0
M  V30 18 N 1.732044 -3.595565 -0.560133 0
M  V30 19 C 0.619393 -2.840756 -0.418105 0
M  V30 20 N -0.583574 -3.140520 -1.071708 0
M  V30 21 C -1.805886 -2.421605 -0.980444 0
M  V30 22 C -2.455213 -2.343714 0.349156 0
M  V30 23 C -3.213457 -1.014306 0.427757 0
M  V30 24 C -3.800104 -0.797344 -0.954823 0
M  V30 25 C -4.124404 -2.137503 -1.606180 0
M  V30 26 C -2.854139 -2.901235 -1.961763 0
M  V30 27 C 0.776780 -1.755521 0.418103 0
M  V30 28 N 2.365216 -0.527743 3.254882 0
M  V30 29 H 1.415895 0.734515 7.579833 0
M  V30 30 H 0.755121 1.977974 6.511792 0
M  V30 31 H 0.538440 0.211047 6.127368 0
M  V30 32 H -0.225428 2.572595 1.026763 0
M  V30 33 H -0.553922 3.416250 -1.321260 0
M  V30 34 H 3.095040 1.647029 -2.514037 0
M  V30 35 H 3.431627 0.829721 -0.277919 0
M  V30 36 H 3.997772 -2.036085 1.375465 0
M  V30 37 H 3.736676 -3.996121 -0.126666 0
M  V30 38 H -0.591319 -3.992382 -1.703193 0
M  V30 39 H -1.574120 -1.364889 -1.307264 0
M  V30 40 H -3.263575 -3.130264 0.409544 0
M  V30 41 H -1.842563 -2.495187 1.229138 0
M  V30 42 H -3.959721 -1.023216 1.231970 0
M  V30 43 H -2.442970 -0.217102 0.583296 0
M  V30 44 H -4.788927 -0.312894 -0.781405 0
M  V30 45 H -3.201264 -0.147594 -1.599904 0
M  V30 46 H -4.770094 -2.685955 -0.890318 0
M  V30 47 H -4.755672 -1.968668 -2.498601 0
M  V30 48 H -3.081706 -3.968186 -1.697353 0
M  V30 49 H -2.561105 -2.779738 -3.016440 0
M  V30 50 H -0.026231 -1.082020 0.609641 0
M  V30 51 H 2.554458 -1.403432 3.809821 0
M  V30 END ATOM
M  V30 BEGIN BOND
M  V30 1 1 1 2
M  V30 2 1 2 3 CFG=1
M  V30 3 1 2 4
M  V30 4 2 4 5
M  V30 5 1 5 6
M  V30 6 1 6 7
M  V30 7 2 7 8
M  V30 8 1 8 9
M  V30 9 2 9 10
M  V30 10 1 10 11
M  V30 11 1 10 12
M  V30 12 2 12 13
M  V30 13 2 6 14
M  V30 14 1 14 15
M  V30 15 2 15 16
M  V30 16 1 16 17
M  V30 17 2 17 18
M  V30 18 1 18 19
M  V30 19 1 19 20
M  V30 20 1 20 21
M  V30 21 1 21 22
M  V30 22 1 22 23
M  V30 23 1 23 24
M  V30 24 1 24 25
M  V30 25 1 25 26
M  V30 26 2 19 27
M  V30 27 1 14 28
M  V30 28 1 28 4
M  V30 29 1 13 7
M  V30 30 1 27 15
M  V30 31 1 26 21
M  V30 32 1 1 29
M  V30 33 1 1 30
M  V30 34 1 1 31
M  V30 35 1 8 32
M  V30 36 1 9 33
M  V30 37 1 12 34
M  V30 38 1 13 35
M  V30 39 1 16 36
M  V30 40 1 17 37
M  V30 41 1 20 38
M  V30 42 1 21 39
M  V30 43 1 22 40
M  V30 44 1 22 41
M  V30 45 1 23 42
M  V30 46 1 23 43
M  V30 47 1 24 44
M  V30 48 1 24 45
M  V30 49 1 25 46
M  V30 50 1 25 47
M  V30 51 1 26 48
M  V30 52 1 26 49
M  V30 53 1 27 50
M  V30 54 1 28 51
M  V30 END BOND
M  V30 END CTAB
M  END
>  <Dataset>  (12) 
ChEMBL_Kinases

>  <Ligand_Instance>  (12) 
nan

>  <PDB_ID>  (12) 
nan

>  <Standardized_SMILES>  (12) 
C[S@@+]([O-])c1nc(-c2ccc(F)cc2)c(-c2ccnc(NC3CCCCC3)c2)[nH]1

>  <Name>  (12) 
nan

>  <Pocket>  (12) 
nan

>  <ATP_Site>  (12) 
nan

>  <Peripheral>  (12) 
nan

>  <Num_H_Atoms_ProtBoundConf>  (12) 
nan

>  <Num_Resolved_Atoms>  (12) 
nan

>  <Num_Not_Resolved_Atoms>  (12) 
nan

$$$$
CHEMBL1773499
     RDKit          3D

  0  0  0  0  0  0  0  0  0  0999 V3000
M  V30 BEGIN CTAB
M  V30 COUNTS 50 52 0 0 0
M  V30 BEGIN ATOM
M  V30 1 C 1.441854 -5.237457 3.945843 0
M  V30 2 C 1.341474 -4.082858 2.952503 0
M  V30 3 C 2.233013 -2.983956 3.423224 0
M  V30 4 N 1.694648 -4.584332 1.645317 0
M  V30 5 C 1.668443 -3.753228 0.493238 0
M  V30 6 C 1.271142 -2.440971 0.628747 0
M  V30 7 C 1.237266 -1.608663 -0.469388 0
M  V30 8 C 0.849002 -0.205586 -0.548348 0
M  V30 9 N 1.631807 0.848177 -0.845577 0
M  V30 10 C 0.857430 1.947680 -0.802119 0
M  V30 11 S 1.303359 3.616528 -1.095992 0 CHG=1 VAL=3
M  V30 12 O 1.086825 3.910852 -2.733045 0 CHG=-1 VAL=1
M  V30 13 C 0.294515 4.735882 -0.180535 0
M  V30 14 C 0.407603 4.502422 1.308368 0
M  V30 15 C -1.143466 4.689695 -0.589264 0
M  V30 16 N -0.376747 1.559501 -0.482444 0
M  V30 17 C -0.443323 0.209717 -0.309752 0
M  V30 18 C -1.682694 -0.471188 0.045758 0
M  V30 19 C -2.041569 -1.173621 1.175837 0
M  V30 20 C -3.300954 -1.728554 1.250043 0
M  V30 21 C -4.242138 -1.622320 0.244131 0
M  V30 22 F -5.453265 -2.204844 0.414850 0
M  V30 23 C -3.885495 -0.919656 -0.888230 0
M  V30 24 C -2.614889 -0.345341 -0.992488 0
M  V30 25 C 1.605966 -2.097916 -1.716714 0
M  V30 26 C 2.005988 -3.434717 -1.829043 0
M  V30 27 N 2.019016 -4.200366 -0.720920 0
M  V30 28 H 2.486928 -5.347462 4.234385 0
M  V30 29 H 0.852289 -4.987994 4.859803 0
M  V30 30 H 0.988932 -6.133138 3.475356 0
M  V30 31 H 0.292834 -3.722502 2.919839 0
M  V30 32 H 2.846410 -3.344515 4.272851 0
M  V30 33 H 1.624790 -2.152745 3.835905 0
M  V30 34 H 2.967794 -2.653071 2.658871 0
M  V30 35 H 1.984281 -5.586753 1.503143 0
M  V30 36 H 0.970018 -1.968506 1.537791 0
M  V30 37 H 2.651036 0.831469 -1.070161 0
M  V30 38 H 0.705986 5.754350 -0.359497 0
M  V30 39 H -0.383627 5.107848 1.807229 0
M  V30 40 H 1.383463 4.820334 1.729372 0
M  V30 41 H 0.162948 3.445093 1.565370 0
M  V30 42 H -1.397792 3.663965 -0.916059 0
M  V30 43 H -1.279407 5.353065 -1.482672 0
M  V30 44 H -1.801285 5.005085 0.245770 0
M  V30 45 H -1.261671 -1.202044 1.892052 0
M  V30 46 H -3.506662 -2.267183 2.174482 0
M  V30 47 H -4.629549 -0.842985 -1.668717 0
M  V30 48 H -2.475184 0.180042 -1.945771 0
M  V30 49 H 1.640231 -1.596618 -2.674486 0
M  V30 50 H 2.313947 -3.922054 -2.749592 0
M  V30 END ATOM
M  V30 BEGIN BOND
M  V30 1 1 1 2
M  V30 2 1 2 3
M  V30 3 1 2 4
M  V30 4 1 4 5
M  V30 5 2 5 6
M  V30 6 1 6 7
M  V30 7 1 7 8
M  V30 8 1 8 9
M  V30 9 1 9 10
M  V30 10 1 10 11
M  V30 11 1 11 12 CFG=3
M  V30 12 1 11 13
M  V30 13 1 13 14
M  V30 14 1 13 15
M  V30 15 2 10 16
M  V30 16 1 16 17
M  V30 17 1 17 18
M  V30 18 2 18 19
M  V30 19 1 19 20
M  V30 20 2 20 21
M  V30 21 1 21 22
M  V30 22 1 21 23
M  V30 23 2 23 24
M  V30 24 2 7 25
M  V30 25 1 25 26
M  V30 26 2 26 27
M  V30 27 1 27 5
M  V30 28 2 17 8
M  V30 29 1 24 18
M  V30 30 1 1 28
M  V30 31 1 1 29
M  V30 32 1 1 30
M  V30 33 1 2 31
M  V30 34 1 3 32
M  V30 35 1 3 33
M  V30 36 1 3 34
M  V30 37 1 4 35
M  V30 38 1 6 36
M  V30 39 1 9 37
M  V30 40 1 13 38
M  V30 41 1 14 39
M  V30 42 1 14 40
M  V30 43 1 14 41
M  V30 44 1 15 42
M  V30 45 1 15 43
M  V30 46 1 15 44
M  V30 47 1 19 45
M  V30 48 1 20 46
M  V30 49 1 23 47
M  V30 50 1 24 48
M  V30 51 1 25 49
M  V30 52 1 26 50
M  V30 END BOND
M  V30 END CTAB
M  END
>  <Dataset>  (13) 
ChEMBL_Kinases

>  <Ligand_Instance>  (13) 
nan

>  <PDB_ID>  (13) 
nan

>  <Standardized_SMILES>  (13) 
CC(C)Nc1cc(-c2[nH]c([S@@+]([O-])C(C)C)nc2-c2ccc(F)cc2)ccn1

>  <Name>  (13) 
nan

>  <Pocket>  (13) 
nan

>  <ATP_Site>  (13) 
nan

>  <Peripheral>  (13) 
nan

>  <Num_H_Atoms_ProtBoundConf>  (13) 
nan

>  <Num_Resolved_Atoms>  (13) 
nan

>  <Num_Not_Resolved_Atoms>  (13) 
nan

$$$$
CHEMBL1773421
     RDKit          3D

  0  0  0  0  0  0  0  0  0  0999 V3000
M  V30 BEGIN CTAB
M  V30 COUNTS 57 60 0 0 0
M  V30 BEGIN ATOM
M  V30 1 C 5.352228 0.215570 4.222296 0
M  V30 2 C 5.832302 -0.829389 3.211843 0
M  V30 3 C 5.006615 -2.073225 3.500435 0
M  V30 4 S 5.499378 -0.230416 1.562568 0 CHG=1 VAL=3
M  V30 5 O 6.341976 1.211579 1.382872 0 CHG=-1 VAL=1
M  V30 6 C 3.789313 0.089177 1.362711 0
M  V30 7 N 3.051689 1.207610 1.581362 0
M  V30 8 C 1.760351 0.955309 1.276777 0
M  V30 9 C 0.734953 2.000704 1.422394 0
M  V30 10 C 0.173139 2.288946 0.175591 0
M  V30 11 C -0.825588 3.251565 0.058485 0
M  V30 12 C -1.243144 3.908755 1.197403 0
M  V30 13 F -2.206748 4.844997 1.120238 0
M  V30 14 C -0.682954 3.614045 2.406803 0
M  V30 15 C 0.300638 2.670634 2.543534 0
M  V30 16 C 1.701365 -0.375402 0.852525 0
M  V30 17 C 0.377416 -0.854237 0.471585 0
M  V30 18 C -0.643868 -0.904243 1.425095 0
M  V30 19 C -1.895304 -1.358569 1.053531 0
M  V30 20 N -2.154914 -1.759600 -0.225481 0
M  V30 21 C -1.197959 -1.725714 -1.169822 0
M  V30 22 N -1.473713 -2.145556 -2.506554 0
M  V30 23 C -2.800757 -2.608164 -2.826640 0
M  V30 24 C -3.860378 -1.570668 -2.587308 0
M  V30 25 C -5.070875 -2.136538 -1.882336 0
M  V30 26 C -5.486058 -3.410511 -2.561128 0
M  V30 27 C -4.422838 -4.463544 -2.429491 0
M  V30 28 C -3.051570 -3.917168 -2.134592 0
M  V30 29 C 0.050633 -1.272192 -0.798129 0
M  V30 30 N 2.948686 -0.873419 0.916137 0
M  V30 31 H 4.374725 -0.042767 4.667625 0
M  V30 32 H 5.192613 1.201312 3.693978 0
M  V30 33 H 6.121351 0.410500 5.002889 0
M  V30 34 H 6.896135 -1.042478 3.309455 0
M  V30 35 H 5.136733 -2.816442 2.713952 0
M  V30 36 H 3.935615 -1.805410 3.588659 0
M  V30 37 H 5.326002 -2.419675 4.508621 0
M  V30 38 H 0.419891 1.839982 -0.779419 0
M  V30 39 H -1.297055 3.515382 -0.884283 0
M  V30 40 H -0.959444 4.089838 3.349613 0
M  V30 41 H 0.830588 2.336797 3.430543 0
M  V30 42 H -0.482922 -0.595207 2.454428 0
M  V30 43 H -2.734826 -1.427316 1.728949 0
M  V30 44 H -0.695828 -2.099084 -3.201281 0
M  V30 45 H -2.795477 -2.851835 -3.929883 0
M  V30 46 H -4.222399 -1.141261 -3.541475 0
M  V30 47 H -3.509317 -0.706556 -1.981835 0
M  V30 48 H -4.821070 -2.377941 -0.844276 0
M  V30 49 H -5.903098 -1.425589 -1.916942 0
M  V30 50 H -5.787355 -3.227492 -3.613738 0
M  V30 51 H -6.418034 -3.781464 -2.061060 0
M  V30 52 H -4.428084 -5.023943 -3.402224 0
M  V30 53 H -4.721845 -5.214379 -1.671964 0
M  V30 54 H -2.846374 -3.919145 -1.058454 0
M  V30 55 H -2.326272 -4.644909 -2.592047 0
M  V30 56 H 0.827712 -1.235217 -1.527842 0
M  V30 57 H 3.046036 -1.859788 0.626399 0
M  V30 END ATOM
M  V30 BEGIN BOND
M  V30 1 1 1 2
M  V30 2 1 2 3
M  V30 3 1 2 4
M  V30 4 1 4 5
M  V30 5 1 4 6
M  V30 6 2 6 7
M  V30 7 1 7 8
M  V30 8 1 8 9
M  V30 9 2 9 10
M  V30 10 1 10 11
M  V30 11 2 11 12
M  V30 12 1 12 13
M  V30 13 1 12 14
M  V30 14 2 14 15
M  V30 15 2 8 16
M  V30 16 1 16 17
M  V30 17 2 17 18
M  V30 18 1 18 19
M  V30 19 2 19 20
M  V30 20 1 20 21
M  V30 21 1 21 22
M  V30 22 1 22 23
M  V30 23 1 23 24
M  V30 24 1 24 25
M  V30 25 1 25 26
M  V30 26 1 26 27
M  V30 27 1 27 28
M  V30 28 2 21 29
M  V30 29 1 16 30
M  V30 30 1 30 6
M  V30 31 1 15 9
M  V30 32 1 29 17
M  V30 33 1 28 23
M  V30 34 1 1 31
M  V30 35 1 1 32
M  V30 36 1 1 33
M  V30 37 1 2 34
M  V30 38 1 3 35
M  V30 39 1 3 36
M  V30 40 1 3 37
M  V30 41 1 10 38
M  V30 42 1 11 39
M  V30 43 1 14 40
M  V30 44 1 15 41
M  V30 45 1 18 42
M  V30 46 1 19 43
M  V30 47 1 22 44
M  V30 48 1 23 45
M  V30 49 1 24 46
M  V30 50 1 24 47
M  V30 51 1 25 48
M  V30 52 1 25 49
M  V30 53 1 26 50
M  V30 54 1 26 51
M  V30 55 1 27 52
M  V30 56 1 27 53
M  V30 57 1 28 54
M  V30 58 1 28 55
M  V30 59 1 29 56
M  V30 60 1 30 57
M  V30 END BOND
M  V30 END CTAB
M  END
>  <Dataset>  (14) 
ChEMBL_Kinases

>  <Ligand_Instance>  (14) 
nan

>  <PDB_ID>  (14) 
nan

>  <Standardized_SMILES>  (14) 
CC(C)[S+]([O-])c1nc(-c2ccc(F)cc2)c(-c2ccnc(NC3CCCCC3)c2)[nH]1

>  <Name>  (14) 
nan

>  <Pocket>  (14) 
nan

>  <ATP_Site>  (14) 
nan

>  <Peripheral>  (14) 
nan

>  <Num_H_Atoms_ProtBoundConf>  (14) 
nan

>  <Num_Resolved_Atoms>  (14) 
nan

>  <Num_Not_Resolved_Atoms>  (14) 
nan

$$$$
CHEMBL1773422
     RDKit          3D

  0  0  0  0  0  0  0  0  0  0999 V3000
M  V30 BEGIN CTAB
M  V30 COUNTS 43 45 0 0 0
M  V30 BEGIN ATOM
M  V30 1 C 2.465294 -6.130362 0.875651 0
M  V30 2 C 1.807997 -4.877219 0.393018 0
M  V30 3 O 0.649209 -4.667472 0.895304 0
M  V30 4 N 2.263100 -3.875841 -0.537962 0
M  V30 5 C 1.164423 -2.937070 -0.564115 0
M  V30 6 C 1.124457 -1.872380 0.314801 0
M  V30 7 C 0.037047 -1.021235 0.236493 0
M  V30 8 C 0.096041 0.064277 1.206770 0
M  V30 9 C 0.149042 1.428645 0.961455 0
M  V30 10 C 0.149665 2.108823 -0.322459 0
M  V30 11 C -0.899903 2.205570 -1.207684 0
M  V30 12 C -0.852917 2.853375 -2.418633 0
M  V30 13 C 0.341657 3.455971 -2.777509 0
M  V30 14 F 0.386836 4.100977 -3.985116 0
M  V30 15 C 1.437581 3.403887 -1.946787 0
M  V30 16 C 1.321832 2.741283 -0.753488 0
M  V30 17 N 0.201119 2.082932 2.158522 0
M  V30 18 C 0.179604 1.119200 3.116239 0
M  V30 19 S 0.225566 1.450130 4.830666 0 CHG=1 VAL=3
M  V30 20 C -1.415058 1.545684 5.460892 0
M  V30 21 O 1.145022 0.382356 5.700631 0 CHG=-1 VAL=1
M  V30 22 N 0.115626 -0.119311 2.559468 0
M  V30 23 C 0.077533 -1.376660 3.261690 0
M  V30 24 C -0.925462 -1.294590 -0.709156 0
M  V30 25 C -0.869573 -2.360332 -1.577687 0
M  V30 26 N 0.208877 -3.192789 -1.489796 0
M  V30 27 H 3.540341 -6.167345 0.644919 0
M  V30 28 H 1.876905 -6.984137 0.476722 0
M  V30 29 H 2.363173 -6.209250 1.981342 0
M  V30 30 H 3.216064 -4.110952 -0.907014 0
M  V30 31 H 1.955290 -1.805048 0.985273 0
M  V30 32 H -1.815241 1.748214 -0.929741 0
M  V30 33 H -1.728122 2.877137 -3.049476 0
M  V30 34 H 2.364586 3.884885 -2.249686 0
M  V30 35 H 2.195602 2.710060 -0.109489 0
M  V30 36 H -1.432044 1.182771 6.531041 0
M  V30 37 H -2.127306 0.872420 4.940377 0
M  V30 38 H -1.732231 2.611044 5.425734 0
M  V30 39 H -0.822185 -1.973951 2.942894 0
M  V30 40 H 0.003919 -1.156579 4.366715 0
M  V30 41 H 0.967395 -2.001185 3.158903 0
M  V30 42 H -1.739748 -0.610542 -0.721671 0
M  V30 43 H -1.696047 -2.464771 -2.279264 0
M  V30 END ATOM
M  V30 BEGIN BOND
M  V30 1 1 1 2
M  V30 2 2 2 3
M  V30 3 1 2 4
M  V30 4 1 4 5
M  V30 5 2 5 6
M  V30 6 1 6 7
M  V30 7 1 7 8
M  V30 8 2 8 9
M  V30 9 1 9 10
M  V30 10 2 10 11
M  V30 11 1 11 12
M  V30 12 2 12 13
M  V30 13 1 13 14
M  V30 14 1 13 15
M  V30 15 2 15 16
M  V30 16 1 9 17
M  V30 17 2 17 18
M  V30 18 1 18 19
M  V30 19 1 19 20
M  V30 20 1 19 21
M  V30 21 1 18 22
M  V30 22 1 22 23
M  V30 23 2 7 24
M  V30 24 1 24 25
M  V30 25 2 25 26
M  V30 26 1 26 5
M  V30 27 1 22 8
M  V30 28 1 16 10
M  V30 29 1 1 27
M  V30 30 1 1 28
M  V30 31 1 1 29
M  V30 32 1 4 30
M  V30 33 1 6 31
M  V30 34 1 11 32
M  V30 35 1 12 33
M  V30 36 1 15 34
M  V30 37 1 16 35
M  V30 38 1 20 36
M  V30 39 1 20 37
M  V30 40 1 20 38
M  V30 41 1 23 39
M  V30 42 1 23 40
M  V30 43 1 23 41
M  V30 44 1 24 42
M  V30 45 1 25 43
M  V30 END BOND
M  V30 END CTAB
M  END
>  <Dataset>  (15) 
ChEMBL_Kinases

>  <Ligand_Instance>  (15) 
nan

>  <PDB_ID>  (15) 
nan

>  <Standardized_SMILES>  (15) 
CC(=O)Nc1cc(-c2c(-c3ccc(F)cc3)nc([S+](C)[O-])n2C)ccn1

>  <Name>  (15) 
nan

>  <Pocket>  (15) 
nan

>  <ATP_Site>  (15) 
nan

>  <Peripheral>  (15) 
nan

>  <Num_H_Atoms_ProtBoundConf>  (15) 
nan

>  <Num_Resolved_Atoms>  (15) 
nan

>  <Num_Not_Resolved_Atoms>  (15) 
nan

$$$$
CHEMBL1773423
     RDKit          3D

  0  0  0  0  0  0  0  0  0  0999 V3000
M  V30 BEGIN CTAB
M  V30 COUNTS 43 45 0 0 0
M  V30 BEGIN ATOM
M  V30 1 C 0.087788 -6.429346 1.241990 0
M  V30 2 C -0.395556 -5.050724 1.041903 0
M  V30 3 O -0.988500 -4.471518 2.013229 0
M  V30 4 N -0.274414 -4.257175 -0.154611 0
M  V30 5 C -0.873349 -2.981612 0.070487 0
M  V30 6 C -0.173430 -1.890102 0.566369 0
M  V30 7 C -0.802367 -0.655896 0.771581 0
M  V30 8 C 0.155435 0.311062 1.299032 0
M  V30 9 C 0.614460 1.465267 0.740777 0
M  V30 10 C 0.264546 2.038896 -0.540869 0
M  V30 11 C -0.928670 2.535593 -1.018881 0
M  V30 12 C -1.012674 3.034998 -2.296802 0
M  V30 13 C 0.062242 3.071955 -3.163525 0
M  V30 14 F -0.160061 3.588532 -4.389090 0
M  V30 15 C 1.248549 2.578598 -2.689487 0
M  V30 16 C 1.369453 2.066282 -1.403700 0
M  V30 17 N 1.493993 2.005090 1.635771 0
M  V30 18 C 1.583832 1.213677 2.722202 0
M  V30 19 S 2.572864 1.463725 4.150294 0 CHG=1 VAL=3
M  V30 20 C 4.150058 0.719279 3.941863 0
M  V30 21 O 2.634838 3.087309 4.532213 0 CHG=-1 VAL=1
M  V30 22 N 0.754965 0.171615 2.505505 0
M  V30 23 C 0.559264 -0.922678 3.450603 0
M  V30 24 C -2.143520 -0.542545 0.469244 0
M  V30 25 C -2.811873 -1.644543 -0.021790 0
M  V30 26 N -2.179965 -2.817604 -0.208325 0
M  V30 27 H -0.739778 -7.193960 1.248246 0
M  V30 28 H 0.917401 -6.738153 0.609177 0
M  V30 29 H 0.485513 -6.452698 2.300072 0
M  V30 30 H 0.204710 -4.724681 -0.939913 0
M  V30 31 H 0.882500 -2.133023 0.758945 0
M  V30 32 H -1.708423 2.477935 -0.301874 0
M  V30 33 H -2.014126 3.399333 -2.556652 0
M  V30 34 H 2.087599 2.616071 -3.389429 0
M  V30 35 H 2.365428 1.715003 -1.174256 0
M  V30 36 H 4.429847 0.178417 4.888740 0
M  V30 37 H 4.952104 1.455143 3.714834 0
M  V30 38 H 4.185394 -0.009532 3.093578 0
M  V30 39 H -0.512869 -1.240548 3.345723 0
M  V30 40 H 0.808586 -0.626979 4.471715 0
M  V30 41 H 1.187165 -1.762631 3.116863 0
M  V30 42 H -2.505289 0.448868 0.671603 0
M  V30 43 H -3.858703 -1.476081 -0.234565 0
M  V30 END ATOM
M  V30 BEGIN BOND
M  V30 1 1 1 2
M  V30 2 2 2 3
M  V30 3 1 2 4
M  V30 4 1 4 5
M  V30 5 2 5 6
M  V30 6 1 6 7
M  V30 7 1 7 8
M  V30 8 2 8 9
M  V30 9 1 9 10
M  V30 10 2 10 11
M  V30 11 1 11 12
M  V30 12 2 12 13
M  V30 13 1 13 14
M  V30 14 1 13 15
M  V30 15 2 15 16
M  V30 16 1 9 17
M  V30 17 2 17 18
M  V30 18 1 18 19
M  V30 19 1 19 20
M  V30 20 1 19 21 CFG=3
M  V30 21 1 18 22
M  V30 22 1 22 23
M  V30 23 2 7 24
M  V30 24 1 24 25
M  V30 25 2 25 26
M  V30 26 1 26 5
M  V30 27 1 22 8
M  V30 28 1 16 10
M  V30 29 1 1 27
M  V30 30 1 1 28
M  V30 31 1 1 29
M  V30 32 1 4 30
M  V30 33 1 6 31
M  V30 34 1 11 32
M  V30 35 1 12 33
M  V30 36 1 15 34
M  V30 37 1 16 35
M  V30 38 1 20 36
M  V30 39 1 20 37
M  V30 40 1 20 38
M  V30 41 1 23 39
M  V30 42 1 23 40
M  V30 43 1 23 41
M  V30 44 1 24 42
M  V30 45 1 25 43
M  V30 END BOND
M  V30 END CTAB
M  END
>  <Dataset>  (16) 
ChEMBL_Kinases

>  <Ligand_Instance>  (16) 
nan

>  <PDB_ID>  (16) 
nan

>  <Standardized_SMILES>  (16) 
CC(=O)Nc1cc(-c2c(-c3ccc(F)cc3)nc([S@@+](C)[O-])n2C)ccn1

>  <Name>  (16) 
nan

>  <Pocket>  (16) 
nan

>  <ATP_Site>  (16) 
nan

>  <Peripheral>  (16) 
nan

>  <Num_H_Atoms_ProtBoundConf>  (16) 
nan

>  <Num_Resolved_Atoms>  (16) 
nan

>  <Num_Not_Resolved_Atoms>  (16) 
nan

$$$$
CHEMBL1773424
     RDKit          3D

  0  0  0  0  0  0  0  0  0  0999 V3000
M  V30 BEGIN CTAB
M  V30 COUNTS 43 45 0 0 0
M  V30 BEGIN ATOM
M  V30 1 C 2.645030 -6.226196 0.353869 0
M  V30 2 C 1.763307 -5.032172 0.182396 0
M  V30 3 O 0.725942 -4.950354 0.916933 0
M  V30 4 N 1.982611 -3.953183 -0.748688 0
M  V30 5 C 0.926903 -3.009393 -0.610319 0
M  V30 6 C 0.908685 -1.910549 0.247184 0
M  V30 7 C -0.199865 -1.068316 0.276522 0
M  V30 8 C 0.007624 0.002436 1.244756 0
M  V30 9 C 0.128481 1.363691 1.066468 0
M  V30 10 C 0.072108 2.062265 -0.210435 0
M  V30 11 C -0.950792 2.213437 -1.119328 0
M  V30 12 C -0.736400 2.934800 -2.273935 0
M  V30 13 C 0.484797 3.525437 -2.565623 0
M  V30 14 F 0.500864 4.193492 -3.748726 0
M  V30 15 C 1.509306 3.375782 -1.658114 0
M  V30 16 C 1.304514 2.658361 -0.504871 0
M  V30 17 N 0.308480 1.953635 2.262319 0
M  V30 18 C 0.301865 0.987685 3.178242 0
M  V30 19 S 0.502644 1.259903 4.913027 0 CHG=1 VAL=3
M  V30 20 C -1.124518 1.514130 5.575222 0
M  V30 21 O 1.551499 2.494249 5.249908 0 CHG=-1 VAL=1
M  V30 22 N 0.119525 -0.208329 2.574004 0
M  V30 23 C 0.063776 -1.476017 3.298036 0
M  V30 24 C -1.266949 -1.343492 -0.552738 0
M  V30 25 C -1.222741 -2.436914 -1.391197 0
M  V30 26 N -0.146067 -3.252397 -1.417922 0
M  V30 27 H 3.692716 -6.038823 0.059438 0
M  V30 28 H 2.157599 -7.056414 -0.198486 0
M  V30 29 H 2.631315 -6.481670 1.431234 0
M  V30 30 H 2.837015 -4.040239 -1.339535 0
M  V30 31 H 1.814748 -1.833722 0.827506 0
M  V30 32 H -1.846515 1.723658 -0.800277 0
M  V30 33 H -1.622557 2.976287 -2.901383 0
M  V30 34 H 2.425854 3.857823 -1.945462 0
M  V30 35 H 2.213080 2.632462 0.110345 0
M  V30 36 H -1.690324 2.109426 4.804697 0
M  V30 37 H -1.601331 0.519692 5.738922 0
M  V30 38 H -1.098686 2.127936 6.489845 0
M  V30 39 H -0.712477 -2.096958 2.807848 0
M  V30 40 H -0.256982 -1.280657 4.343851 0
M  V30 41 H 1.041047 -1.980385 3.361341 0
M  V30 42 H -2.061252 -0.621763 -0.435172 0
M  V30 43 H -2.108913 -2.568024 -2.002913 0
M  V30 END ATOM
M  V30 BEGIN BOND
M  V30 1 1 1 2
M  V30 2 2 2 3
M  V30 3 1 2 4
M  V30 4 1 4 5
M  V30 5 2 5 6
M  V30 6 1 6 7
M  V30 7 1 7 8
M  V30 8 2 8 9
M  V30 9 1 9 10
M  V30 10 2 10 11
M  V30 11 1 11 12
M  V30 12 2 12 13
M  V30 13 1 13 14
M  V30 14 1 13 15
M  V30 15 2 15 16
M  V30 16 1 9 17
M  V30 17 2 17 18
M  V30 18 1 18 19
M  V30 19 1 19 20
M  V30 20 1 19 21 CFG=3
M  V30 21 1 18 22
M  V30 22 1 22 23
M  V30 23 2 7 24
M  V30 24 1 24 25
M  V30 25 2 25 26
M  V30 26 1 26 5
M  V30 27 1 22 8
M  V30 28 1 16 10
M  V30 29 1 1 27
M  V30 30 1 1 28
M  V30 31 1 1 29
M  V30 32 1 4 30
M  V30 33 1 6 31
M  V30 34 1 11 32
M  V30 35 1 12 33
M  V30 36 1 15 34
M  V30 37 1 16 35
M  V30 38 1 20 36
M  V30 39 1 20 37
M  V30 40 1 20 38
M  V30 41 1 23 39
M  V30 42 1 23 40
M  V30 43 1 23 41
M  V30 44 1 24 42
M  V30 45 1 25 43
M  V30 END BOND
M  V30 END CTAB
M  END
>  <Dataset>  (17) 
ChEMBL_Kinases

>  <Ligand_Instance>  (17) 
nan

>  <PDB_ID>  (17) 
nan

>  <Standardized_SMILES>  (17) 
CC(=O)Nc1cc(-c2c(-c3ccc(F)cc3)nc([S@+](C)[O-])n2C)ccn1

>  <Name>  (17) 
nan

>  <Pocket>  (17) 
nan

>  <ATP_Site>  (17) 
nan

>  <Peripheral>  (17) 
nan

>  <Num_H_Atoms_ProtBoundConf>  (17) 
nan

>  <Num_Resolved_Atoms>  (17) 
nan

>  <Num_Not_Resolved_Atoms>  (17) 
nan

$$$$
CHEMBL1773426
     RDKit          3D

  0  0  0  0  0  0  0  0  0  0999 V3000
M  V30 BEGIN CTAB
M  V30 COUNTS 40 42 0 0 0
M  V30 BEGIN ATOM
M  V30 1 C 4.671347 -4.924927 1.521052 0
M  V30 2 C 3.347998 -4.546291 0.961407 0
M  V30 3 O 2.534152 -5.407535 0.523359 0
M  V30 4 N 2.923419 -3.202847 0.886724 0
M  V30 5 C 1.684181 -2.729031 0.373463 0
M  V30 6 C 1.400355 -1.357718 0.364274 0
M  V30 7 C 0.164002 -0.956943 -0.153262 0
M  V30 8 C -0.009843 0.495858 -0.106507 0
M  V30 9 N 0.477564 1.255995 -1.117235 0
M  V30 10 C 0.164727 2.521777 -0.788917 0
M  V30 11 S 0.420169 4.087122 -1.534123 0 CHG=1 VAL=3
M  V30 12 C -0.969289 4.474829 -2.605487 0
M  V30 13 O 1.770090 3.954908 -2.554911 0 CHG=-1 VAL=1
M  V30 14 N -0.496313 2.515579 0.394752 0
M  V30 15 C -0.617983 1.249959 0.843473 0
M  V30 16 C -1.250518 0.760609 2.064467 0
M  V30 17 C -0.526188 0.105879 3.037354 0
M  V30 18 C -1.125650 -0.362237 4.202885 0
M  V30 19 C -2.499083 -0.108643 4.285626 0
M  V30 20 F -3.128354 -0.551214 5.414564 0
M  V30 21 C -3.271281 0.541700 3.341438 0
M  V30 22 C -2.607397 0.981755 2.203591 0
M  V30 23 C -0.726577 -1.897007 -0.631405 0
M  V30 24 C -0.384660 -3.234678 -0.593400 0
M  V30 25 N 0.804838 -3.654861 -0.098326 0
M  V30 26 H 4.970097 -5.890220 1.059291 0
M  V30 27 H 5.439822 -4.180083 1.263430 0
M  V30 28 H 4.607563 -5.118738 2.620820 0
M  V30 29 H 3.616737 -2.492346 1.257685 0
M  V30 30 H 2.156652 -0.686333 0.759338 0
M  V30 31 H 0.990777 1.075856 -2.002245 0
M  V30 32 H -0.995402 5.531235 -2.864261 0
M  V30 33 H -0.973022 3.792457 -3.478184 0
M  V30 34 H -1.928713 4.263230 -2.059490 0
M  V30 35 H 0.538333 -0.070719 2.933606 0
M  V30 36 H -0.631702 -0.876542 4.999539 0
M  V30 37 H -4.320174 0.675089 3.522136 0
M  V30 38 H -3.209409 1.491013 1.462863 0
M  V30 39 H -1.645120 -1.485305 -1.006839 0
M  V30 40 H -1.162668 -3.889079 -0.996716 0
M  V30 END ATOM
M  V30 BEGIN BOND
M  V30 1 1 1 2
M  V30 2 2 2 3
M  V30 3 1 2 4
M  V30 4 1 4 5
M  V30 5 2 5 6
M  V30 6 1 6 7
M  V30 7 1 7 8
M  V30 8 1 8 9
M  V30 9 1 9 10
M  V30 10 1 10 11
M  V30 11 1 11 12
M  V30 12 1 11 13
M  V30 13 2 10 14
M  V30 14 1 14 15
M  V30 15 1 15 16
M  V30 16 2 16 17
M  V30 17 1 17 18
M  V30 18 2 18 19
M  V30 19 1 19 20
M  V30 20 1 19 21
M  V30 21 2 21 22
M  V30 22 2 7 23
M  V30 23 1 23 24
M  V30 24 2 24 25
M  V30 25 1 25 5
M  V30 26 2 15 8
M  V30 27 1 22 16
M  V30 28 1 1 26
M  V30 29 1 1 27
M  V30 30 1 1 28
M  V30 31 1 4 29
M  V30 32 1 6 30
M  V30 33 1 9 31
M  V30 34 1 12 32
M  V30 35 1 12 33
M  V30 36 1 12 34
M  V30 37 1 17 35
M  V30 38 1 18 36
M  V30 39 1 21 37
M  V30 40 1 22 38
M  V30 41 1 23 39
M  V30 42 1 24 40
M  V30 END BOND
M  V30 END CTAB
M  END
>  <Dataset>  (18) 
ChEMBL_Kinases

>  <Ligand_Instance>  (18) 
nan

>  <PDB_ID>  (18) 
nan

>  <Standardized_SMILES>  (18) 
CC(=O)Nc1cc(-c2[nH]c([S+](C)[O-])nc2-c2ccc(F)cc2)ccn1

>  <Name>  (18) 
nan

>  <Pocket>  (18) 
nan

>  <ATP_Site>  (18) 
nan

>  <Peripheral>  (18) 
nan

>  <Num_H_Atoms_ProtBoundConf>  (18) 
nan

>  <Num_Resolved_Atoms>  (18) 
nan

>  <Num_Not_Resolved_Atoms>  (18) 
nan

$$$$
CHEMBL1773427
     RDKit          3D

  0  0  0  0  0  0  0  0  0  0999 V3000
M  V30 BEGIN CTAB
M  V30 COUNTS 40 42 0 0 0
M  V30 BEGIN ATOM
M  V30 1 C 1.659623 -4.517126 3.926657 0
M  V30 2 C 1.714590 -3.660830 2.709784 0
M  V30 3 O 0.590312 -3.666664 2.101586 0
M  V30 4 N 2.791548 -2.891002 2.179437 0
M  V30 5 C 2.335006 -2.254493 1.002235 0
M  V30 6 C 1.731837 -1.005602 0.860987 0
M  V30 7 C 1.355582 -0.566609 -0.381570 0
M  V30 8 C 0.737094 0.754557 -0.410910 0
M  V30 9 N 1.166468 1.836030 -1.091789 0
M  V30 10 C 0.286279 2.823464 -0.827020 0
M  V30 11 S 0.307125 4.488129 -1.433703 0 CHG=1 VAL=3
M  V30 12 C -0.644332 4.511296 -2.954264 0
M  V30 13 O -0.468761 5.493640 -0.340947 0 CHG=-1 VAL=1
M  V30 14 N -0.674594 2.354141 0.008307 0
M  V30 15 C -0.415837 1.060472 0.284635 0
M  V30 16 C -1.169646 0.135661 1.136063 0
M  V30 17 C -1.805167 -0.985278 0.646848 0
M  V30 18 C -2.487492 -1.801512 1.519310 0
M  V30 19 C -2.536295 -1.506726 2.856074 0
M  V30 20 F -3.220847 -2.332465 3.707694 0
M  V30 21 C -1.902264 -0.379597 3.375617 0
M  V30 22 C -1.205877 0.456705 2.497394 0
M  V30 23 C 1.588820 -1.385181 -1.467587 0
M  V30 24 C 2.185630 -2.620756 -1.327975 0
M  V30 25 N 2.540924 -3.016665 -0.091001 0
M  V30 26 H 1.038928 -3.981559 4.667286 0
M  V30 27 H 1.133038 -5.483718 3.712947 0
M  V30 28 H 2.680449 -4.709406 4.295611 0
M  V30 29 H 3.650155 -2.971749 2.768189 0
M  V30 30 H 1.623150 -0.491257 1.821947 0
M  V30 31 H 2.003683 1.918135 -1.703882 0
M  V30 32 H -0.325370 5.281958 -3.652141 0
M  V30 33 H -1.724742 4.610055 -2.642753 0
M  V30 34 H -0.599789 3.478503 -3.393121 0
M  V30 35 H -1.718885 -1.152886 -0.437004 0
M  V30 36 H -2.985762 -2.688137 1.106653 0
M  V30 37 H -1.936286 -0.140779 4.430511 0
M  V30 38 H -0.701279 1.341061 2.866497 0
M  V30 39 H 1.259499 -0.958642 -2.415168 0
M  V30 40 H 2.346963 -3.223612 -2.205604 0
M  V30 END ATOM
M  V30 BEGIN BOND
M  V30 1 1 1 2
M  V30 2 2 2 3
M  V30 3 1 2 4
M  V30 4 1 4 5
M  V30 5 2 5 6
M  V30 6 1 6 7
M  V30 7 1 7 8
M  V30 8 1 8 9
M  V30 9 1 9 10
M  V30 10 1 10 11
M  V30 11 1 11 12
M  V30 12 1 11 13 CFG=1
M  V30 13 2 10 14
M  V30 14 1 14 15
M  V30 15 1 15 16
M  V30 16 2 16 17
M  V30 17 1 17 18
M  V30 18 2 18 19
M  V30 19 1 19 20
M  V30 20 1 19 21
M  V30 21 2 21 22
M  V30 22 2 7 23
M  V30 23 1 23 24
M  V30 24 2 24 25
M  V30 25 1 25 5
M  V30 26 2 15 8
M  V30 27 1 22 16
M  V30 28 1 1 26
M  V30 29 1 1 27
M  V30 30 1 1 28
M  V30 31 1 4 29
M  V30 32 1 6 30
M  V30 33 1 9 31
M  V30 34 1 12 32
M  V30 35 1 12 33
M  V30 36 1 12 34
M  V30 37 1 17 35
M  V30 38 1 18 36
M  V30 39 1 21 37
M  V30 40 1 22 38
M  V30 41 1 23 39
M  V30 42 1 24 40
M  V30 END BOND
M  V30 END CTAB
M  END
>  <Dataset>  (19) 
ChEMBL_Kinases

>  <Ligand_Instance>  (19) 
nan

>  <PDB_ID>  (19) 
nan

>  <Standardized_SMILES>  (19) 
CC(=O)Nc1cc(-c2[nH]c([S@@+](C)[O-])nc2-c2ccc(F)cc2)ccn1

>  <Name>  (19) 
nan

>  <Pocket>  (19) 
nan

>  <ATP_Site>  (19) 
nan

>  <Peripheral>  (19) 
nan

>  <Num_H_Atoms_ProtBoundConf>  (19) 
nan

>  <Num_Resolved_Atoms>  (19) 
nan

>  <Num_Not_Resolved_Atoms>  (19) 
nan

$$$$
CHEMBL1773428
     RDKit          3D

  0  0  0  0  0  0  0  0  0  0999 V3000
M  V30 BEGIN CTAB
M  V30 COUNTS 40 42 0 0 0
M  V30 BEGIN ATOM
M  V30 1 C 2.778208 -4.310221 4.002298 0
M  V30 2 C 2.336410 -3.352285 2.988087 0
M  V30 3 O 1.847908 -2.301755 3.455544 0
M  V30 4 N 2.413165 -3.510350 1.601939 0
M  V30 5 C 2.011841 -2.639827 0.569005 0
M  V30 6 C 1.441832 -1.412900 0.698795 0
M  V30 7 C 1.068881 -0.603485 -0.353430 0
M  V30 8 C 0.461959 0.702654 -0.152772 0
M  V30 9 N 1.080678 1.821044 -0.585083 0
M  V30 10 C 0.274634 2.873005 -0.255534 0
M  V30 11 S 0.443171 4.610131 -0.506857 0 CHG=1 VAL=3
M  V30 12 C -0.292259 5.028643 -2.069537 0
M  V30 13 O 2.069176 5.023293 -0.595399 0 CHG=-1 VAL=1
M  V30 14 N -0.822534 2.391902 0.371197 0
M  V30 15 C -0.734323 1.042374 0.450088 0
M  V30 16 C -1.595695 0.001661 1.004141 0
M  V30 17 C -2.213225 -1.029224 0.314578 0
M  V30 18 C -2.995894 -1.925424 1.005541 0
M  V30 19 C -3.196729 -1.843726 2.371384 0
M  V30 20 F -3.978645 -2.762183 2.972793 0
M  V30 21 C -2.568498 -0.805934 3.031227 0
M  V30 22 C -1.768715 0.125212 2.383628 0
M  V30 23 C 1.275903 -1.041947 -1.649471 0
M  V30 24 C 1.851810 -2.281767 -1.758019 0
M  V30 25 N 2.194985 -3.026971 -0.704173 0
M  V30 26 H 1.867607 -4.749491 4.490911 0
M  V30 27 H 3.312984 -5.187172 3.585844 0
M  V30 28 H 3.351941 -3.774514 4.776496 0
M  V30 29 H 2.844831 -4.439508 1.358651 0
M  V30 30 H 1.255797 -1.017508 1.664709 0
M  V30 31 H 1.980787 1.988614 -1.078001 0
M  V30 32 H -1.389498 5.129895 -1.962959 0
M  V30 33 H 0.143878 5.964021 -2.460595 0
M  V30 34 H -0.078367 4.195478 -2.799336 0
M  V30 35 H -2.016893 -1.036618 -0.744605 0
M  V30 36 H -3.458105 -2.714907 0.421180 0
M  V30 37 H -2.730949 -0.748232 4.103352 0
M  V30 38 H -1.313244 0.912287 2.994327 0
M  V30 39 H 1.001883 -0.446817 -2.507232 0
M  V30 40 H 2.046784 -2.695893 -2.726885 0
M  V30 END ATOM
M  V30 BEGIN BOND
M  V30 1 1 1 2
M  V30 2 2 2 3
M  V30 3 1 2 4
M  V30 4 1 4 5
M  V30 5 2 5 6
M  V30 6 1 6 7
M  V30 7 1 7 8
M  V30 8 1 8 9
M  V30 9 1 9 10
M  V30 10 1 10 11
M  V30 11 1 11 12
M  V30 12 1 11 13 CFG=3
M  V30 13 2 10 14
M  V30 14 1 14 15
M  V30 15 1 15 16
M  V30 16 2 16 17
M  V30 17 1 17 18
M  V30 18 2 18 19
M  V30 19 1 19 20
M  V30 20 1 19 21
M  V30 21 2 21 22
M  V30 22 2 7 23
M  V30 23 1 23 24
M  V30 24 2 24 25
M  V30 25 1 25 5
M  V30 26 2 15 8
M  V30 27 1 22 16
M  V30 28 1 1 26
M  V30 29 1 1 27
M  V30 30 1 1 28
M  V30 31 1 4 29
M  V30 32 1 6 30
M  V30 33 1 9 31
M  V30 34 1 12 32
M  V30 35 1 12 33
M  V30 36 1 12 34
M  V30 37 1 17 35
M  V30 38 1 18 36
M  V30 39 1 21 37
M  V30 40 1 22 38
M  V30 41 1 23 39
M  V30 42 1 24 40
M  V30 END BOND
M  V30 END CTAB
M  END
>  <Dataset>  (20) 
ChEMBL_Kinases

>  <Ligand_Instance>  (20) 
nan

>  <PDB_ID>  (20) 
nan

>  <Standardized_SMILES>  (20) 
CC(=O)Nc1cc(-c2[nH]c([S@+](C)[O-])nc2-c2ccc(F)cc2)ccn1

>  <Name>  (20) 
nan

>  <Pocket>  (20) 
nan

>  <ATP_Site>  (20) 
nan

>  <Peripheral>  (20) 
nan

>  <Num_H_Atoms_ProtBoundConf>  (20) 
nan

>  <Num_Resolved_Atoms>  (20) 
nan

>  <Num_Not_Resolved_Atoms>  (20) 
nan

$$$$
CHEMBL1773429
     RDKit          3D

  0  0  0  0  0  0  0  0  0  0999 V3000
M  V30 BEGIN CTAB
M  V30 COUNTS 50 53 0 0 0
M  V30 BEGIN ATOM
M  V30 1 C 3.496647 1.230551 5.624931 0
M  V30 2 S 4.671781 0.605663 4.431720 0 CHG=1 VAL=3
M  V30 3 O 5.655217 -0.533320 4.968263 0 CHG=-1 VAL=1
M  V30 4 C 3.835784 0.389500 2.885443 0
M  V30 5 N 4.189866 1.064943 1.816151 0
M  V30 6 C 3.278207 1.094222 0.875447 0
M  V30 7 C 3.210255 1.640463 -0.508400 0
M  V30 8 C 3.526728 0.730124 -1.432733 0
M  V30 9 C 3.063728 0.909385 -2.726290 0
M  V30 10 C 2.303214 2.072925 -2.876549 0
M  V30 11 F 1.654923 2.290081 -4.098244 0
M  V30 12 C 2.042415 2.990708 -1.832520 0
M  V30 13 C 2.546115 2.772499 -0.540660 0
M  V30 14 C 2.206711 0.300158 1.488380 0
M  V30 15 C 0.727707 -0.025385 1.241557 0
M  V30 16 C -0.144609 0.313523 2.380854 0
M  V30 17 C -1.460828 0.082424 2.435128 0
M  V30 18 N -1.808927 -0.496028 1.325232 0
M  V30 19 C -1.114786 -0.820827 0.270155 0
M  V30 20 N -1.960179 -1.572993 -0.637384 0
M  V30 21 C -3.223691 -1.039755 -1.077235 0
M  V30 22 O -3.496586 0.134413 -0.794181 0
M  V30 23 C -4.197461 -1.955098 -2.007002 0
M  V30 24 C -4.078028 -3.152725 -0.992667 0
M  V30 25 C -4.525690 -2.927508 0.309467 0
M  V30 26 C -3.916925 -3.871005 1.186945 0
M  V30 27 C -3.066322 -4.745050 0.754839 0
M  V30 28 F -2.317617 -5.364503 1.753702 0
M  V30 29 C -2.652574 -5.019210 -0.514867 0
M  V30 30 C -3.248789 -4.132069 -1.417941 0
M  V30 31 C 0.157639 -0.611225 0.164737 0
M  V30 32 N 2.649725 -0.110846 2.756254 0
M  V30 33 H 2.605799 0.543066 5.540345 0
M  V30 34 H 3.900701 1.174959 6.655451 0
M  V30 35 H 3.137967 2.205037 5.354691 0
M  V30 36 H 4.135026 -0.110787 -1.261895 0
M  V30 37 H 3.277230 0.263979 -3.574534 0
M  V30 38 H 1.490859 3.935179 -2.044878 0
M  V30 39 H 2.422969 3.430644 0.248218 0
M  V30 40 H 0.255242 1.033359 3.172945 0
M  V30 41 H -2.095159 0.380479 3.332037 0
M  V30 42 H -1.589795 -2.470225 -1.045896 0
M  V30 43 H -5.186554 -1.500305 -1.807705 0
M  V30 44 H -3.923375 -2.100240 -2.957966 0
M  V30 45 H -5.204195 -2.183613 0.595200 0
M  V30 46 H -4.236721 -3.753321 2.208977 0
M  V30 47 H -1.995931 -5.798348 -0.787342 0
M  V30 48 H -3.113965 -4.285342 -2.493612 0
M  V30 49 H 0.788860 -0.849876 -0.636864 0
M  V30 50 H 2.228912 -0.800118 3.459556 0
M  V30 END ATOM
M  V30 BEGIN BOND
M  V30 1 1 1 2
M  V30 2 1 2 3
M  V30 3 1 2 4
M  V30 4 2 4 5
M  V30 5 1 5 6
M  V30 6 1 6 7
M  V30 7 2 7 8
M  V30 8 1 8 9
M  V30 9 2 9 10
M  V30 10 1 10 11
M  V30 11 1 10 12
M  V30 12 2 12 13
M  V30 13 2 6 14
M  V30 14 1 14 15
M  V30 15 2 15 16
M  V30 16 1 16 17
M  V30 17 2 17 18
M  V30 18 1 18 19
M  V30 19 1 19 20
M  V30 20 1 20 21
M  V30 21 2 21 22
M  V30 22 1 21 23
M  V30 23 1 23 24
M  V30 24 2 24 25
M  V30 25 1 25 26
M  V30 26 2 26 27
M  V30 27 1 27 28
M  V30 28 1 27 29
M  V30 29 2 29 30
M  V30 30 2 19 31
M  V30 31 1 14 32
M  V30 32 1 32 4
M  V30 33 1 13 7
M  V30 34 1 31 15
M  V30 35 1 30 24
M  V30 36 1 1 33
M  V30 37 1 1 34
M  V30 38 1 1 35
M  V30 39 1 8 36
M  V30 40 1 9 37
M  V30 41 1 12 38
M  V30 42 1 13 39
M  V30 43 1 16 40
M  V30 44 1 17 41
M  V30 45 1 20 42
M  V30 46 1 23 43
M  V30 47 1 23 44
M  V30 48 1 25 45
M  V30 49 1 26 46
M  V30 50 1 29 47
M  V30 51 1 30 48
M  V30 52 1 31 49
M  V30 53 1 32 50
M  V30 END BOND
M  V30 END CTAB
M  END
>  <Dataset>  (21) 
ChEMBL_Kinases

>  <Ligand_Instance>  (21) 
nan

>  <PDB_ID>  (21) 
nan

>  <Standardized_SMILES>  (21) 
C[S+]([O-])c1nc(-c2ccc(F)cc2)c(-c2ccnc(NC(=O)Cc3ccc(F)cc3)c2)[nH]1

>  <Name>  (21) 
nan

>  <Pocket>  (21) 
nan

>  <ATP_Site>  (21) 
nan

>  <Peripheral>  (21) 
nan

>  <Num_H_Atoms_ProtBoundConf>  (21) 
nan

>  <Num_Resolved_Atoms>  (21) 
nan

>  <Num_Not_Resolved_Atoms>  (21) 
nan

$$$$
CHEMBL1773439
     RDKit          3D

  0  0  0  0  0  0  0  0  0  0999 V3000
M  V30 BEGIN CTAB
M  V30 COUNTS 51 54 0 0 0
M  V30 BEGIN ATOM
M  V30 1 C 1.413935 -0.071151 6.861763 0
M  V30 2 S 2.968917 0.188659 5.997071 0 CHG=1 VAL=3
M  V30 3 O 3.920754 -1.163813 6.288243 0 CHG=-1 VAL=1
M  V30 4 C 2.541657 0.232443 4.279829 0
M  V30 5 N 2.227552 1.339021 3.561532 0
M  V30 6 C 1.962208 0.912711 2.290992 0
M  V30 7 C 1.585257 1.754787 1.175013 0
M  V30 8 C 0.505845 2.588881 0.984049 0
M  V30 9 C 0.394069 3.291336 -0.197075 0
M  V30 10 C 1.328519 3.186298 -1.195566 0
M  V30 11 F 1.180274 3.894558 -2.341440 0
M  V30 12 C 2.425400 2.357280 -1.036590 0
M  V30 13 C 2.541915 1.643885 0.159399 0
M  V30 14 C 2.124779 -0.454964 2.276349 0
M  V30 15 C 1.955817 -1.399864 1.176758 0
M  V30 16 C 3.060986 -2.024573 0.622137 0
M  V30 17 C 2.826489 -2.909408 -0.407289 0
M  V30 18 N 1.609854 -3.197165 -0.896517 0
M  V30 19 C 0.495327 -2.605306 -0.379995 0
M  V30 20 N -0.789151 -2.922439 -0.887464 0
M  V30 21 C -2.076338 -2.404749 -0.505803 0
M  V30 22 C -2.278528 -0.945203 -0.825797 0
M  V30 23 C -2.665838 -0.866654 -2.298627 0
M  V30 24 C -4.132931 -1.246339 -2.350499 0
M  V30 25 C -4.446215 -2.361088 -1.381957 0
M  V30 26 C -3.219960 -3.186011 -1.057338 0
M  V30 27 C 0.707330 -1.723786 0.642630 0
M  V30 28 N 2.483329 -0.859330 3.513855 0
M  V30 29 H 1.561375 -0.028326 7.943321 0
M  V30 30 H 0.607398 0.575260 6.472387 0
M  V30 31 H 1.094362 -1.118711 6.569261 0
M  V30 32 H -0.151026 2.581917 1.835668 0
M  V30 33 H -0.482978 3.925830 -0.270218 0
M  V30 34 H 3.138268 2.303436 -1.847851 0
M  V30 35 H 3.447037 1.029207 0.158062 0
M  V30 36 H 4.045590 -1.818481 0.987222 0
M  V30 37 H 3.649911 -3.447386 -0.901791 0
M  V30 38 H -0.831338 -3.645884 -1.664783 0
M  V30 39 H -2.078594 -2.442563 0.631493 0
M  V30 40 H -1.442220 -0.291869 -0.586548 0
M  V30 41 H -3.176531 -0.630294 -0.218160 0
M  V30 42 H -2.486380 0.141130 -2.723560 0
M  V30 43 H -2.094878 -1.662973 -2.817370 0
M  V30 44 H -4.704282 -0.352968 -2.028114 0
M  V30 45 H -4.471436 -1.505366 -3.363142 0
M  V30 46 H -4.922851 -1.946730 -0.474535 0
M  V30 47 H -5.180383 -3.034855 -1.865855 0
M  V30 48 H -3.571475 -3.885050 -0.237984 0
M  V30 49 H -2.937586 -3.857928 -1.877156 0
M  V30 50 H -0.094705 -1.214063 1.118390 0
M  V30 51 H 2.679175 -1.848055 3.818258 0
M  V30 END ATOM
M  V30 BEGIN BOND
M  V30 1 1 1 2
M  V30 2 1 2 3
M  V30 3 1 2 4
M  V30 4 2 4 5
M  V30 5 1 5 6
M  V30 6 1 6 7
M  V30 7 2 7 8
M  V30 8 1 8 9
M  V30 9 2 9 10
M  V30 10 1 10 11
M  V30 11 1 10 12
M  V30 12 2 12 13
M  V30 13 2 6 14
M  V30 14 1 14 15
M  V30 15 2 15 16
M  V30 16 1 16 17
M  V30 17 2 17 18
M  V30 18 1 18 19
M  V30 19 1 19 20
M  V30 20 1 20 21
M  V30 21 1 21 22
M  V30 22 1 22 23
M  V30 23 1 23 24
M  V30 24 1 24 25
M  V30 25 1 25 26
M  V30 26 2 19 27
M  V30 27 1 14 28
M  V30 28 1 28 4
M  V30 29 1 13 7
M  V30 30 1 27 15
M  V30 31 1 26 21
M  V30 32 1 1 29
M  V30 33 1 1 30
M  V30 34 1 1 31
M  V30 35 1 8 32
M  V30 36 1 9 33
M  V30 37 1 12 34
M  V30 38 1 13 35
M  V30 39 1 16 36
M  V30 40 1 17 37
M  V30 41 1 20 38
M  V30 42 1 21 39
M  V30 43 1 22 40
M  V30 44 1 22 41
M  V30 45 1 23 42
M  V30 46 1 23 43
M  V30 47 1 24 44
M  V30 48 1 24 45
M  V30 49 1 25 46
M  V30 50 1 25 47
M  V30 51 1 26 48
M  V30 52 1 26 49
M  V30 53 1 27 50
M  V30 54 1 28 51
M  V30 END BOND
M  V30 END CTAB
M  END
>  <Dataset>  (22) 
ChEMBL_Kinases

>  <Ligand_Instance>  (22) 
nan

>  <PDB_ID>  (22) 
nan

>  <Standardized_SMILES>  (22) 
C[S+]([O-])c1nc(-c2ccc(F)cc2)c(-c2ccnc(NC3CCCCC3)c2)[nH]1

>  <Name>  (22) 
nan

>  <Pocket>  (22) 
nan

>  <ATP_Site>  (22) 
nan

>  <Peripheral>  (22) 
nan

>  <Num_H_Atoms_ProtBoundConf>  (22) 
nan

>  <Num_Resolved_Atoms>  (22) 
nan

>  <Num_Not_Resolved_Atoms>  (22) 
nan

$$$$
CHEMBL1773431
     RDKit          3D

  0  0  0  0  0  0  0  0  0  0999 V3000
M  V30 BEGIN CTAB
M  V30 COUNTS 50 53 0 0 0
M  V30 BEGIN ATOM
M  V30 1 C 4.861245 0.760924 5.941579 0
M  V30 2 S 5.286016 0.021323 4.386730 0 CHG=1 VAL=3
M  V30 3 O 6.840094 0.528630 3.987738 0 CHG=-1 VAL=1
M  V30 4 C 4.181332 0.535336 3.127255 0
M  V30 5 N 4.339066 1.432932 2.124555 0
M  V30 6 C 3.229089 1.518847 1.367464 0
M  V30 7 C 2.726978 2.197445 0.201490 0
M  V30 8 C 3.510771 1.877934 -0.914075 0
M  V30 9 C 3.229446 2.381248 -2.180780 0
M  V30 10 C 2.118419 3.228549 -2.291649 0
M  V30 11 F 1.756438 3.778462 -3.490957 0
M  V30 12 C 1.346693 3.543725 -1.196119 0
M  V30 13 C 1.632780 3.034754 0.076211 0
M  V30 14 C 2.291972 0.648355 1.882218 0
M  V30 15 C 0.914296 0.120891 1.719680 0
M  V30 16 C 0.008957 0.284706 2.776087 0
M  V30 17 C -1.263476 -0.208739 2.690608 0
M  V30 18 N -1.610750 -0.854012 1.547285 0
M  V30 19 C -0.715849 -0.996538 0.537597 0
M  V30 20 N -1.348643 -1.740682 -0.505552 0
M  V30 21 C -2.582931 -1.499479 -1.162160 0
M  V30 22 O -3.252721 -0.497827 -0.803688 0
M  V30 23 C -2.960044 -2.486972 -2.234467 0
M  V30 24 C -3.956375 -3.453598 -1.644160 0
M  V30 25 C -5.317499 -3.349594 -1.547534 0
M  V30 26 C -6.065655 -4.376623 -0.964731 0
M  V30 27 C -5.437725 -5.527349 -0.472505 0
M  V30 28 F -6.192814 -6.501132 0.075822 0
M  V30 29 C -4.054708 -5.573678 -0.600946 0
M  V30 30 C -3.289305 -4.588538 -1.162027 0
M  V30 31 C 0.578418 -0.528851 0.555407 0
M  V30 32 N 2.911095 0.054744 2.970154 0
M  V30 33 H 5.738163 0.801612 6.622139 0
M  V30 34 H 4.359580 1.735055 5.776673 0
M  V30 35 H 4.065608 0.115808 6.421921 0
M  V30 36 H 4.390768 1.239828 -0.947138 0
M  V30 37 H 3.769319 2.193447 -3.097636 0
M  V30 38 H 0.473133 4.200931 -1.241013 0
M  V30 39 H 1.109567 3.214465 0.994979 0
M  V30 40 H 0.387633 0.820962 3.651547 0
M  V30 41 H -1.891962 -0.029988 3.572373 0
M  V30 42 H -0.713802 -2.538437 -0.719657 0
M  V30 43 H -3.534584 -1.936928 -3.030875 0
M  V30 44 H -2.113003 -2.965514 -2.711566 0
M  V30 45 H -5.682869 -2.432494 -1.959317 0
M  V30 46 H -7.153549 -4.199638 -0.928135 0
M  V30 47 H -3.573234 -6.486781 -0.216068 0
M  V30 48 H -2.212161 -4.775923 -1.191917 0
M  V30 49 H 1.201042 -0.689967 -0.283807 0
M  V30 50 H 2.567263 -0.673069 3.660233 0
M  V30 END ATOM
M  V30 BEGIN BOND
M  V30 1 1 1 2
M  V30 2 1 2 3 CFG=3
M  V30 3 1 2 4
M  V30 4 2 4 5
M  V30 5 1 5 6
M  V30 6 1 6 7
M  V30 7 2 7 8
M  V30 8 1 8 9
M  V30 9 2 9 10
M  V30 10 1 10 11
M  V30 11 1 10 12
M  V30 12 2 12 13
M  V30 13 2 6 14
M  V30 14 1 14 15
M  V30 15 2 15 16
M  V30 16 1 16 17
M  V30 17 2 17 18
M  V30 18 1 18 19
M  V30 19 1 19 20
M  V30 20 1 20 21
M  V30 21 2 21 22
M  V30 22 1 21 23
M  V30 23 1 23 24
M  V30 24 2 24 25
M  V30 25 1 25 26
M  V30 26 2 26 27
M  V30 27 1 27 28
M  V30 28 1 27 29
M  V30 29 2 29 30
M  V30 30 2 19 31
M  V30 31 1 14 32
M  V30 32 1 32 4
M  V30 33 1 13 7
M  V30 34 1 31 15
M  V30 35 1 30 24
M  V30 36 1 1 33
M  V30 37 1 1 34
M  V30 38 1 1 35
M  V30 39 1 8 36
M  V30 40 1 9 37
M  V30 41 1 12 38
M  V30 42 1 13 39
M  V30 43 1 16 40
M  V30 44 1 17 41
M  V30 45 1 20 42
M  V30 46 1 23 43
M  V30 47 1 23 44
M  V30 48 1 25 45
M  V30 49 1 26 46
M  V30 50 1 29 47
M  V30 51 1 30 48
M  V30 52 1 31 49
M  V30 53 1 32 50
M  V30 END BOND
M  V30 END CTAB
M  END
>  <Dataset>  (23) 
ChEMBL_Kinases

>  <Ligand_Instance>  (23) 
nan

>  <PDB_ID>  (23) 
nan

>  <Standardized_SMILES>  (23) 
C[S@+]([O-])c1nc(-c2ccc(F)cc2)c(-c2ccnc(NC(=O)Cc3ccc(F)cc3)c2)[nH]1

>  <Name>  (23) 
nan

>  <Pocket>  (23) 
nan

>  <ATP_Site>  (23) 
nan

>  <Peripheral>  (23) 
nan

>  <Num_H_Atoms_ProtBoundConf>  (23) 
nan

>  <Num_Resolved_Atoms>  (23) 
nan

>  <Num_Not_Resolved_Atoms>  (23) 
nan

$$$$
CHEMBL1773432
     RDKit          3D

  0  0  0  0  0  0  0  0  0  0999 V3000
M  V30 BEGIN CTAB
M  V30 COUNTS 43 45 0 0 0
M  V30 BEGIN ATOM
M  V30 1 C 1.279498 -5.036374 3.543413 0
M  V30 2 S 2.745579 -4.085921 3.093891 0
M  V30 3 C 2.319887 -2.961631 1.767014 0
M  V30 4 N 2.426708 -3.155990 0.429388 0
M  V30 5 C 1.995358 -2.027127 -0.213553 0
M  V30 6 C 1.899902 -1.703314 -1.620580 0
M  V30 7 C 3.162014 -1.764957 -2.191922 0
M  V30 8 C 3.366826 -1.497639 -3.552964 0
M  V30 9 C 2.252550 -1.167010 -4.309721 0
M  V30 10 F 2.323333 -0.886526 -5.638340 0
M  V30 11 C 0.991842 -1.109654 -3.719940 0
M  V30 12 C 0.801330 -1.376141 -2.373154 0
M  V30 13 C 1.612384 -1.109413 0.707107 0
M  V30 14 C 1.082189 0.258199 0.742717 0
M  V30 15 C 1.688656 1.482511 0.519599 0
M  V30 16 C 0.926160 2.619516 0.626666 0
M  V30 17 N -0.376161 2.577018 0.938093 0
M  V30 18 C -1.005811 1.388360 1.163768 0
M  V30 19 N -2.378503 1.559153 1.483262 0
M  V30 20 C -2.845122 1.543443 2.843747 0
M  V30 21 C -2.177738 2.547113 3.725778 0
M  V30 22 C -2.732187 0.174467 3.475307 0
M  V30 23 C -0.268329 0.212606 1.065255 0
M  V30 24 N 1.818125 -1.700360 1.924525 0
M  V30 25 H 0.589369 -4.434824 4.204879 0
M  V30 26 H 0.664243 -5.329062 2.675123 0
M  V30 27 H 1.568035 -5.987092 4.077492 0
M  V30 28 H 4.119027 -2.012031 -1.709620 0
M  V30 29 H 4.320871 -1.531475 -4.050834 0
M  V30 30 H 0.063013 -0.853694 -4.251879 0
M  V30 31 H -0.105414 -1.361937 -1.817978 0
M  V30 32 H 2.726686 1.354415 0.281125 0
M  V30 33 H 1.472549 3.540387 0.439415 0
M  V30 34 H -3.000449 1.694712 0.646813 0
M  V30 35 H -3.937796 1.801440 2.829589 0
M  V30 36 H -1.125948 2.784606 3.410102 0
M  V30 37 H -2.122984 2.116108 4.765656 0
M  V30 38 H -2.725882 3.509941 3.795304 0
M  V30 39 H -3.480281 0.126217 4.293929 0
M  V30 40 H -2.969984 -0.636025 2.751178 0
M  V30 41 H -1.738882 0.024680 3.943993 0
M  V30 42 H -0.898835 -0.638840 1.269802 0
M  V30 43 H 1.649138 -1.327235 2.905346 0
M  V30 END ATOM
M  V30 BEGIN BOND
M  V30 1 1 1 2
M  V30 2 1 2 3
M  V30 3 2 3 4
M  V30 4 1 4 5
M  V30 5 1 5 6
M  V30 6 2 6 7
M  V30 7 1 7 8
M  V30 8 2 8 9
M  V30 9 1 9 10
M  V30 10 1 9 11
M  V30 11 2 11 12
M  V30 12 2 5 13
M  V30 13 1 13 14
M  V30 14 2 14 15
M  V30 15 1 15 16
M  V30 16 2 16 17
M  V30 17 1 17 18
M  V30 18 1 18 19
M  V30 19 1 19 20
M  V30 20 1 20 21
M  V30 21 1 20 22
M  V30 22 2 18 23
M  V30 23 1 13 24
M  V30 24 1 24 3
M  V30 25 1 12 6
M  V30 26 1 23 14
M  V30 27 1 1 25
M  V30 28 1 1 26
M  V30 29 1 1 27
M  V30 30 1 7 28
M  V30 31 1 8 29
M  V30 32 1 11 30
M  V30 33 1 12 31
M  V30 34 1 15 32
M  V30 35 1 16 33
M  V30 36 1 19 34
M  V30 37 1 20 35
M  V30 38 1 21 36
M  V30 39 1 21 37
M  V30 40 1 21 38
M  V30 41 1 22 39
M  V30 42 1 22 40
M  V30 43 1 22 41
M  V30 44 1 23 42
M  V30 45 1 24 43
M  V30 END BOND
M  V30 END CTAB
M  END
>  <Dataset>  (24) 
ChEMBL_Kinases

>  <Ligand_Instance>  (24) 
nan

>  <PDB_ID>  (24) 
nan

>  <Standardized_SMILES>  (24) 
CSc1nc(-c2ccc(F)cc2)c(-c2ccnc(NC(C)C)c2)[nH]1

>  <Name>  (24) 
nan

>  <Pocket>  (24) 
nan

>  <ATP_Site>  (24) 
nan

>  <Peripheral>  (24) 
nan

>  <Num_H_Atoms_ProtBoundConf>  (24) 
nan

>  <Num_Resolved_Atoms>  (24) 
nan

>  <Num_Not_Resolved_Atoms>  (24) 
nan

$$$$
CHEMBL1773433
     RDKit          3D

  0  0  0  0  0  0  0  0  0  0999 V3000
M  V30 BEGIN CTAB
M  V30 COUNTS 44 46 0 0 0
M  V30 BEGIN ATOM
M  V30 1 C -0.378775 -4.050447 0.721499 0
M  V30 2 C -1.480713 -3.310521 0.036863 0
M  V30 3 C -2.672487 -4.249597 -0.052810 0
M  V30 4 N -1.061190 -2.945845 -1.299616 0
M  V30 5 C 0.141875 -2.203427 -1.156786 0
M  V30 6 C 0.310808 -0.958328 -0.594177 0
M  V30 7 C 1.494027 -0.296964 -0.492210 0
M  V30 8 C 1.602401 1.018371 0.117596 0
M  V30 9 N 2.030282 2.188048 -0.396873 0
M  V30 10 C 1.955547 3.135944 0.537895 0
M  V30 11 S 2.383497 4.826912 0.430881 0 CHG=1 VAL=3
M  V30 12 C 1.046220 5.801876 -0.205740 0
M  V30 13 O 3.715063 5.054017 -0.561164 0 CHG=-1 VAL=1
M  V30 14 N 1.469245 2.565804 1.680035 0
M  V30 15 C 1.246089 1.245755 1.428335 0
M  V30 16 C 0.731115 0.349922 2.441060 0
M  V30 17 C -0.581211 0.683111 2.767648 0
M  V30 18 C -1.302918 -0.031189 3.723641 0
M  V30 19 C -0.692992 -1.102599 4.364532 0
M  V30 20 F -1.291024 -1.867517 5.305919 0
M  V30 21 C 0.604884 -1.429293 4.037964 0
M  V30 22 C 1.322099 -0.724119 3.092203 0
M  V30 23 C 2.624462 -0.944474 -1.004316 0
M  V30 24 C 2.484280 -2.193981 -1.574758 0
M  V30 25 N 1.284088 -2.763842 -1.630058 0
M  V30 26 H -0.450383 -5.141702 0.638658 0
M  V30 27 H 0.629053 -3.723642 0.420289 0
M  V30 28 H -0.478207 -3.801733 1.818435 0
M  V30 29 H -1.825154 -2.446751 0.623633 0
M  V30 30 H -3.633285 -3.671839 0.097284 0
M  V30 31 H -2.656796 -4.701450 -1.055519 0
M  V30 32 H -2.612281 -4.949186 0.786512 0
M  V30 33 H -1.540947 -3.179741 -2.194456 0
M  V30 34 H -0.625599 -0.516095 -0.214073 0
M  V30 35 H 2.366459 2.307615 -1.381762 0
M  V30 36 H 0.187681 5.114232 -0.369140 0
M  V30 37 H 1.298065 6.220399 -1.207564 0
M  V30 38 H 0.783843 6.610320 0.496292 0
M  V30 39 H -1.185952 1.494659 2.350892 0
M  V30 40 H -2.324001 0.193193 4.008513 0
M  V30 41 H 1.154891 -2.264867 4.502036 0
M  V30 42 H 2.343990 -0.885815 2.753069 0
M  V30 43 H 3.598459 -0.468781 -0.953522 0
M  V30 44 H 3.383377 -2.657253 -1.959552 0
M  V30 END ATOM
M  V30 BEGIN BOND
M  V30 1 1 1 2
M  V30 2 1 2 3
M  V30 3 1 2 4
M  V30 4 1 4 5
M  V30 5 2 5 6
M  V30 6 1 6 7
M  V30 7 1 7 8
M  V30 8 1 8 9
M  V30 9 1 9 10
M  V30 10 1 10 11
M  V30 11 1 11 12
M  V30 12 1 11 13
M  V30 13 2 10 14
M  V30 14 1 14 15
M  V30 15 1 15 16
M  V30 16 2 16 17
M  V30 17 1 17 18
M  V30 18 2 18 19
M  V30 19 1 19 20
M  V30 20 1 19 21
M  V30 21 2 21 22
M  V30 22 2 7 23
M  V30 23 1 23 24
M  V30 24 2 24 25
M  V30 25 1 25 5
M  V30 26 2 15 8
M  V30 27 1 22 16
M  V30 28 1 1 26
M  V30 29 1 1 27
M  V30 30 1 1 28
M  V30 31 1 2 29
M  V30 32 1 3 30
M  V30 33 1 3 31
M  V30 34 1 3 32
M  V30 35 1 4 33
M  V30 36 1 6 34
M  V30 37 1 9 35
M  V30 38 1 12 36
M  V30 39 1 12 37
M  V30 40 1 12 38
M  V30 41 1 17 39
M  V30 42 1 18 40
M  V30 43 1 21 41
M  V30 44 1 22 42
M  V30 45 1 23 43
M  V30 46 1 24 44
M  V30 END BOND
M  V30 END CTAB
M  END
>  <Dataset>  (25) 
ChEMBL_Kinases

>  <Ligand_Instance>  (25) 
nan

>  <PDB_ID>  (25) 
nan

>  <Standardized_SMILES>  (25) 
CC(C)Nc1cc(-c2[nH]c([S+](C)[O-])nc2-c2ccc(F)cc2)ccn1

>  <Name>  (25) 
nan

>  <Pocket>  (25) 
nan

>  <ATP_Site>  (25) 
nan

>  <Peripheral>  (25) 
nan

>  <Num_H_Atoms_ProtBoundConf>  (25) 
nan

>  <Num_Resolved_Atoms>  (25) 
nan

>  <Num_Not_Resolved_Atoms>  (25) 
nan

$$$$
CHEMBL1773434
     RDKit          3D

  0  0  0  0  0  0  0  0  0  0999 V3000
M  V30 BEGIN CTAB
M  V30 COUNTS 44 46 0 0 0
M  V30 BEGIN ATOM
M  V30 1 C -0.066393 -5.074472 0.828865 0
M  V30 2 C -1.016205 -3.921768 0.670086 0
M  V30 3 C -2.421097 -4.463159 0.573209 0
M  V30 4 N -0.668860 -3.227894 -0.550166 0
M  V30 5 C 0.604052 -2.605116 -0.629093 0
M  V30 6 C 0.468065 -1.256834 -0.345277 0
M  V30 7 C 1.579987 -0.403219 -0.338674 0
M  V30 8 C 1.564584 1.017337 -0.075414 0
M  V30 9 N 2.019573 2.106915 -0.756300 0
M  V30 10 C 1.776175 3.224635 -0.070610 0
M  V30 11 S 2.258221 4.782272 -0.700875 0 CHG=1 VAL=3
M  V30 12 C 0.946821 5.542799 -1.619481 0
M  V30 13 O 2.542749 5.780805 0.635284 0 CHG=-1 VAL=1
M  V30 14 N 1.147791 2.845387 1.081926 0
M  V30 15 C 1.012284 1.503572 1.092316 0
M  V30 16 C 0.365267 0.885642 2.230577 0
M  V30 17 C -0.984267 1.239483 2.375165 0
M  V30 18 C -1.695866 0.707384 3.424383 0
M  V30 19 C -1.119817 -0.161814 4.335298 0
M  V30 20 F -1.774778 -0.711476 5.383631 0
M  V30 21 C 0.216028 -0.510978 4.191377 0
M  V30 22 C 0.936587 0.020179 3.138985 0
M  V30 23 C 2.830769 -0.953534 -0.626506 0
M  V30 24 C 2.925899 -2.323979 -0.908678 0
M  V30 25 N 1.826052 -3.089976 -0.900891 0
M  V30 26 H -0.452254 -5.917261 0.192527 0
M  V30 27 H 0.958716 -4.781995 0.498896 0
M  V30 28 H -0.064621 -5.439094 1.879194 0
M  V30 29 H -0.870435 -3.275682 1.568844 0
M  V30 30 H -3.167227 -3.619895 0.624426 0
M  V30 31 H -2.514245 -5.034241 -0.358528 0
M  V30 32 H -2.659592 -5.128257 1.433109 0
M  V30 33 H -1.283858 -3.146176 -1.391349 0
M  V30 34 H -0.419616 -0.692086 -0.108144 0
M  V30 35 H 2.473800 1.917800 -1.671239 0
M  V30 36 H -0.024305 5.159342 -1.247399 0
M  V30 37 H 1.010896 5.354546 -2.708306 0
M  V30 38 H 0.961828 6.662468 -1.487111 0
M  V30 39 H -1.485996 1.919414 1.681480 0
M  V30 40 H -2.736560 0.933510 3.598452 0
M  V30 41 H 0.789420 -1.171830 4.822575 0
M  V30 42 H 1.987349 -0.161601 2.901141 0
M  V30 43 H 3.764665 -0.380103 -0.649449 0
M  V30 44 H 3.856299 -2.821873 -1.140671 0
M  V30 END ATOM
M  V30 BEGIN BOND
M  V30 1 1 1 2
M  V30 2 1 2 3
M  V30 3 1 2 4
M  V30 4 1 4 5
M  V30 5 2 5 6
M  V30 6 1 6 7
M  V30 7 1 7 8
M  V30 8 1 8 9
M  V30 9 1 9 10
M  V30 10 1 10 11
M  V30 11 1 11 12
M  V30 12 1 11 13 CFG=1
M  V30 13 2 10 14
M  V30 14 1 14 15
M  V30 15 1 15 16
M  V30 16 2 16 17
M  V30 17 1 17 18
M  V30 18 2 18 19
M  V30 19 1 19 20
M  V30 20 1 19 21
M  V30 21 2 21 22
M  V30 22 2 7 23
M  V30 23 1 23 24
M  V30 24 2 24 25
M  V30 25 1 25 5
M  V30 26 2 15 8
M  V30 27 1 22 16
M  V30 28 1 1 26
M  V30 29 1 1 27
M  V30 30 1 1 28
M  V30 31 1 2 29
M  V30 32 1 3 30
M  V30 33 1 3 31
M  V30 34 1 3 32
M  V30 35 1 4 33
M  V30 36 1 6 34
M  V30 37 1 9 35
M  V30 38 1 12 36
M  V30 39 1 12 37
M  V30 40 1 12 38
M  V30 41 1 17 39
M  V30 42 1 18 40
M  V30 43 1 21 41
M  V30 44 1 22 42
M  V30 45 1 23 43
M  V30 46 1 24 44
M  V30 END BOND
M  V30 END CTAB
M  END
>  <Dataset>  (26) 
ChEMBL_Kinases

>  <Ligand_Instance>  (26) 
nan

>  <PDB_ID>  (26) 
nan

>  <Standardized_SMILES>  (26) 
CC(C)Nc1cc(-c2[nH]c([S@@+](C)[O-])nc2-c2ccc(F)cc2)ccn1

>  <Name>  (26) 
nan

>  <Pocket>  (26) 
nan

>  <ATP_Site>  (26) 
nan

>  <Peripheral>  (26) 
nan

>  <Num_H_Atoms_ProtBoundConf>  (26) 
nan

>  <Num_Resolved_Atoms>  (26) 
nan

>  <Num_Not_Resolved_Atoms>  (26) 
nan

$$$$
CHEMBL1773435
     RDKit          3D

  0  0  0  0  0  0  0  0  0  0999 V3000
M  V30 BEGIN CTAB
M  V30 COUNTS 44 46 0 0 0
M  V30 BEGIN ATOM
M  V30 1 C 0.871106 -5.661399 0.524812 0
M  V30 2 C 0.873455 -4.130143 0.499335 0
M  V30 3 C -0.195912 -3.682188 1.463535 0
M  V30 4 N 0.532483 -3.734021 -0.845705 0
M  V30 5 C 0.461808 -2.380750 -1.212306 0
M  V30 6 C 0.713726 -1.345273 -0.332971 0
M  V30 7 C 0.659019 0.002600 -0.641509 0
M  V30 8 C 0.941067 1.031757 0.352369 0
M  V30 9 N 2.031939 1.799980 0.062368 0
M  V30 10 C 2.197490 2.713258 1.046967 0
M  V30 11 S 3.387537 3.975568 1.278405 0 CHG=1 VAL=3
M  V30 12 C 2.845705 5.499257 0.541177 0
M  V30 13 O 4.858724 3.493373 0.633066 0 CHG=-1 VAL=1
M  V30 14 N 1.212287 2.507184 1.938606 0
M  V30 15 C 0.428937 1.490321 1.546163 0
M  V30 16 C -0.754387 0.815040 2.063239 0
M  V30 17 C -1.968398 0.795998 1.406497 0
M  V30 18 C -3.032661 0.118618 1.997750 0
M  V30 19 C -2.883138 -0.525375 3.220196 0
M  V30 20 F -3.968805 -1.172699 3.746611 0
M  V30 21 C -1.668530 -0.510002 3.883622 0
M  V30 22 C -0.596885 0.168049 3.295492 0
M  V30 23 C 0.325048 0.350533 -1.935541 0
M  V30 24 C 0.074353 -0.671973 -2.811158 0
M  V30 25 N 0.147734 -1.952456 -2.437102 0
M  V30 26 H 0.048965 -5.978429 -0.153520 0
M  V30 27 H 1.836519 -6.033280 0.140340 0
M  V30 28 H 0.651728 -5.967898 1.556535 0
M  V30 29 H 1.878877 -3.790482 0.812511 0
M  V30 30 H 0.212456 -3.119685 2.343293 0
M  V30 31 H -0.907140 -3.017029 0.926870 0
M  V30 32 H -0.792064 -4.534306 1.862523 0
M  V30 33 H 0.320164 -4.437335 -1.615858 0
M  V30 34 H 0.983254 -1.554168 0.702407 0
M  V30 35 H 2.751122 1.849501 -0.718659 0
M  V30 36 H 3.714213 6.095234 0.230855 0
M  V30 37 H 2.233397 6.026749 1.310745 0
M  V30 38 H 2.142133 5.254849 -0.300039 0
M  V30 39 H -2.061575 1.310623 0.444651 0
M  V30 40 H -3.974575 0.131148 1.439472 0
M  V30 41 H -1.546502 -1.011870 4.839161 0
M  V30 42 H 0.336308 0.159229 3.841351 0
M  V30 43 H 0.272458 1.393183 -2.215558 0
M  V30 44 H -0.195558 -0.442110 -3.853407 0
M  V30 END ATOM
M  V30 BEGIN BOND
M  V30 1 1 1 2
M  V30 2 1 2 3
M  V30 3 1 2 4
M  V30 4 1 4 5
M  V30 5 2 5 6
M  V30 6 1 6 7
M  V30 7 1 7 8
M  V30 8 1 8 9
M  V30 9 1 9 10
M  V30 10 1 10 11
M  V30 11 1 11 12
M  V30 12 1 11 13 CFG=3
M  V30 13 2 10 14
M  V30 14 1 14 15
M  V30 15 1 15 16
M  V30 16 2 16 17
M  V30 17 1 17 18
M  V30 18 2 18 19
M  V30 19 1 19 20
M  V30 20 1 19 21
M  V30 21 2 21 22
M  V30 22 2 7 23
M  V30 23 1 23 24
M  V30 24 2 24 25
M  V30 25 1 25 5
M  V30 26 2 15 8
M  V30 27 1 22 16
M  V30 28 1 1 26
M  V30 29 1 1 27
M  V30 30 1 1 28
M  V30 31 1 2 29
M  V30 32 1 3 30
M  V30 33 1 3 31
M  V30 34 1 3 32
M  V30 35 1 4 33
M  V30 36 1 6 34
M  V30 37 1 9 35
M  V30 38 1 12 36
M  V30 39 1 12 37
M  V30 40 1 12 38
M  V30 41 1 17 39
M  V30 42 1 18 40
M  V30 43 1 21 41
M  V30 44 1 22 42
M  V30 45 1 23 43
M  V30 46 1 24 44
M  V30 END BOND
M  V30 END CTAB
M  END
>  <Dataset>  (27) 
ChEMBL_Kinases

>  <Ligand_Instance>  (27) 
nan

>  <PDB_ID>  (27) 
nan

>  <Standardized_SMILES>  (27) 
CC(C)Nc1cc(-c2[nH]c([S@+](C)[O-])nc2-c2ccc(F)cc2)ccn1

>  <Name>  (27) 
nan

>  <Pocket>  (27) 
nan

>  <ATP_Site>  (27) 
nan

>  <Peripheral>  (27) 
nan

>  <Num_H_Atoms_ProtBoundConf>  (27) 
nan

>  <Num_Resolved_Atoms>  (27) 
nan

>  <Num_Not_Resolved_Atoms>  (27) 
nan

$$$$
CHEMBL1773436
     RDKit          3D

  0  0  0  0  0  0  0  0  0  0999 V3000
M  V30 BEGIN CTAB
M  V30 COUNTS 49 51 0 0 0
M  V30 BEGIN ATOM
M  V30 1 C -1.496197 -4.983280 3.875746 0
M  V30 2 C -1.007731 -3.920952 2.917373 0
M  V30 3 C -2.183511 -3.093073 2.469744 0
M  V30 4 N -0.376843 -4.488282 1.745696 0
M  V30 5 C 0.192746 -3.720256 0.693123 0
M  V30 6 C 0.211471 -2.357268 0.687371 0
M  V30 7 C 0.775476 -1.654956 -0.357545 0
M  V30 8 C 0.839671 -0.200575 -0.448991 0
M  V30 9 N 2.044333 0.438567 -0.464244 0
M  V30 10 C 1.767936 1.760604 -0.553280 0
M  V30 11 S 2.996707 3.063460 -0.608353 0
M  V30 12 C 3.350706 3.588817 1.095800 0
M  V30 13 C 2.125908 4.232701 1.664732 0
M  V30 14 C 4.589373 4.415281 1.215299 0
M  V30 15 N 0.425428 1.951677 -0.593282 0
M  V30 16 C -0.191062 0.739370 -0.529731 0
M  V30 17 C -1.578017 0.291680 -0.531140 0
M  V30 18 C -1.869195 -0.498625 -1.649549 0
M  V30 19 C -3.135864 -1.036697 -1.856799 0
M  V30 20 C -4.129853 -0.784051 -0.935217 0
M  V30 21 F -5.400499 -1.272827 -1.061642 0
M  V30 22 C -3.826214 -0.007655 0.154335 0
M  V30 23 C -2.591815 0.527354 0.373342 0
M  V30 24 C 1.332692 -2.352727 -1.419614 0
M  V30 25 C 1.306732 -3.715474 -1.399795 0
M  V30 26 N 0.745869 -4.345503 -0.359555 0
M  V30 27 H -1.911026 -5.835934 3.320461 0
M  V30 28 H -0.711408 -5.290566 4.610765 0
M  V30 29 H -2.311007 -4.525917 4.484339 0
M  V30 30 H -0.225541 -3.308366 3.414362 0
M  V30 31 H -2.227340 -3.055329 1.372190 0
M  V30 32 H -3.117227 -3.584546 2.815640 0
M  V30 33 H -2.091872 -2.085435 2.931148 0
M  V30 34 H -0.351704 -5.530174 1.695675 0
M  V30 35 H -0.201526 -1.789302 1.479054 0
M  V30 36 H 2.998795 0.059264 -0.420552 0
M  V30 37 H 3.529050 2.657332 1.707768 0
M  V30 38 H 1.243510 3.714573 1.242625 0
M  V30 39 H 2.111954 4.066957 2.754778 0
M  V30 40 H 2.084955 5.304308 1.373630 0
M  V30 41 H 5.471818 3.741417 1.158987 0
M  V30 42 H 4.650104 5.222834 0.470635 0
M  V30 43 H 4.581658 4.855981 2.236212 0
M  V30 44 H -1.147328 -0.757211 -2.438814 0
M  V30 45 H -3.362782 -1.649380 -2.723812 0
M  V30 46 H -4.582107 0.206546 0.891130 0
M  V30 47 H -2.262804 1.146709 1.197494 0
M  V30 48 H 1.793318 -1.872201 -2.274196 0
M  V30 49 H 1.713161 -4.376319 -2.177743 0
M  V30 END ATOM
M  V30 BEGIN BOND
M  V30 1 1 1 2
M  V30 2 1 2 3
M  V30 3 1 2 4
M  V30 4 1 4 5
M  V30 5 2 5 6
M  V30 6 1 6 7
M  V30 7 1 7 8
M  V30 8 1 8 9
M  V30 9 1 9 10
M  V30 10 1 10 11
M  V30 11 1 11 12
M  V30 12 1 12 13
M  V30 13 1 12 14
M  V30 14 2 10 15
M  V30 15 1 15 16
M  V30 16 1 16 17
M  V30 17 2 17 18
M  V30 18 1 18 19
M  V30 19 2 19 20
M  V30 20 1 20 21
M  V30 21 1 20 22
M  V30 22 2 22 23
M  V30 23 2 7 24
M  V30 24 1 24 25
M  V30 25 2 25 26
M  V30 26 1 26 5
M  V30 27 2 16 8
M  V30 28 1 23 17
M  V30 29 1 1 27
M  V30 30 1 1 28
M  V30 31 1 1 29
M  V30 32 1 2 30
M  V30 33 1 3 31
M  V30 34 1 3 32
M  V30 35 1 3 33
M  V30 36 1 4 34
M  V30 37 1 6 35
M  V30 38 1 9 36
M  V30 39 1 12 37
M  V30 40 1 13 38
M  V30 41 1 13 39
M  V30 42 1 13 40
M  V30 43 1 14 41
M  V30 44 1 14 42
M  V30 45 1 14 43
M  V30 46 1 18 44
M  V30 47 1 19 45
M  V30 48 1 22 46
M  V30 49 1 23 47
M  V30 50 1 24 48
M  V30 51 1 25 49
M  V30 END BOND
M  V30 END CTAB
M  END
>  <Dataset>  (28) 
ChEMBL_Kinases

>  <Ligand_Instance>  (28) 
nan

>  <PDB_ID>  (28) 
nan

>  <Standardized_SMILES>  (28) 
CC(C)Nc1cc(-c2[nH]c(SC(C)C)nc2-c2ccc(F)cc2)ccn1

>  <Name>  (28) 
nan

>  <Pocket>  (28) 
nan

>  <ATP_Site>  (28) 
nan

>  <Peripheral>  (28) 
nan

>  <Num_H_Atoms_ProtBoundConf>  (28) 
nan

>  <Num_Resolved_Atoms>  (28) 
nan

>  <Num_Not_Resolved_Atoms>  (28) 
nan

$$$$
CHEMBL1773437
     RDKit          3D

  0  0  0  0  0  0  0  0  0  0999 V3000
M  V30 BEGIN CTAB
M  V30 COUNTS 50 52 0 0 0
M  V30 BEGIN ATOM
M  V30 1 C 0.914578 -5.012092 4.255606 0
M  V30 2 C 0.955106 -3.923398 3.184308 0
M  V30 3 C 1.843469 -2.830452 3.691662 0
M  V30 4 N 1.442926 -4.513591 1.953865 0
M  V30 5 C 1.557327 -3.753676 0.761820 0
M  V30 6 C 1.196848 -2.429467 0.708955 0
M  V30 7 C 1.292178 -1.656745 -0.429186 0
M  V30 8 C 0.924363 -0.251627 -0.557189 0
M  V30 9 N 1.698453 0.831702 -0.787865 0
M  V30 10 C 0.907590 1.924325 -0.822916 0
M  V30 11 S 1.622452 3.497301 -1.108814 0 CHG=1 VAL=3
M  V30 12 O 1.631625 3.801506 -2.742984 0 CHG=-1 VAL=1
M  V30 13 C 0.687587 4.740779 -0.251949 0
M  V30 14 C 0.665850 4.494832 1.235672 0
M  V30 15 C -0.768683 4.670505 -0.726530 0
M  V30 16 N -0.358928 1.526914 -0.614655 0
M  V30 17 C -0.390807 0.174005 -0.444150 0
M  V30 18 C -1.661470 -0.498356 -0.202190 0
M  V30 19 C -2.139971 -1.184147 0.894234 0
M  V30 20 C -3.389799 -1.745026 0.882600 0
M  V30 21 C -4.236962 -1.659720 -0.213422 0
M  V30 22 F -5.438148 -2.262123 -0.076665 0
M  V30 23 C -3.763810 -0.971796 -1.320068 0
M  V30 24 C -2.505975 -0.403396 -1.317570 0
M  V30 25 C 1.782351 -2.283947 -1.560001 0
M  V30 26 C 2.150993 -3.613166 -1.530677 0
M  V30 27 N 2.024581 -4.293366 -0.375946 0
M  V30 28 H 1.901028 -5.490470 4.327086 0
M  V30 29 H 0.583115 -4.587590 5.228749 0
M  V30 30 H 0.147278 -5.742682 3.925998 0
M  V30 31 H -0.059809 -3.525310 2.999845 0
M  V30 32 H 2.312956 -3.107439 4.664855 0
M  V30 33 H 1.214031 -1.930803 3.946141 0
M  V30 34 H 2.657499 -2.535556 2.992967 0
M  V30 35 H 1.722480 -5.517983 1.918359 0
M  V30 36 H 0.817877 -1.936080 1.584812 0
M  V30 37 H 2.724873 0.692771 -0.899801 0
M  V30 38 H 1.050498 5.744872 -0.473699 0
M  V30 39 H -0.141733 5.104750 1.679811 0
M  V30 40 H 1.639531 4.742777 1.685401 0
M  V30 41 H 0.393507 3.430031 1.428457 0
M  V30 42 H -1.206429 3.739416 -0.320661 0
M  V30 43 H -1.353370 5.549770 -0.402495 0
M  V30 44 H -0.794185 4.582590 -1.836836 0
M  V30 45 H -1.440839 -1.206044 1.690692 0
M  V30 46 H -3.619038 -2.251778 1.822979 0
M  V30 47 H -4.455738 -0.932811 -2.141886 0
M  V30 48 H -2.277273 0.097321 -2.245099 0
M  V30 49 H 1.902084 -1.793309 -2.497734 0
M  V30 50 H 2.539455 -4.143658 -2.394618 0
M  V30 END ATOM
M  V30 BEGIN BOND
M  V30 1 1 1 2
M  V30 2 1 2 3
M  V30 3 1 2 4
M  V30 4 1 4 5
M  V30 5 2 5 6
M  V30 6 1 6 7
M  V30 7 1 7 8
M  V30 8 1 8 9
M  V30 9 1 9 10
M  V30 10 1 10 11
M  V30 11 1 11 12
M  V30 12 1 11 13
M  V30 13 1 13 14
M  V30 14 1 13 15
M  V30 15 2 10 16
M  V30 16 1 16 17
M  V30 17 1 17 18
M  V30 18 2 18 19
M  V30 19 1 19 20
M  V30 20 2 20 21
M  V30 21 1 21 22
M  V30 22 1 21 23
M  V30 23 2 23 24
M  V30 24 2 7 25
M  V30 25 1 25 26
M  V30 26 2 26 27
M  V30 27 1 27 5
M  V30 28 2 17 8
M  V30 29 1 24 18
M  V30 30 1 1 28
M  V30 31 1 1 29
M  V30 32 1 1 30
M  V30 33 1 2 31
M  V30 34 1 3 32
M  V30 35 1 3 33
M  V30 36 1 3 34
M  V30 37 1 4 35
M  V30 38 1 6 36
M  V30 39 1 9 37
M  V30 40 1 13 38
M  V30 41 1 14 39
M  V30 42 1 14 40
M  V30 43 1 14 41
M  V30 44 1 15 42
M  V30 45 1 15 43
M  V30 46 1 15 44
M  V30 47 1 19 45
M  V30 48 1 20 46
M  V30 49 1 23 47
M  V30 50 1 24 48
M  V30 51 1 25 49
M  V30 52 1 26 50
M  V30 END BOND
M  V30 END CTAB
M  END
>  <Dataset>  (29) 
ChEMBL_Kinases

>  <Ligand_Instance>  (29) 
nan

>  <PDB_ID>  (29) 
nan

>  <Standardized_SMILES>  (29) 
CC(C)Nc1cc(-c2[nH]c([S+]([O-])C(C)C)nc2-c2ccc(F)cc2)ccn1

>  <Name>  (29) 
nan

>  <Pocket>  (29) 
nan

>  <ATP_Site>  (29) 
nan

>  <Peripheral>  (29) 
nan

>  <Num_H_Atoms_ProtBoundConf>  (29) 
nan

>  <Num_Resolved_Atoms>  (29) 
nan

>  <Num_Not_Resolved_Atoms>  (29) 
nan

$$$$
CHEMBL1773438
     RDKit          3D

  0  0  0  0  0  0  0  0  0  0999 V3000
M  V30 BEGIN CTAB
M  V30 COUNTS 50 52 0 0 0
M  V30 BEGIN ATOM
M  V30 1 C 1.340812 -3.483967 5.053633 0
M  V30 2 C 1.050251 -2.739760 3.745844 0
M  V30 3 C -0.403462 -2.395468 3.688443 0
M  V30 4 N 1.456482 -3.620366 2.670009 0
M  V30 5 C 1.335256 -3.209989 1.332002 0
M  V30 6 C 0.850401 -1.977027 0.946778 0
M  V30 7 C 0.710618 -1.527078 -0.352177 0
M  V30 8 C 0.182527 -0.195522 -0.647740 0
M  V30 9 N 0.843134 0.881360 -0.191439 0
M  V30 10 C 0.180611 1.986894 -0.579132 0
M  V30 11 S 0.298132 3.729536 -0.447796 0 CHG=1 VAL=3
M  V30 12 O 1.193588 4.304265 -1.748224 0 CHG=-1 VAL=1
M  V30 13 C 1.131179 4.227786 1.027115 0
M  V30 14 C 2.539593 3.714799 1.134585 0
M  V30 15 C 0.408269 3.786513 2.282589 0
M  V30 16 N -0.910403 1.595707 -1.288331 0
M  V30 17 C -0.925612 0.230653 -1.341761 0
M  V30 18 C -1.840647 -0.725501 -1.957296 0
M  V30 19 C -2.528707 -1.620759 -1.147668 0
M  V30 20 C -3.412381 -2.558404 -1.637173 0
M  V30 21 C -3.636964 -2.625759 -2.993764 0
M  V30 22 F -4.486030 -3.517726 -3.529614 0
M  V30 23 C -2.973249 -1.754790 -3.828507 0
M  V30 24 C -2.091425 -0.823088 -3.311441 0
M  V30 25 C 1.083588 -2.370116 -1.377364 0
M  V30 26 C 1.567656 -3.601388 -0.988527 0
M  V30 27 N 1.683450 -3.990635 0.293468 0
M  V30 28 H 2.451185 -3.596695 5.163076 0
M  V30 29 H 0.947827 -2.921909 5.938597 0
M  V30 30 H 0.886586 -4.491731 4.974508 0
M  V30 31 H 1.632074 -1.792526 3.778169 0
M  V30 32 H -0.920453 -2.856267 4.556158 0
M  V30 33 H -0.918741 -2.812644 2.795995 0
M  V30 34 H -0.607112 -1.290087 3.804336 0
M  V30 35 H 1.850311 -4.582023 2.839276 0
M  V30 36 H 0.540012 -1.263093 1.700716 0
M  V30 37 H 1.692804 1.076294 0.357182 0
M  V30 38 H 1.166544 5.340547 1.023012 0
M  V30 39 H 3.128099 4.484043 1.702547 0
M  V30 40 H 3.042886 3.575716 0.164182 0
M  V30 41 H 2.635830 2.790385 1.742028 0
M  V30 42 H 0.833271 4.372985 3.124557 0
M  V30 43 H 0.665314 2.737238 2.484799 0
M  V30 44 H -0.666854 3.992803 2.222701 0
M  V30 45 H -2.367227 -1.585252 -0.080536 0
M  V30 46 H -3.931243 -3.240198 -0.979082 0
M  V30 47 H -3.139752 -1.798010 -4.881981 0
M  V30 48 H -1.542877 -0.111094 -3.944507 0
M  V30 49 H 0.992197 -2.063282 -2.389313 0
M  V30 50 H 1.884174 -4.326809 -1.733667 0
M  V30 END ATOM
M  V30 BEGIN BOND
M  V30 1 1 1 2
M  V30 2 1 2 3
M  V30 3 1 2 4
M  V30 4 1 4 5
M  V30 5 2 5 6
M  V30 6 1 6 7
M  V30 7 1 7 8
M  V30 8 1 8 9
M  V30 9 1 9 10
M  V30 10 1 10 11
M  V30 11 1 11 12 CFG=3
M  V30 12 1 11 13
M  V30 13 1 13 14
M  V30 14 1 13 15
M  V30 15 2 10 16
M  V30 16 1 16 17
M  V30 17 1 17 18
M  V30 18 2 18 19
M  V30 19 1 19 20
M  V30 20 2 20 21
M  V30 21 1 21 22
M  V30 22 1 21 23
M  V30 23 2 23 24
M  V30 24 2 7 25
M  V30 25 1 25 26
M  V30 26 2 26 27
M  V30 27 1 27 5
M  V30 28 2 17 8
M  V30 29 1 24 18
M  V30 30 1 1 28
M  V30 31 1 1 29
M  V30 32 1 1 30
M  V30 33 1 2 31
M  V30 34 1 3 32
M  V30 35 1 3 33
M  V30 36 1 3 34
M  V30 37 1 4 35
M  V30 38 1 6 36
M  V30 39 1 9 37
M  V30 40 1 13 38
M  V30 41 1 14 39
M  V30 42 1 14 40
M  V30 43 1 14 41
M  V30 44 1 15 42
M  V30 45 1 15 43
M  V30 46 1 15 44
M  V30 47 1 19 45
M  V30 48 1 20 46
M  V30 49 1 23 47
M  V30 50 1 24 48
M  V30 51 1 25 49
M  V30 52 1 26 50
M  V30 END BOND
M  V30 END CTAB
M  END
>  <Dataset>  (30) 
ChEMBL_Kinases

>  <Ligand_Instance>  (30) 
nan

>  <PDB_ID>  (30) 
nan

>  <Standardized_SMILES>  (30) 
CC(C)Nc1cc(-c2[nH]c([S@+]([O-])C(C)C)nc2-c2ccc(F)cc2)ccn1

>  <Name>  (30) 
nan

>  <Pocket>  (30) 
nan

>  <ATP_Site>  (30) 
nan

>  <Peripheral>  (30) 
nan

>  <Num_H_Atoms_ProtBoundConf>  (30) 
nan

>  <Num_Resolved_Atoms>  (30) 
nan

>  <Num_Not_Resolved_Atoms>  (30) 
nan

$$$$
CHEMBL1773430
     RDKit          3D

  0  0  0  0  0  0  0  0  0  0999 V3000
M  V30 BEGIN CTAB
M  V30 COUNTS 50 53 0 0 0
M  V30 BEGIN ATOM
M  V30 1 C 5.464410 1.389669 5.064726 0
M  V30 2 S 5.320400 0.048901 3.909029 0 CHG=1 VAL=3
M  V30 3 O 4.895384 -1.378830 4.684605 0 CHG=-1 VAL=1
M  V30 4 C 4.117632 0.471624 2.693767 0
M  V30 5 N 4.469615 1.044763 1.519449 0
M  V30 6 C 3.385165 1.265451 0.761713 0
M  V30 7 C 2.946502 1.792486 -0.525547 0
M  V30 8 C 3.453783 1.052856 -1.584641 0
M  V30 9 C 3.135056 1.411862 -2.888213 0
M  V30 10 C 2.307828 2.514398 -3.087234 0
M  V30 11 F 1.938354 2.941158 -4.320168 0
M  V30 12 C 1.805780 3.247813 -2.034554 0
M  V30 13 C 2.135284 2.874303 -0.725994 0
M  V30 14 C 2.287105 0.809627 1.493651 0
M  V30 15 C 0.814553 0.650058 1.466851 0
M  V30 16 C 0.007912 1.324895 2.380588 0
M  V30 17 C -1.364856 1.123393 2.327413 0
M  V30 18 N -1.870619 0.293577 1.408335 0
M  V30 19 C -1.064402 -0.361034 0.517857 0
M  V30 20 N -1.665865 -1.247544 -0.425586 0
M  V30 21 C -3.051321 -1.533098 -0.413552 0
M  V30 22 O -3.819830 -1.019297 0.432758 0
M  V30 23 C -3.693032 -2.466936 -1.405487 0
M  V30 24 C -4.192373 -3.637435 -0.634974 0
M  V30 25 C -5.412819 -3.715776 -0.005112 0
M  V30 26 C -5.782203 -4.867818 0.690657 0
M  V30 27 C -4.874619 -5.908085 0.713048 0
M  V30 28 F -5.175175 -7.057427 1.373441 0
M  V30 29 C -3.639953 -5.871294 0.094964 0
M  V30 30 C -3.290949 -4.707023 -0.595396 0
M  V30 31 C 0.305223 -0.205112 0.516635 0
M  V30 32 N 2.769999 0.325510 2.680345 0
M  V30 33 H 6.387107 1.342743 5.651196 0
M  V30 34 H 5.333685 2.330883 4.503671 0
M  V30 35 H 4.550824 1.306604 5.726570 0
M  V30 36 H 4.096925 0.185442 -1.571257 0
M  V30 37 H 3.459993 0.924534 -3.795206 0
M  V30 38 H 1.162203 4.111526 -2.103797 0
M  V30 39 H 1.823603 3.344425 0.207850 0
M  V30 40 H 0.578178 1.965681 3.059975 0
M  V30 41 H -1.915107 1.682211 3.066723 0
M  V30 42 H -1.086832 -1.708337 -1.150106 0
M  V30 43 H -4.543240 -1.947762 -1.898653 0
M  V30 44 H -2.929367 -2.774405 -2.135143 0
M  V30 45 H -6.066114 -2.862016 -0.068323 0
M  V30 46 H -6.728080 -4.948007 1.188177 0
M  V30 47 H -2.922188 -6.699522 0.114023 0
M  V30 48 H -2.319821 -4.674316 -1.083102 0
M  V30 49 H 0.955385 -0.711175 -0.180494 0
M  V30 50 H 2.402393 -0.115582 3.553785 0
M  V30 END ATOM
M  V30 BEGIN BOND
M  V30 1 1 1 2
M  V30 2 1 2 3 CFG=1
M  V30 3 1 2 4
M  V30 4 2 4 5
M  V30 5 1 5 6
M  V30 6 1 6 7
M  V30 7 2 7 8
M  V30 8 1 8 9
M  V30 9 2 9 10
M  V30 10 1 10 11
M  V30 11 1 10 12
M  V30 12 2 12 13
M  V30 13 2 6 14
M  V30 14 1 14 15
M  V30 15 2 15 16
M  V30 16 1 16 17
M  V30 17 2 17 18
M  V30 18 1 18 19
M  V30 19 1 19 20
M  V30 20 1 20 21
M  V30 21 2 21 22
M  V30 22 1 21 23
M  V30 23 1 23 24
M  V30 24 2 24 25
M  V30 25 1 25 26
M  V30 26 2 26 27
M  V30 27 1 27 28
M  V30 28 1 27 29
M  V30 29 2 29 30
M  V30 30 2 19 31
M  V30 31 1 14 32
M  V30 32 1 32 4
M  V30 33 1 13 7
M  V30 34 1 31 15
M  V30 35 1 30 24
M  V30 36 1 1 33
M  V30 37 1 1 34
M  V30 38 1 1 35
M  V30 39 1 8 36
M  V30 40 1 9 37
M  V30 41 1 12 38
M  V30 42 1 13 39
M  V30 43 1 16 40
M  V30 44 1 17 41
M  V30 45 1 20 42
M  V30 46 1 23 43
M  V30 47 1 23 44
M  V30 48 1 25 45
M  V30 49 1 26 46
M  V30 50 1 29 47
M  V30 51 1 30 48
M  V30 52 1 31 49
M  V30 53 1 32 50
M  V30 END BOND
M  V30 END CTAB
M  END
>  <Dataset>  (31) 
ChEMBL_Kinases

>  <Ligand_Instance>  (31) 
nan

>  <PDB_ID>  (31) 
nan

>  <Standardized_SMILES>  (31) 
C[S@@+]([O-])c1nc(-c2ccc(F)cc2)c(-c2ccnc(NC(=O)Cc3ccc(F)cc3)c2)[nH]1

>  <Name>  (31) 
nan

>  <Pocket>  (31) 
nan

>  <ATP_Site>  (31) 
nan

>  <Peripheral>  (31) 
nan

>  <Num_H_Atoms_ProtBoundConf>  (31) 
nan

>  <Num_Resolved_Atoms>  (31) 
nan

>  <Num_Not_Resolved_Atoms>  (31) 
nan

$$$$
CHEMBL176115
     RDKit          3D

  0  0  0  0  0  0  0  0  0  0999 V3000
M  V30 BEGIN CTAB
M  V30 COUNTS 32 34 0 0 0
M  V30 BEGIN ATOM
M  V30 1 C -2.100602 -5.881551 2.622626 0
M  V30 2 C -1.500878 -4.558280 2.222521 0
M  V30 3 C -0.703448 -3.907755 3.142508 0
M  V30 4 C -0.199401 -2.698387 2.678907 0
M  V30 5 C -0.477228 -2.207515 1.418878 0
M  V30 6 C 0.088440 -0.928542 1.001013 0
M  V30 7 N -0.096346 -0.332034 -0.190554 0
M  V30 8 C 0.578750 0.833561 -0.216872 0
M  V30 9 C 0.720706 1.810959 -1.181250 0
M  V30 10 C 1.510503 2.911104 -0.867055 0
M  V30 11 C 1.706918 3.975704 -1.824653 0
M  V30 12 N 1.168385 4.052870 -3.122323 0
M  V30 13 O 2.390449 5.046193 -1.707584 0
M  V30 14 C 2.132359 3.033494 0.354260 0
M  V30 15 C 1.999374 2.063751 1.328546 0
M  V30 16 C 1.213961 0.975754 1.008182 0
M  V30 17 N 0.885464 -0.133327 1.730532 0
M  V30 18 C -1.284509 -2.917814 0.555270 0
M  V30 19 C -1.819181 -4.127286 0.950968 0
M  V30 20 H -1.939049 -6.587013 1.802980 0
M  V30 21 H -3.204321 -5.772878 2.762085 0
M  V30 22 H -1.679525 -6.238675 3.584495 0
M  V30 23 H -0.512200 -4.326005 4.115068 0
M  V30 24 H 0.439683 -2.125274 3.348440 0
M  V30 25 H 0.241471 1.736475 -2.148436 0
M  V30 26 H 0.302769 4.640880 -3.300517 0
M  V30 27 H 1.289430 3.725759 -4.104268 0
M  V30 28 H 2.745946 3.905776 0.575325 0
M  V30 29 H 2.498208 2.182978 2.280689 0
M  V30 30 H 1.222906 -0.303365 2.702850 0
M  V30 31 H -1.471650 -2.492579 -0.417317 0
M  V30 32 H -2.449495 -4.701274 0.302062 0
M  V30 END ATOM
M  V30 BEGIN BOND
M  V30 1 1 1 2
M  V30 2 2 2 3
M  V30 3 1 3 4
M  V30 4 2 4 5
M  V30 5 1 5 6
M  V30 6 2 6 7
M  V30 7 1 7 8
M  V30 8 2 8 9
M  V30 9 1 9 10
M  V30 10 1 10 11
M  V30 11 1 11 12
M  V30 12 2 11 13
M  V30 13 2 10 14
M  V30 14 1 14 15
M  V30 15 2 15 16
M  V30 16 1 16 17
M  V30 17 1 5 18
M  V30 18 2 18 19
M  V30 19 1 19 2
M  V30 20 1 17 6
M  V30 21 1 16 8
M  V30 22 1 1 20
M  V30 23 1 1 21
M  V30 24 1 1 22
M  V30 25 1 3 23
M  V30 26 1 4 24
M  V30 27 1 9 25
M  V30 28 1 12 26
M  V30 29 1 12 27
M  V30 30 1 14 28
M  V30 31 1 15 29
M  V30 32 1 17 30
M  V30 33 1 18 31
M  V30 34 1 19 32
M  V30 END BOND
M  V30 END CTAB
M  END
>  <Dataset>  (32) 
ChEMBL_Kinases

>  <Ligand_Instance>  (32) 
nan

>  <PDB_ID>  (32) 
nan

>  <Standardized_SMILES>  (32) 
Cc1ccc(-c2nc3cc(C(N)=O)ccc3[nH]2)cc1

>  <Name>  (32) 
nan

>  <Pocket>  (32) 
nan

>  <ATP_Site>  (32) 
nan

>  <Peripheral>  (32) 
nan

>  <Num_H_Atoms_ProtBoundConf>  (32) 
nan

>  <Num_Resolved_Atoms>  (32) 
nan

>  <Num_Not_Resolved_Atoms>  (32) 
nan

$$$$
CHEMBL1761090
     RDKit          3D

  0  0  0  0  0  0  0  0  0  0999 V3000
M  V30 BEGIN CTAB
M  V30 COUNTS 79 83 0 0 0
M  V30 BEGIN ATOM
M  V30 1 C 3.295057 -6.181973 1.966422 0
M  V30 2 C 1.973152 -5.505572 1.734771 0
M  V30 3 O 2.131998 -4.124811 1.921911 0
M  V30 4 C 0.952791 -3.457713 1.768368 0
M  V30 5 C 0.928319 -1.978372 1.932226 0
M  V30 6 N 1.684141 -1.148452 1.116370 0
M  V30 7 C 1.256221 -0.890079 -0.187322 0
M  V30 8 C 0.262768 0.241226 -0.336484 0 CFG=1
M  V30 9 O 0.700470 1.458922 0.102134 0
M  V30 10 C -0.194405 0.377517 -1.771941 0
M  V30 11 N -1.249856 1.309240 -1.954626 0
M  V30 12 C -1.601444 1.465667 -3.377070 0
M  V30 13 C -2.207915 2.830404 -3.466075 0
M  V30 14 C -3.127160 3.166842 -2.351102 0
M  V30 15 C -3.525220 2.038191 -1.474191 0
M  V30 16 C -4.824443 1.467107 -2.060423 0
M  V30 17 C -5.298570 0.275231 -1.275288 0
M  V30 18 C -5.095693 0.425126 0.175728 0
M  V30 19 C -4.400615 1.512267 0.716861 0
M  V30 20 C -4.263981 1.563015 2.104528 0
M  V30 21 C -4.802501 0.565243 2.904965 0
M  V30 22 C -5.489142 -0.506815 2.352051 0
M  V30 23 N -6.092293 -1.580620 2.907146 0
M  V30 24 N -6.616002 -2.328700 1.947886 0
M  V30 25 C -6.342126 -1.721917 0.761145 0
M  V30 26 C -5.627291 -0.561401 0.978930 0
M  V30 27 O -3.887274 2.476885 -0.158592 0
M  V30 28 C -2.512954 0.949176 -1.339001 0
M  V30 29 S 3.105236 -0.442913 1.581750 0
M  V30 30 O 3.409376 -0.604533 3.072803 0
M  V30 31 O 2.913522 1.083004 1.470031 0
M  V30 32 C 4.558318 -0.817042 0.748736 0
M  V30 33 C 5.374371 -1.890596 1.011305 0
M  V30 34 C 5.082777 -2.882620 2.044592 0
M  V30 35 C 6.562322 -2.164541 0.335202 0
M  V30 36 C 6.999241 -1.340517 -0.673008 0
M  V30 37 C 6.203627 -0.262339 -0.954343 0
M  V30 38 C 5.005655 0.026358 -0.282293 0
M  V30 39 C 4.336750 1.259953 -0.745790 0
M  V30 40 H 3.151441 -7.221338 2.377355 0
M  V30 41 H 3.931857 -6.272408 1.079981 0
M  V30 42 H 3.894196 -5.664830 2.761090 0
M  V30 43 H 1.233213 -5.846584 2.459202 0
M  V30 44 H 1.674797 -5.672760 0.670455 0
M  V30 45 H 0.275019 -3.863093 2.593979 0
M  V30 46 H 0.438068 -3.771770 0.801819 0
M  V30 47 H -0.176395 -1.706813 1.718239 0
M  V30 48 H 1.089553 -1.807768 3.044032 0
M  V30 49 H 0.725476 -1.832235 -0.555229 0
M  V30 50 H 2.099247 -0.796271 -0.894768 0
M  V30 51 H -0.613999 -0.044558 0.276686 0
M  V30 52 H 0.024792 2.002458 0.579775 0
M  V30 53 H -0.472459 -0.608632 -2.209952 0
M  V30 54 H 0.671783 0.714707 -2.397392 0
M  V30 55 H -0.691597 1.440943 -4.007586 0
M  V30 56 H -2.313804 0.657142 -3.610155 0
M  V30 57 H -1.333256 3.546490 -3.498306 0
M  V30 58 H -2.680839 2.938014 -4.459419 0
M  V30 59 H -2.628113 3.929752 -1.701958 0
M  V30 60 H -4.021082 3.698384 -2.786494 0
M  V30 61 H -5.536105 2.306431 -2.054323 0
M  V30 62 H -4.593714 1.224924 -3.115006 0
M  V30 63 H -6.388358 0.160252 -1.458032 0
M  V30 64 H -4.824188 -0.665875 -1.655306 0
M  V30 65 H -3.734550 2.391353 2.521957 0
M  V30 66 H -4.679359 0.633372 3.986711 0
M  V30 67 H -6.090978 -1.711920 3.961826 0
M  V30 68 H -6.612120 -2.043756 -0.238409 0
M  V30 69 H -2.873251 0.059183 -1.936207 0
M  V30 70 H -2.341534 0.704430 -0.297414 0
M  V30 71 H 4.885079 -3.865544 1.515462 0
M  V30 72 H 4.334915 -2.652966 2.783425 0
M  V30 73 H 6.026574 -3.118767 2.625666 0
M  V30 74 H 7.203236 -3.022128 0.551194 0
M  V30 75 H 7.910926 -1.517676 -1.220389 0
M  V30 76 H 6.568805 0.385429 -1.763840 0
M  V30 77 H 4.648219 1.471848 -1.814014 0
M  V30 78 H 4.712862 2.151354 -0.189799 0
M  V30 79 H 3.248870 1.215097 -0.789366 0
M  V30 END ATOM
M  V30 BEGIN BOND
M  V30 1 1 1 2
M  V30 2 1 2 3
M  V30 3 1 3 4
M  V30 4 1 4 5
M  V30 5 1 5 6
M  V30 6 1 6 7
M  V30 7 1 7 8
M  V30 8 1 8 9
M  V30 9 1 8 10
M  V30 10 1 10 11
M  V30 11 1 11 12
M  V30 12 1 12 13
M  V30 13 1 13 14
M  V30 14 1 14 15
M  V30 15 1 15 16
M  V30 16 1 16 17
M  V30 17 1 17 18
M  V30 18 2 18 19
M  V30 19 1 19 20
M  V30 20 2 20 21
M  V30 21 1 21 22
M  V30 22 1 22 23
M  V30 23 1 23 24
M  V30 24 2 24 25
M  V30 25 1 25 26
M  V30 26 1 19 27
M  V30 27 1 15 28
M  V30 28 1 6 29
M  V30 29 2 29 30
M  V30 30 2 29 31
M  V30 31 1 29 32
M  V30 32 2 32 33
M  V30 33 1 33 34
M  V30 34 1 33 35
M  V30 35 2 35 36
M  V30 36 1 36 37
M  V30 37 2 37 38
M  V30 38 1 38 39
M  V30 39 1 28 11
M  V30 40 1 38 32
M  V30 41 1 27 15
M  V30 42 1 26 18
M  V30 43 2 26 22
M  V30 44 1 1 40
M  V30 45 1 1 41
M  V30 46 1 1 42
M  V30 47 1 2 43
M  V30 48 1 2 44
M  V30 49 1 4 45
M  V30 50 1 4 46
M  V30 51 1 5 47
M  V30 52 1 5 48
M  V30 53 1 7 49
M  V30 54 1 7 50
M  V30 55 1 8 51 CFG=1
M  V30 56 1 9 52
M  V30 57 1 10 53
M  V30 58 1 10 54
M  V30 59 1 12 55
M  V30 60 1 12 56
M  V30 61 1 13 57
M  V30 62 1 13 58
M  V30 63 1 14 59
M  V30 64 1 14 60
M  V30 65 1 16 61
M  V30 66 1 16 62
M  V30 67 1 17 63
M  V30 68 1 17 64
M  V30 69 1 20 65
M  V30 70 1 21 66
M  V30 71 1 23 67
M  V30 72 1 25 68
M  V30 73 1 28 69
M  V30 74 1 28 70
M  V30 75 1 34 71
M  V30 76 1 34 72
M  V30 77 1 34 73
M  V30 78 1 35 74
M  V30 79 1 36 75
M  V30 80 1 37 76
M  V30 81 1 39 77
M  V30 82 1 39 78
M  V30 83 1 39 79
M  V30 END BOND
M  V30 END CTAB
M  END
>  <Dataset>  (33) 
ChEMBL_Kinases

>  <Ligand_Instance>  (33) 
nan

>  <PDB_ID>  (33) 
nan

>  <Standardized_SMILES>  (33) 
CCOCCN(C[C@@H](O)CN1CCCC2(CCc3c(ccc4[nH]ncc34)O2)C1)S(=O)(=O)c1c(C)cccc1C

>  <Name>  (33) 
nan

>  <Pocket>  (33) 
nan

>  <ATP_Site>  (33) 
nan

>  <Peripheral>  (33) 
nan

>  <Num_H_Atoms_ProtBoundConf>  (33) 
nan

>  <Num_Resolved_Atoms>  (33) 
nan

>  <Num_Not_Resolved_Atoms>  (33) 
nan

$$$$
CHEMBL1761089
     RDKit          3D

  0  0  0  0  0  0  0  0  0  0999 V3000
M  V30 BEGIN CTAB
M  V30 COUNTS 81 85 0 0 0
M  V30 BEGIN ATOM
M  V30 1 C 6.686106 0.221893 3.023450 0
M  V30 2 C 5.997326 -0.975734 3.641165 0
M  V30 3 O 5.447454 -1.837624 2.700853 0
M  V30 4 C 4.508465 -1.106176 1.960303 0
M  V30 5 C 3.916818 -2.058653 0.967854 0
M  V30 6 N 2.916890 -1.487548 0.099451 0
M  V30 7 C 1.885461 -2.460524 -0.055166 0
M  V30 8 C 0.497330 -1.878358 -0.278272 0 CFG=1
M  V30 9 O -0.427702 -2.908447 -0.397005 0
M  V30 10 C 0.144872 -0.857096 0.740398 0
M  V30 11 N -1.106276 -0.159447 0.530695 0
M  V30 12 C -1.238886 0.797920 1.555920 0
M  V30 13 C -2.625235 0.984175 2.088869 0
M  V30 14 C -3.549051 0.979765 0.897163 0
M  V30 15 C -3.559873 -0.430515 0.369258 0
M  V30 16 C -4.351336 -1.266068 1.339387 0
M  V30 17 C -5.063798 -2.426269 0.652651 0
M  V30 18 C -6.100114 -1.829758 -0.252571 0
M  V30 19 C -7.402471 -2.258420 -0.335314 0
M  V30 20 C -8.206329 -1.567955 -1.231096 0
M  V30 21 C -7.756700 -0.515962 -2.001724 0
M  V30 22 C -6.413313 -0.147105 -1.851355 0
M  V30 23 C -5.541112 -0.794593 -0.969759 0
M  V30 24 O -4.230216 -0.392217 -0.861887 0
M  V30 25 C -8.866166 -0.018876 -2.837422 0
M  V30 26 N -9.983779 -0.867598 -2.476117 0
M  V30 27 C -9.629725 -1.835764 -1.496281 0
M  V30 28 O -10.356157 -2.725619 -0.966186 0
M  V30 29 C -2.196078 -1.036574 0.263075 0
M  V30 30 S 3.670460 -1.012493 -1.369012 0
M  V30 31 O 2.662588 -0.694060 -2.440533 0
M  V30 32 O 4.315315 -2.297081 -1.896952 0
M  V30 33 C 4.876019 0.180273 -1.168447 0
M  V30 34 C 6.250845 0.124132 -1.074949 0
M  V30 35 C 6.824424 -1.235387 -1.214014 0
M  V30 36 C 7.060667 1.221381 -0.885381 0
M  V30 37 C 6.510148 2.455980 -0.779039 0
M  V30 38 C 5.139027 2.573285 -0.865314 0
M  V30 39 C 4.303778 1.458843 -1.058493 0
M  V30 40 C 2.897697 1.906764 -1.104699 0
M  V30 41 H 7.112560 -0.041078 2.038048 0
M  V30 42 H 7.496734 0.526158 3.713440 0
M  V30 43 H 6.000564 1.088084 2.957403 0
M  V30 44 H 5.177643 -0.555648 4.287387 0
M  V30 45 H 6.660467 -1.506073 4.362793 0
M  V30 46 H 3.758449 -0.756304 2.705972 0
M  V30 47 H 5.026449 -0.305146 1.449786 0
M  V30 48 H 4.709775 -2.575495 0.398523 0
M  V30 49 H 3.438767 -2.909393 1.563236 0
M  V30 50 H 2.155403 -3.191054 -0.819899 0
M  V30 51 H 1.813603 -3.045940 0.908875 0
M  V30 52 H 0.554256 -1.442068 -1.316271 0
M  V30 53 H -0.497652 -3.254617 -1.321064 0
M  V30 54 H 0.147746 -1.279877 1.772994 0
M  V30 55 H 0.935174 -0.049889 0.652561 0
M  V30 56 H -0.857074 1.822185 1.284351 0
M  V30 57 H -0.614794 0.508961 2.461010 0
M  V30 58 H -2.717075 1.926064 2.676146 0
M  V30 59 H -2.835274 0.088768 2.728234 0
M  V30 60 H -3.149204 1.705207 0.159607 0
M  V30 61 H -4.583463 1.262757 1.219961 0
M  V30 62 H -3.713906 -1.656600 2.182242 0
M  V30 63 H -5.165276 -0.610396 1.735975 0
M  V30 64 H -4.384331 -3.094596 0.122095 0
M  V30 65 H -5.573742 -3.003021 1.447215 0
M  V30 66 H -7.707194 -3.078967 0.282454 0
M  V30 67 H -6.100156 0.682513 -2.473568 0
M  V30 68 H -9.086098 1.041924 -2.520851 0
M  V30 69 H -8.614236 -0.063831 -3.916803 0
M  V30 70 H -10.951701 -0.781271 -2.889655 0
M  V30 71 H -2.101137 -1.383424 -0.786540 0
M  V30 72 H -2.080322 -1.934843 0.901204 0
M  V30 73 H 7.933619 -1.071732 -1.417924 0
M  V30 74 H 6.809988 -1.845882 -0.317132 0
M  V30 75 H 6.484461 -1.726840 -2.151605 0
M  V30 76 H 8.120199 1.042532 -0.829651 0
M  V30 77 H 7.195757 3.277080 -0.631131 0
M  V30 78 H 4.826178 3.616609 -0.763678 0
M  V30 79 H 2.134269 1.155094 -1.156730 0
M  V30 80 H 2.680602 2.594861 -0.235575 0
M  V30 81 H 2.813077 2.575764 -1.995765 0
M  V30 END ATOM
M  V30 BEGIN BOND
M  V30 1 1 1 2
M  V30 2 1 2 3
M  V30 3 1 3 4
M  V30 4 1 4 5
M  V30 5 1 5 6
M  V30 6 1 6 7
M  V30 7 1 7 8
M  V30 8 1 8 9
M  V30 9 1 8 10
M  V30 10 1 10 11
M  V30 11 1 11 12
M  V30 12 1 12 13
M  V30 13 1 13 14
M  V30 14 1 14 15
M  V30 15 1 15 16
M  V30 16 1 16 17
M  V30 17 1 17 18
M  V30 18 2 18 19
M  V30 19 1 19 20
M  V30 20 2 20 21
M  V30 21 1 21 22
M  V30 22 2 22 23
M  V30 23 1 23 24
M  V30 24 1 21 25
M  V30 25 1 25 26
M  V30 26 1 26 27
M  V30 27 2 27 28
M  V30 28 1 15 29
M  V30 29 1 6 30
M  V30 30 2 30 31
M  V30 31 2 30 32
M  V30 32 1 30 33
M  V30 33 2 33 34
M  V30 34 1 34 35
M  V30 35 1 34 36
M  V30 36 2 36 37
M  V30 37 1 37 38
M  V30 38 2 38 39
M  V30 39 1 39 40
M  V30 40 1 29 11
M  V30 41 1 39 33
M  V30 42 1 24 15
M  V30 43 1 23 18
M  V30 44 1 27 20
M  V30 45 1 1 41
M  V30 46 1 1 42
M  V30 47 1 1 43
M  V30 48 1 2 44
M  V30 49 1 2 45
M  V30 50 1 4 46
M  V30 51 1 4 47
M  V30 52 1 5 48
M  V30 53 1 5 49
M  V30 54 1 7 50
M  V30 55 1 7 51
M  V30 56 1 8 52 CFG=3
M  V30 57 1 9 53
M  V30 58 1 10 54
M  V30 59 1 10 55
M  V30 60 1 12 56
M  V30 61 1 12 57
M  V30 62 1 13 58
M  V30 63 1 13 59
M  V30 64 1 14 60
M  V30 65 1 14 61
M  V30 66 1 16 62
M  V30 67 1 16 63
M  V30 68 1 17 64
M  V30 69 1 17 65
M  V30 70 1 19 66
M  V30 71 1 22 67
M  V30 72 1 25 68
M  V30 73 1 25 69
M  V30 74 1 26 70
M  V30 75 1 29 71
M  V30 76 1 29 72
M  V30 77 1 35 73
M  V30 78 1 35 74
M  V30 79 1 35 75
M  V30 80 1 36 76
M  V30 81 1 37 77
M  V30 82 1 38 78
M  V30 83 1 40 79
M  V30 84 1 40 80
M  V30 85 1 40 81
M  V30 END BOND
M  V30 END CTAB
M  END
>  <Dataset>  (34) 
ChEMBL_Kinases

>  <Ligand_Instance>  (34) 
nan

>  <PDB_ID>  (34) 
nan

>  <Standardized_SMILES>  (34) 
CCOCCN(C[C@@H](O)CN1CCCC2(CCc3cc4c(cc3O2)CNC4=O)C1)S(=O)(=O)c1c(C)cccc1C

>  <Name>  (34) 
nan

>  <Pocket>  (34) 
nan

>  <ATP_Site>  (34) 
nan

>  <Peripheral>  (34) 
nan

>  <Num_H_Atoms_ProtBoundConf>  (34) 
nan

>  <Num_Resolved_Atoms>  (34) 
nan

>  <Num_Not_Resolved_Atoms>  (34) 
nan

$$$$
CHEMBL1761088
     RDKit          3D

  0  0  0  0  0  0  0  0  0  0999 V3000
M  V30 BEGIN CTAB
M  V30 COUNTS 80 83 0 0 0
M  V30 BEGIN ATOM
M  V30 1 C 3.057127 -3.696753 4.829501 0
M  V30 2 C 1.736263 -4.099462 4.182436 0
M  V30 3 O 1.441303 -3.243334 3.119239 0
M  V30 4 C 1.345829 -1.954309 3.623200 0
M  V30 5 C 1.029408 -0.929221 2.526606 0
M  V30 6 N 2.114225 -1.008888 1.582628 0
M  V30 7 C 1.746467 -0.996141 0.222587 0
M  V30 8 C 0.496827 -0.242099 -0.157372 0 CFG=1
M  V30 9 O 0.551658 1.106257 0.189866 0
M  V30 10 C 0.479348 -0.263837 -1.699583 0
M  V30 11 N -0.664511 0.450528 -2.169630 0
M  V30 12 C -0.575997 0.531595 -3.655217 0
M  V30 13 C -1.529545 1.644618 -4.001219 0
M  V30 14 C -2.856992 1.566051 -3.322788 0
M  V30 15 C -3.101435 0.374690 -2.472569 0
M  V30 16 C -3.833119 0.860780 -1.211003 0
M  V30 17 C -4.074534 -0.263326 -0.245579 0
M  V30 18 C -4.339133 -1.519601 -0.991660 0
M  V30 19 C -4.637831 -2.582647 -0.132708 0
M  V30 20 C -4.911325 -3.826587 -0.715215 0
M  V30 21 C -5.238802 -5.035531 0.027706 0
M  V30 22 N -5.344392 -5.237501 1.434733 0
M  V30 23 O -5.499436 -6.170355 -0.447167 0
M  V30 24 C -4.891554 -4.013078 -2.079714 0
M  V30 25 C -4.594929 -2.954658 -2.914029 0
M  V30 26 C -4.316935 -1.699993 -2.358843 0
M  V30 27 O -4.001679 -0.546375 -3.069235 0
M  V30 28 C -1.871949 -0.327057 -1.967960 0
M  V30 29 S 3.398722 -0.008763 2.066613 0
M  V30 30 O 4.674462 -0.847778 2.161199 0
M  V30 31 O 3.145382 0.426004 3.506729 0
M  V30 32 C 3.772533 1.319998 1.048668 0
M  V30 33 C 4.700696 1.155354 0.016270 0
M  V30 34 C 5.403641 -0.106100 -0.261289 0
M  V30 35 C 5.021320 2.235383 -0.819317 0
M  V30 36 C 4.458320 3.481740 -0.675097 0
M  V30 37 C 3.546121 3.624387 0.348703 0
M  V30 38 C 3.209246 2.564039 1.194738 0
M  V30 39 C 2.220534 2.983870 2.193279 0
M  V30 40 H 2.843455 -3.033763 5.700465 0
M  V30 41 H 3.643499 -4.593889 5.140635 0
M  V30 42 H 3.696274 -3.122152 4.154022 0
M  V30 43 H 0.962085 -4.073344 4.963784 0
M  V30 44 H 1.811805 -5.152438 3.853372 0
M  V30 45 H 0.555806 -1.928717 4.412558 0
M  V30 46 H 2.279477 -1.659770 4.128771 0
M  V30 47 H 0.068973 -1.247925 2.096763 0
M  V30 48 H 0.998749 0.044086 3.011894 0
M  V30 49 H 1.557004 -2.057052 -0.097445 0
M  V30 50 H 2.548635 -0.583276 -0.430390 0
M  V30 51 H -0.404784 -0.658649 0.279858 0
M  V30 52 H 1.051170 1.610761 -0.492281 0
M  V30 53 H 0.565241 -1.293344 -2.092174 0
M  V30 54 H 1.391209 0.305394 -2.025690 0
M  V30 55 H 0.443248 0.824179 -3.952571 0
M  V30 56 H -0.905979 -0.403124 -4.120694 0
M  V30 57 H -1.016168 2.582958 -3.634616 0
M  V30 58 H -1.590486 1.789273 -5.101565 0
M  V30 59 H -3.109400 2.521533 -2.802079 0
M  V30 60 H -3.619707 1.525937 -4.157437 0
M  V30 61 H -3.115724 1.553346 -0.721416 0
M  V30 62 H -4.780932 1.345461 -1.513212 0
M  V30 63 H -3.324350 -0.364331 0.551271 0
M  V30 64 H -5.052859 -0.010788 0.262967 0
M  V30 65 H -4.680274 -2.546050 0.945495 0
M  V30 66 H -4.348249 -5.315952 1.798424 0
M  V30 67 H -6.158211 -5.310948 2.082567 0
M  V30 68 H -5.087877 -4.921687 -2.605135 0
M  V30 69 H -4.556408 -3.007858 -4.001209 0
M  V30 70 H -1.934602 -0.604881 -0.911026 0
M  V30 71 H -1.729646 -1.255087 -2.557338 0
M  V30 72 H 5.865578 -0.076234 -1.291135 0
M  V30 73 H 4.837815 -1.022887 -0.133246 0
M  V30 74 H 6.276624 -0.169607 0.454664 0
M  V30 75 H 5.748661 2.103099 -1.629153 0
M  V30 76 H 4.749889 4.269140 -1.352018 0
M  V30 77 H 3.135747 4.642528 0.409088 0
M  V30 78 H 1.940268 2.228731 2.929985 0
M  V30 79 H 1.306865 3.441896 1.711116 0
M  V30 80 H 2.643663 3.844986 2.790434 0
M  V30 END ATOM
M  V30 BEGIN BOND
M  V30 1 1 1 2
M  V30 2 1 2 3
M  V30 3 1 3 4
M  V30 4 1 4 5
M  V30 5 1 5 6
M  V30 6 1 6 7
M  V30 7 1 7 8
M  V30 8 1 8 9
M  V30 9 1 8 10
M  V30 10 1 10 11
M  V30 11 1 11 12
M  V30 12 1 12 13
M  V30 13 1 13 14
M  V30 14 1 14 15
M  V30 15 1 15 16
M  V30 16 1 16 17
M  V30 17 1 17 18
M  V30 18 2 18 19
M  V30 19 1 19 20
M  V30 20 1 20 21
M  V30 21 1 21 22
M  V30 22 2 21 23
M  V30 23 2 20 24
M  V30 24 1 24 25
M  V30 25 2 25 26
M  V30 26 1 26 27
M  V30 27 1 15 28
M  V30 28 1 6 29
M  V30 29 2 29 30
M  V30 30 2 29 31
M  V30 31 1 29 32
M  V30 32 2 32 33
M  V30 33 1 33 34
M  V30 34 1 33 35
M  V30 35 2 35 36
M  V30 36 1 36 37
M  V30 37 2 37 38
M  V30 38 1 38 39
M  V30 39 1 28 11
M  V30 40 1 38 32
M  V30 41 1 27 15
M  V30 42 1 26 18
M  V30 43 1 1 40
M  V30 44 1 1 41
M  V30 45 1 1 42
M  V30 46 1 2 43
M  V30 47 1 2 44
M  V30 48 1 4 45
M  V30 49 1 4 46
M  V30 50 1 5 47
M  V30 51 1 5 48
M  V30 52 1 7 49
M  V30 53 1 7 50
M  V30 54 1 8 51 CFG=1
M  V30 55 1 9 52
M  V30 56 1 10 53
M  V30 57 1 10 54
M  V30 58 1 12 55
M  V30 59 1 12 56
M  V30 60 1 13 57
M  V30 61 1 13 58
M  V30 62 1 14 59
M  V30 63 1 14 60
M  V30 64 1 16 61
M  V30 65 1 16 62
M  V30 66 1 17 63
M  V30 67 1 17 64
M  V30 68 1 19 65
M  V30 69 1 22 66
M  V30 70 1 22 67
M  V30 71 1 24 68
M  V30 72 1 25 69
M  V30 73 1 28 70
M  V30 74 1 28 71
M  V30 75 1 34 72
M  V30 76 1 34 73
M  V30 77 1 34 74
M  V30 78 1 35 75
M  V30 79 1 36 76
M  V30 80 1 37 77
M  V30 81 1 39 78
M  V30 82 1 39 79
M  V30 83 1 39 80
M  V30 END BOND
M  V30 END CTAB
M  END
>  <Dataset>  (35) 
ChEMBL_Kinases

>  <Ligand_Instance>  (35) 
nan

>  <PDB_ID>  (35) 
nan

>  <Standardized_SMILES>  (35) 
CCOCCN(C[C@@H](O)CN1CCCC2(CCc3cc(C(N)=O)ccc3O2)C1)S(=O)(=O)c1c(C)cccc1C

>  <Name>  (35) 
nan

>  <Pocket>  (35) 
nan

>  <ATP_Site>  (35) 
nan

>  <Peripheral>  (35) 
nan

>  <Num_H_Atoms_ProtBoundConf>  (35) 
nan

>  <Num_Resolved_Atoms>  (35) 
nan

>  <Num_Not_Resolved_Atoms>  (35) 
nan

$$$$
CHEMBL1761087
     RDKit          3D

  0  0  0  0  0  0  0  0  0  0999 V3000
M  V30 BEGIN CTAB
M  V30 COUNTS 77 80 0 0 0
M  V30 BEGIN ATOM
M  V30 1 C 5.636740 -2.271156 3.062516 0
M  V30 2 C 4.702405 -3.126461 3.850610 0
M  V30 3 O 3.611359 -3.629245 3.277800 0
M  V30 4 C 2.569819 -2.913533 2.812140 0
M  V30 5 C 2.921542 -1.948000 1.757626 0
M  V30 6 N 1.804022 -1.188806 1.238355 0
M  V30 7 C 0.746257 -2.052857 0.869925 0
M  V30 8 C 0.122391 -1.679014 -0.483839 0 CFG=1
M  V30 9 O 1.157671 -1.764228 -1.411255 0
M  V30 10 C -0.888631 -2.764300 -0.754627 0
M  V30 11 N -1.519807 -2.765886 -1.998600 0
M  V30 12 C -0.810240 -3.055634 -3.175595 0
M  V30 13 C -1.302059 -2.198502 -4.321689 0
M  V30 14 C -1.942441 -0.926765 -3.852768 0
M  V30 15 C -3.040768 -1.092710 -2.856359 0
M  V30 16 C -4.360632 -1.035754 -3.576276 0
M  V30 17 C -5.018438 0.296009 -3.417860 0
M  V30 18 C -5.283751 0.546439 -1.971476 0
M  V30 19 C -6.459281 0.946838 -1.371804 0
M  V30 20 C -6.486348 1.123528 -0.000651 0
M  V30 21 C -7.743036 1.542254 0.562570 0
M  V30 22 N -8.763228 1.867838 1.013292 0
M  V30 23 C -5.385922 0.915733 0.791604 0
M  V30 24 C -4.223553 0.516313 0.169152 0
M  V30 25 C -4.153938 0.326538 -1.211495 0
M  V30 26 O -2.991292 -0.074219 -1.843238 0
M  V30 27 C -2.876604 -2.386207 -2.103322 0
M  V30 28 S 1.397858 0.200971 2.118400 0
M  V30 29 O 0.115907 0.740419 1.492880 0
M  V30 30 O 0.996853 -0.186138 3.533692 0
M  V30 31 C 2.612893 1.408469 2.228225 0
M  V30 32 C 2.707195 2.282602 1.143455 0
M  V30 33 C 1.805001 2.151275 -0.043862 0
M  V30 34 C 3.672838 3.292753 1.192917 0
M  V30 35 C 4.532645 3.453850 2.274424 0
M  V30 36 C 4.345680 2.532297 3.285633 0
M  V30 37 C 3.408245 1.491486 3.322995 0
M  V30 38 C 3.341949 0.619584 4.509856 0
M  V30 39 H 5.600409 -1.195203 3.333529 0
M  V30 40 H 5.580370 -2.380202 1.966797 0
M  V30 41 H 6.720358 -2.542182 3.312456 0
M  V30 42 H 5.324739 -4.012474 4.215954 0
M  V30 43 H 4.444768 -2.568190 4.802635 0
M  V30 44 H 1.794615 -3.662963 2.490612 0
M  V30 45 H 2.065746 -2.381053 3.668994 0
M  V30 46 H 3.610102 -1.182654 2.162692 0
M  V30 47 H 3.431623 -2.435499 0.908397 0
M  V30 48 H -0.007756 -2.116666 1.660509 0
M  V30 49 H 1.209134 -3.055343 0.636296 0
M  V30 50 H -0.330540 -0.676846 -0.424434 0
M  V30 51 H 2.051993 -1.835912 -1.009841 0
M  V30 52 H -0.346512 -3.750215 -0.636036 0
M  V30 53 H -1.655241 -2.806990 0.065592 0
M  V30 54 H -1.082864 -4.113021 -3.471382 0
M  V30 55 H 0.271450 -3.050489 -3.120315 0
M  V30 56 H -2.009399 -2.716616 -4.971336 0
M  V30 57 H -0.417486 -1.913927 -4.924581 0
M  V30 58 H -2.291727 -0.399315 -4.782086 0
M  V30 59 H -1.185404 -0.267748 -3.394601 0
M  V30 60 H -5.041520 -1.845330 -3.240813 0
M  V30 61 H -4.196011 -1.224670 -4.661111 0
M  V30 62 H -6.035146 0.249802 -3.891887 0
M  V30 63 H -4.492980 1.107109 -3.921691 0
M  V30 64 H -7.277106 1.087861 -2.065278 0
M  V30 65 H -5.464564 1.069446 1.860290 0
M  V30 66 H -3.357373 0.355111 0.798748 0
M  V30 67 H -3.321059 -2.315646 -1.105207 0
M  V30 68 H -3.444184 -3.197590 -2.632181 0
M  V30 69 H 0.843045 2.680590 0.093907 0
M  V30 70 H 2.323351 2.672149 -0.877023 0
M  V30 71 H 1.691511 1.109763 -0.382726 0
M  V30 72 H 3.788268 4.003420 0.368573 0
M  V30 73 H 5.279902 4.203719 2.355950 0
M  V30 74 H 5.004014 2.630967 4.147923 0
M  V30 75 H 4.141419 0.925894 5.238790 0
M  V30 76 H 3.291329 -0.442007 4.349556 0
M  V30 77 H 2.391166 0.884151 5.066655 0
M  V30 END ATOM
M  V30 BEGIN BOND
M  V30 1 1 1 2
M  V30 2 1 2 3
M  V30 3 1 3 4
M  V30 4 1 4 5
M  V30 5 1 5 6
M  V30 6 1 6 7
M  V30 7 1 7 8
M  V30 8 1 8 9
M  V30 9 1 8 10
M  V30 10 1 10 11
M  V30 11 1 11 12
M  V30 12 1 12 13
M  V30 13 1 13 14
M  V30 14 1 14 15
M  V30 15 1 15 16
M  V30 16 1 16 17
M  V30 17 1 17 18
M  V30 18 2 18 19
M  V30 19 1 19 20
M  V30 20 1 20 21
M  V30 21 3 21 22
M  V30 22 2 20 23
M  V30 23 1 23 24
M  V30 24 2 24 25
M  V30 25 1 25 26
M  V30 26 1 15 27
M  V30 27 1 6 28
M  V30 28 2 28 29
M  V30 29 2 28 30
M  V30 30 1 28 31
M  V30 31 2 31 32
M  V30 32 1 32 33
M  V30 33 1 32 34
M  V30 34 2 34 35
M  V30 35 1 35 36
M  V30 36 2 36 37
M  V30 37 1 37 38
M  V30 38 1 27 11
M  V30 39 1 37 31
M  V30 40 1 26 15
M  V30 41 1 25 18
M  V30 42 1 1 39
M  V30 43 1 1 40
M  V30 44 1 1 41
M  V30 45 1 2 42
M  V30 46 1 2 43
M  V30 47 1 4 44
M  V30 48 1 4 45
M  V30 49 1 5 46
M  V30 50 1 5 47
M  V30 51 1 7 48
M  V30 52 1 7 49
M  V30 53 1 8 50 CFG=1
M  V30 54 1 9 51
M  V30 55 1 10 52
M  V30 56 1 10 53
M  V30 57 1 12 54
M  V30 58 1 12 55
M  V30 59 1 13 56
M  V30 60 1 13 57
M  V30 61 1 14 58
M  V30 62 1 14 59
M  V30 63 1 16 60
M  V30 64 1 16 61
M  V30 65 1 17 62
M  V30 66 1 17 63
M  V30 67 1 19 64
M  V30 68 1 23 65
M  V30 69 1 24 66
M  V30 70 1 27 67
M  V30 71 1 27 68
M  V30 72 1 33 69
M  V30 73 1 33 70
M  V30 74 1 33 71
M  V30 75 1 34 72
M  V30 76 1 35 73
M  V30 77 1 36 74
M  V30 78 1 38 75
M  V30 79 1 38 76
M  V30 80 1 38 77
M  V30 END BOND
M  V30 END CTAB
M  END
>  <Dataset>  (36) 
ChEMBL_Kinases

>  <Ligand_Instance>  (36) 
nan

>  <PDB_ID>  (36) 
nan

>  <Standardized_SMILES>  (36) 
CCOCCN(C[C@@H](O)CN1CCCC2(CCc3cc(C#N)ccc3O2)C1)S(=O)(=O)c1c(C)cccc1C

>  <Name>  (36) 
nan

>  <Pocket>  (36) 
nan

>  <ATP_Site>  (36) 
nan

>  <Peripheral>  (36) 
nan

>  <Num_H_Atoms_ProtBoundConf>  (36) 
nan

>  <Num_Resolved_Atoms>  (36) 
nan

>  <Num_Not_Resolved_Atoms>  (36) 
nan

$$$$
CHEMBL1761086
     RDKit          3D

  0  0  0  0  0  0  0  0  0  0999 V3000
M  V30 BEGIN CTAB
M  V30 COUNTS 76 79 0 0 0
M  V30 BEGIN ATOM
M  V30 1 C 0.543387 1.076586 3.451628 0
M  V30 2 C 2.052237 0.972119 3.248790 0
M  V30 3 O 2.375295 -0.111051 2.473082 0
M  V30 4 C 1.996118 -1.338482 2.965754 0
M  V30 5 C 2.444919 -2.419881 1.983308 0
M  V30 6 N 1.822903 -2.184533 0.727016 0
M  V30 7 C 1.243526 -3.300899 0.099537 0
M  V30 8 C -0.229418 -3.376744 -0.025861 0 CFG=1
M  V30 9 O -0.889449 -3.356822 1.210511 0
M  V30 10 C -0.929257 -2.538644 -1.007097 0
M  V30 11 N -1.094988 -1.142220 -0.692570 0
M  V30 12 C -1.822650 -0.605413 -1.860681 0
M  V30 13 C -1.905285 0.878372 -1.839984 0
M  V30 14 C -2.054323 1.392092 -0.427792 0
M  V30 15 C -2.676144 0.361243 0.490650 0
M  V30 16 C -4.083663 0.148044 0.024901 0
M  V30 17 C -5.145657 0.729003 0.893021 0
M  V30 18 C -4.717445 1.875609 1.722173 0
M  V30 19 C -5.615554 2.879061 2.043739 0
M  V30 20 C -5.251682 3.956068 2.813352 0
M  V30 21 F -6.035098 4.991900 3.190901 0
M  V30 22 C -3.957933 4.047041 3.282212 0
M  V30 23 C -3.049788 3.055286 2.971014 0
M  V30 24 C -3.422925 1.963047 2.188959 0
M  V30 25 O -2.621739 0.903985 1.802463 0
M  V30 26 C -1.909185 -0.936394 0.488739 0
M  V30 27 S 2.807560 -1.234721 -0.278643 0
M  V30 28 O 4.022294 -0.767025 0.553320 0
M  V30 29 O 2.146107 0.087210 -0.652550 0
M  V30 30 C 3.409515 -2.018138 -1.695374 0
M  V30 31 C 2.838894 -1.913261 -2.935395 0
M  V30 32 C 1.658060 -1.084469 -3.240822 0
M  V30 33 C 3.331904 -2.570114 -4.067435 0
M  V30 34 C 4.430139 -3.368480 -4.004923 0
M  V30 35 C 5.016117 -3.487556 -2.778831 0
M  V30 36 C 4.544981 -2.842482 -1.627734 0
M  V30 37 C 5.279514 -3.071442 -0.369883 0
M  V30 38 H 0.017273 1.110551 2.487455 0
M  V30 39 H 0.180976 0.224282 4.038111 0
M  V30 40 H 0.323163 2.050275 3.964070 0
M  V30 41 H 2.585147 1.031333 4.199112 0
M  V30 42 H 2.318275 1.889219 2.674541 0
M  V30 43 H 0.870517 -1.373057 2.979041 0
M  V30 44 H 2.379996 -1.569236 3.984488 0
M  V30 45 H 2.334614 -3.428820 2.401377 0
M  V30 46 H 3.559734 -2.254149 1.897399 0
M  V30 47 H 1.651431 -3.350319 -0.949763 0
M  V30 48 H 1.680615 -4.237995 0.565509 0
M  V30 49 H -0.424266 -4.455905 -0.380369 0
M  V30 50 H -1.721998 -3.850096 1.111159 0
M  V30 51 H -1.963091 -2.959522 -1.126324 0
M  V30 52 H -0.425967 -2.609420 -1.996312 0
M  V30 53 H -2.797299 -1.136819 -1.882896 0
M  V30 54 H -1.285192 -0.951372 -2.764074 0
M  V30 55 H -2.755699 1.172917 -2.491489 0
M  V30 56 H -0.991373 1.292832 -2.311724 0
M  V30 57 H -1.091440 1.766314 -0.062647 0
M  V30 58 H -2.746934 2.258649 -0.462871 0
M  V30 59 H -4.296380 -0.960727 -0.027736 0
M  V30 60 H -4.254808 0.541025 -0.999862 0
M  V30 61 H -6.028150 1.047566 0.295274 0
M  V30 62 H -5.544551 -0.047211 1.608906 0
M  V30 63 H -6.646535 2.866844 1.706641 0
M  V30 64 H -3.507643 4.827368 3.899380 0
M  V30 65 H -2.001747 3.052375 3.304909 0
M  V30 66 H -1.264961 -1.004061 1.366617 0
M  V30 67 H -2.662748 -1.748737 0.474079 0
M  V30 68 H 0.963512 -1.729146 -3.861831 0
M  V30 69 H 1.051673 -0.788380 -2.380340 0
M  V30 70 H 1.967906 -0.220219 -3.868962 0
M  V30 71 H 2.870272 -2.484403 -5.064371 0
M  V30 72 H 4.832990 -3.886497 -4.857606 0
M  V30 73 H 5.907654 -4.135354 -2.729200 0
M  V30 74 H 6.152134 -3.755538 -0.589186 0
M  V30 75 H 4.679588 -3.653090 0.364110 0
M  V30 76 H 5.764632 -2.169199 0.053347 0
M  V30 END ATOM
M  V30 BEGIN BOND
M  V30 1 1 1 2
M  V30 2 1 2 3
M  V30 3 1 3 4
M  V30 4 1 4 5
M  V30 5 1 5 6
M  V30 6 1 6 7
M  V30 7 1 7 8
M  V30 8 1 8 9
M  V30 9 1 8 10
M  V30 10 1 10 11
M  V30 11 1 11 12
M  V30 12 1 12 13
M  V30 13 1 13 14
M  V30 14 1 14 15
M  V30 15 1 15 16
M  V30 16 1 16 17
M  V30 17 1 17 18
M  V30 18 2 18 19
M  V30 19 1 19 20
M  V30 20 1 20 21
M  V30 21 2 20 22
M  V30 22 1 22 23
M  V30 23 2 23 24
M  V30 24 1 24 25
M  V30 25 1 15 26
M  V30 26 1 6 27
M  V30 27 2 27 28
M  V30 28 2 27 29
M  V30 29 1 27 30
M  V30 30 2 30 31
M  V30 31 1 31 32
M  V30 32 1 31 33
M  V30 33 2 33 34
M  V30 34 1 34 35
M  V30 35 2 35 36
M  V30 36 1 36 37
M  V30 37 1 26 11
M  V30 38 1 36 30
M  V30 39 1 25 15
M  V30 40 1 24 18
M  V30 41 1 1 38
M  V30 42 1 1 39
M  V30 43 1 1 40
M  V30 44 1 2 41
M  V30 45 1 2 42
M  V30 46 1 4 43
M  V30 47 1 4 44
M  V30 48 1 5 45
M  V30 49 1 5 46
M  V30 50 1 7 47
M  V30 51 1 7 48
M  V30 52 1 8 49 CFG=3
M  V30 53 1 9 50
M  V30 54 1 10 51
M  V30 55 1 10 52
M  V30 56 1 12 53
M  V30 57 1 12 54
M  V30 58 1 13 55
M  V30 59 1 13 56
M  V30 60 1 14 57
M  V30 61 1 14 58
M  V30 62 1 16 59
M  V30 63 1 16 60
M  V30 64 1 17 61
M  V30 65 1 17 62
M  V30 66 1 19 63
M  V30 67 1 22 64
M  V30 68 1 23 65
M  V30 69 1 26 66
M  V30 70 1 26 67
M  V30 71 1 32 68
M  V30 72 1 32 69
M  V30 73 1 32 70
M  V30 74 1 33 71
M  V30 75 1 34 72
M  V30 76 1 35 73
M  V30 77 1 37 74
M  V30 78 1 37 75
M  V30 79 1 37 76
M  V30 END BOND
M  V30 END CTAB
M  END
>  <Dataset>  (37) 
ChEMBL_Kinases

>  <Ligand_Instance>  (37) 
nan

>  <PDB_ID>  (37) 
nan

>  <Standardized_SMILES>  (37) 
CCOCCN(C[C@@H](O)CN1CCCC2(CCc3cc(F)ccc3O2)C1)S(=O)(=O)c1c(C)cccc1C

>  <Name>  (37) 
nan

>  <Pocket>  (37) 
nan

>  <ATP_Site>  (37) 
nan

>  <Peripheral>  (37) 
nan

>  <Num_H_Atoms_ProtBoundConf>  (37) 
nan

>  <Num_Resolved_Atoms>  (37) 
nan

>  <Num_Not_Resolved_Atoms>  (37) 
nan

$$$$
CHEMBL1761085
     RDKit          3D

  0  0  0  0  0  0  0  0  0  0999 V3000
M  V30 BEGIN CTAB
M  V30 COUNTS 77 80 0 0 0
M  V30 BEGIN ATOM
M  V30 1 C 1.253107 0.620365 3.145657 0
M  V30 2 C 2.636691 0.372120 2.630801 0
M  V30 3 O 2.735422 -0.697484 1.751584 0
M  V30 4 C 2.351765 -1.839845 2.387908 0
M  V30 5 C 2.430279 -3.053190 1.494694 0
M  V30 6 N 1.592525 -2.938853 0.329664 0
M  V30 7 C 0.952444 -4.207694 0.083198 0
M  V30 8 C -0.515097 -4.281550 0.065985 0 CFG=1
M  V30 9 O -1.073247 -3.960926 1.285601 0
M  V30 10 C -1.292545 -3.709101 -1.039441 0
M  V30 11 N -1.543706 -2.266327 -1.004042 0
M  V30 12 C -2.139004 -1.944105 -2.330511 0
M  V30 13 C -2.199977 -0.448852 -2.474911 0
M  V30 14 C -2.305355 0.235264 -1.145213 0
M  V30 15 C -3.022353 -0.553303 -0.109014 0
M  V30 16 C -4.532728 -0.358421 -0.196085 0
M  V30 17 C -4.851173 1.097179 -0.271197 0
M  V30 18 C -4.209773 1.905928 0.782191 0
M  V30 19 C -4.614539 3.174555 1.132215 0
M  V30 20 C -3.942992 3.861602 2.148591 0
M  V30 21 O -4.357487 5.140433 2.495044 0
M  V30 22 C -2.865151 3.279964 2.816675 0
M  V30 23 C -2.505605 2.008309 2.423280 0
M  V30 24 C -3.150786 1.302254 1.420301 0
M  V30 25 O -2.655996 0.040826 1.158542 0
M  V30 26 C -2.661205 -1.996000 -0.106568 0
M  V30 27 S 2.513106 -2.520885 -1.039193 0
M  V30 28 O 1.557776 -2.463855 -2.255652 0
M  V30 29 O 3.441781 -3.668761 -1.435493 0
M  V30 30 C 3.374384 -1.054643 -1.045007 0
M  V30 31 C 2.796674 0.160433 -1.442797 0
M  V30 32 C 1.359731 0.035915 -1.820582 0
M  V30 33 C 3.383999 1.401328 -1.520861 0
M  V30 34 C 4.704674 1.499303 -1.171924 0
M  V30 35 C 5.353184 0.356702 -0.768612 0
M  V30 36 C 4.726907 -0.897600 -0.698703 0
M  V30 37 C 5.577553 -2.017270 -0.240771 0
M  V30 38 H 1.179287 1.658381 3.568500 0
M  V30 39 H 0.945313 -0.052150 3.952280 0
M  V30 40 H 0.510843 0.576060 2.321034 0
M  V30 41 H 3.280287 0.168263 3.536804 0
M  V30 42 H 3.078560 1.262275 2.140579 0
M  V30 43 H 1.354939 -1.695530 2.830633 0
M  V30 44 H 3.048876 -2.031222 3.226948 0
M  V30 45 H 2.154471 -3.961959 2.106600 0
M  V30 46 H 3.495630 -3.220621 1.254724 0
M  V30 47 H 1.414068 -4.709110 -0.824466 0
M  V30 48 H 1.299971 -4.905162 0.915492 0
M  V30 49 H -0.792146 -5.435122 0.000662 0
M  V30 50 H -0.431766 -3.336383 1.729990 0
M  V30 51 H -2.282008 -4.240925 -1.197042 0
M  V30 52 H -0.754018 -3.900261 -1.996452 0
M  V30 53 H -3.171354 -2.339634 -2.343748 0
M  V30 54 H -1.534188 -2.408094 -3.131129 0
M  V30 55 H -3.076180 -0.118403 -3.078989 0
M  V30 56 H -1.267142 -0.077644 -2.979230 0
M  V30 57 H -1.266542 0.404596 -0.762659 0
M  V30 58 H -2.738626 1.260831 -1.281316 0
M  V30 59 H -4.971433 -0.777996 0.730623 0
M  V30 60 H -4.953242 -0.844553 -1.101501 0
M  V30 61 H -5.964946 1.192441 -0.072015 0
M  V30 62 H -4.739451 1.541435 -1.288874 0
M  V30 63 H -5.451197 3.614410 0.607027 0
M  V30 64 H -3.697965 5.916576 2.410224 0
M  V30 65 H -2.322912 3.784476 3.609700 0
M  V30 66 H -1.655776 1.571071 2.960934 0
M  V30 67 H -2.588423 -2.437717 0.883205 0
M  V30 68 H -3.534304 -2.542760 -0.593256 0
M  V30 69 H 0.820948 -0.625936 -1.099950 0
M  V30 70 H 0.897992 1.037774 -1.655466 0
M  V30 71 H 1.206079 -0.193248 -2.872111 0
M  V30 72 H 2.790183 2.238700 -1.849489 0
M  V30 73 H 5.223102 2.440251 -1.211284 0
M  V30 74 H 6.408146 0.458988 -0.494502 0
M  V30 75 H 5.411982 -2.977384 -0.713277 0
M  V30 76 H 5.578358 -2.086880 0.887795 0
M  V30 77 H 6.653042 -1.734639 -0.456676 0
M  V30 END ATOM
M  V30 BEGIN BOND
M  V30 1 1 1 2
M  V30 2 1 2 3
M  V30 3 1 3 4
M  V30 4 1 4 5
M  V30 5 1 5 6
M  V30 6 1 6 7
M  V30 7 1 7 8
M  V30 8 1 8 9
M  V30 9 1 8 10
M  V30 10 1 10 11
M  V30 11 1 11 12
M  V30 12 1 12 13
M  V30 13 1 13 14
M  V30 14 1 14 15
M  V30 15 1 15 16
M  V30 16 1 16 17
M  V30 17 1 17 18
M  V30 18 2 18 19
M  V30 19 1 19 20
M  V30 20 1 20 21
M  V30 21 2 20 22
M  V30 22 1 22 23
M  V30 23 2 23 24
M  V30 24 1 24 25
M  V30 25 1 15 26
M  V30 26 1 6 27
M  V30 27 2 27 28
M  V30 28 2 27 29
M  V30 29 1 27 30
M  V30 30 2 30 31
M  V30 31 1 31 32
M  V30 32 1 31 33
M  V30 33 2 33 34
M  V30 34 1 34 35
M  V30 35 2 35 36
M  V30 36 1 36 37
M  V30 37 1 26 11
M  V30 38 1 36 30
M  V30 39 1 25 15
M  V30 40 1 24 18
M  V30 41 1 1 38
M  V30 42 1 1 39
M  V30 43 1 1 40
M  V30 44 1 2 41
M  V30 45 1 2 42
M  V30 46 1 4 43
M  V30 47 1 4 44
M  V30 48 1 5 45
M  V30 49 1 5 46
M  V30 50 1 7 47
M  V30 51 1 7 48
M  V30 52 1 8 49 CFG=3
M  V30 53 1 9 50
M  V30 54 1 10 51
M  V30 55 1 10 52
M  V30 56 1 12 53
M  V30 57 1 12 54
M  V30 58 1 13 55
M  V30 59 1 13 56
M  V30 60 1 14 57
M  V30 61 1 14 58
M  V30 62 1 16 59
M  V30 63 1 16 60
M  V30 64 1 17 61
M  V30 65 1 17 62
M  V30 66 1 19 63
M  V30 67 1 21 64
M  V30 68 1 22 65
M  V30 69 1 23 66
M  V30 70 1 26 67
M  V30 71 1 26 68
M  V30 72 1 32 69
M  V30 73 1 32 70
M  V30 74 1 32 71
M  V30 75 1 33 72
M  V30 76 1 34 73
M  V30 77 1 35 74
M  V30 78 1 37 75
M  V30 79 1 37 76
M  V30 80 1 37 77
M  V30 END BOND
M  V30 END CTAB
M  END
>  <Dataset>  (38) 
ChEMBL_Kinases

>  <Ligand_Instance>  (38) 
nan

>  <PDB_ID>  (38) 
nan

>  <Standardized_SMILES>  (38) 
CCOCCN(C[C@@H](O)CN1CCCC2(CCc3cc(O)ccc3O2)C1)S(=O)(=O)c1c(C)cccc1C

>  <Name>  (38) 
nan

>  <Pocket>  (38) 
nan

>  <ATP_Site>  (38) 
nan

>  <Peripheral>  (38) 
nan

>  <Num_H_Atoms_ProtBoundConf>  (38) 
nan

>  <Num_Resolved_Atoms>  (38) 
nan

>  <Num_Not_Resolved_Atoms>  (38) 
nan

$$$$
CHEMBL1761084
     RDKit          3D

  0  0  0  0  0  0  0  0  0  0999 V3000
M  V30 BEGIN CTAB
M  V30 COUNTS 73 76 0 0 0
M  V30 BEGIN ATOM
M  V30 1 C 2.956019 0.508122 5.083064 0
M  V30 2 C 3.191745 -0.201819 3.762632 0
M  V30 3 O 3.105661 -1.563689 3.872320 0
M  V30 4 C 3.328438 -2.280416 2.707440 0
M  V30 5 C 2.329798 -1.923095 1.629049 0
M  V30 6 N 2.497988 -2.618784 0.420728 0
M  V30 7 C 1.777637 -3.775427 0.128392 0
M  V30 8 C 0.283240 -3.678438 -0.033552 0 CFG=1
M  V30 9 O -0.211396 -3.235298 1.176823 0
M  V30 10 C -0.097010 -2.859010 -1.201986 0
M  V30 11 N -1.438854 -2.682446 -1.504508 0
M  V30 12 C -1.646955 -1.821045 -2.622226 0
M  V30 13 C -1.536021 -0.389001 -2.130884 0
M  V30 14 C -1.773795 -0.209611 -0.675408 0
M  V30 15 C -2.851533 -1.151119 -0.178099 0
M  V30 16 C -2.963786 -1.075786 1.328891 0
M  V30 17 C -3.583846 0.188056 1.847965 0
M  V30 18 C -4.379069 0.860915 0.785459 0
M  V30 19 C -4.902338 2.063213 1.278294 0
M  V30 20 C -5.687141 2.869003 0.445435 0
M  V30 21 O -6.242349 4.074025 0.861974 0
M  V30 22 C -5.952248 2.484873 -0.869144 0
M  V30 23 C -5.401403 1.272462 -1.303918 0
M  V30 24 C -4.638166 0.477559 -0.512860 0
M  V30 25 O -4.045834 -0.715124 -0.805299 0
M  V30 26 C -2.493672 -2.573191 -0.618333 0
M  V30 27 S 3.521367 -1.936730 -0.723817 0
M  V30 28 O 4.918546 -1.849659 -0.089316 0
M  V30 29 O 3.712735 -2.910236 -1.871975 0
M  V30 30 C 3.086051 -0.379117 -1.354500 0
M  V30 31 C 3.268210 0.921117 -0.935996 0
M  V30 32 C 3.938166 1.337013 0.299474 0
M  V30 33 N 2.758349 1.791950 -1.830497 0
M  V30 34 O 2.265835 1.104843 -2.791177 0
M  V30 35 C 2.425434 -0.200426 -2.575410 0
M  V30 36 C 1.918903 -1.136864 -3.589598 0
M  V30 37 H 3.480571 0.030136 5.935562 0
M  V30 38 H 1.861395 0.597149 5.301390 0
M  V30 39 H 3.344575 1.546816 5.019863 0
M  V30 40 H 2.416484 0.205945 3.069721 0
M  V30 41 H 4.194416 0.070666 3.425559 0
M  V30 42 H 4.373805 -1.987903 2.389252 0
M  V30 43 H 3.404089 -3.368732 2.892895 0
M  V30 44 H 1.335318 -1.890169 2.088293 0
M  V30 45 H 2.542217 -0.836043 1.394391 0
M  V30 46 H 2.219932 -4.204000 -0.833537 0
M  V30 47 H 1.941525 -4.623583 0.847876 0
M  V30 48 H -0.073488 -4.732092 -0.165658 0
M  V30 49 H -0.454671 -3.977583 1.762614 0
M  V30 50 H 0.452729 -1.907402 -1.187265 0
M  V30 51 H 0.327297 -3.419111 -2.082209 0
M  V30 52 H -0.938378 -2.040788 -3.442094 0
M  V30 53 H -2.708713 -2.017769 -2.954964 0
M  V30 54 H -0.577196 0.022892 -2.470931 0
M  V30 55 H -2.333832 0.184051 -2.684219 0
M  V30 56 H -0.867463 -0.235190 -0.050293 0
M  V30 57 H -2.181758 0.831006 -0.526963 0
M  V30 58 H -1.911567 -1.154603 1.734261 0
M  V30 59 H -3.521335 -1.922089 1.753625 0
M  V30 60 H -4.220646 -0.050791 2.737307 0
M  V30 61 H -2.769232 0.851848 2.219994 0
M  V30 62 H -4.777588 2.481450 2.273273 0
M  V30 63 H -6.732006 4.041078 1.758925 0
M  V30 64 H -6.554716 3.072592 -1.554020 0
M  V30 65 H -5.559682 0.895009 -2.322526 0
M  V30 66 H -2.479076 -3.195034 0.294531 0
M  V30 67 H -3.395675 -2.946137 -1.153565 0
M  V30 68 H 3.218826 1.791987 1.037537 0
M  V30 69 H 4.526062 0.518245 0.768660 0
M  V30 70 H 4.652257 2.150970 0.064220 0
M  V30 71 H 0.981402 -0.784463 -4.062771 0
M  V30 72 H 2.667887 -1.112596 -4.451356 0
M  V30 73 H 1.918263 -2.178206 -3.273689 0
M  V30 END ATOM
M  V30 BEGIN BOND
M  V30 1 1 1 2
M  V30 2 1 2 3
M  V30 3 1 3 4
M  V30 4 1 4 5
M  V30 5 1 5 6
M  V30 6 1 6 7
M  V30 7 1 7 8
M  V30 8 1 8 9
M  V30 9 1 8 10
M  V30 10 1 10 11
M  V30 11 1 11 12
M  V30 12 1 12 13
M  V30 13 1 13 14
M  V30 14 1 14 15
M  V30 15 1 15 16
M  V30 16 1 16 17
M  V30 17 1 17 18
M  V30 18 2 18 19
M  V30 19 1 19 20
M  V30 20 1 20 21
M  V30 21 2 20 22
M  V30 22 1 22 23
M  V30 23 2 23 24
M  V30 24 1 24 25
M  V30 25 1 15 26
M  V30 26 1 6 27
M  V30 27 2 27 28
M  V30 28 2 27 29
M  V30 29 1 27 30
M  V30 30 1 30 31
M  V30 31 1 31 32
M  V30 32 2 31 33
M  V30 33 1 33 34
M  V30 34 1 34 35
M  V30 35 1 35 36
M  V30 36 1 26 11
M  V30 37 2 35 30
M  V30 38 1 25 15
M  V30 39 1 24 18
M  V30 40 1 1 37
M  V30 41 1 1 38
M  V30 42 1 1 39
M  V30 43 1 2 40
M  V30 44 1 2 41
M  V30 45 1 4 42
M  V30 46 1 4 43
M  V30 47 1 5 44
M  V30 48 1 5 45
M  V30 49 1 7 46
M  V30 50 1 7 47
M  V30 51 1 8 48 CFG=3
M  V30 52 1 9 49
M  V30 53 1 10 50
M  V30 54 1 10 51
M  V30 55 1 12 52
M  V30 56 1 12 53
M  V30 57 1 13 54
M  V30 58 1 13 55
M  V30 59 1 14 56
M  V30 60 1 14 57
M  V30 61 1 16 58
M  V30 62 1 16 59
M  V30 63 1 17 60
M  V30 64 1 17 61
M  V30 65 1 19 62
M  V30 66 1 21 63
M  V30 67 1 22 64
M  V30 68 1 23 65
M  V30 69 1 26 66
M  V30 70 1 26 67
M  V30 71 1 32 68
M  V30 72 1 32 69
M  V30 73 1 32 70
M  V30 74 1 36 71
M  V30 75 1 36 72
M  V30 76 1 36 73
M  V30 END BOND
M  V30 END CTAB
M  END
>  <Dataset>  (39) 
ChEMBL_Kinases

>  <Ligand_Instance>  (39) 
nan

>  <PDB_ID>  (39) 
nan

>  <Standardized_SMILES>  (39) 
CCOCCN(C[C@@H](O)CN1CCCC2(CCc3cc(O)ccc3O2)C1)S(=O)(=O)c1c(C)noc1C

>  <Name>  (39) 
nan

>  <Pocket>  (39) 
nan

>  <ATP_Site>  (39) 
nan

>  <Peripheral>  (39) 
nan

>  <Num_H_Atoms_ProtBoundConf>  (39) 
nan

>  <Num_Resolved_Atoms>  (39) 
nan

>  <Num_Not_Resolved_Atoms>  (39) 
nan

$$$$
CHEMBL1760776
     RDKit          3D

  0  0  0  0  0  0  0  0  0  0999 V3000
M  V30 BEGIN CTAB
M  V30 COUNTS 70 74 0 0 0
M  V30 BEGIN ATOM
M  V30 1 C 2.443546 -0.404877 4.133724 0
M  V30 2 C 2.844857 -0.797933 2.766769 0
M  V30 3 N 2.984319 -2.022151 2.233349 0
M  V30 4 O 3.356961 -1.934929 0.988312 0
M  V30 5 C 3.476601 -0.653412 0.655911 0
M  V30 6 C 3.893720 -0.242851 -0.720873 0
M  V30 7 C 3.158408 0.076362 1.762170 0
M  V30 8 S 3.167998 1.802653 1.822751 0
M  V30 9 O 4.194976 2.352114 0.843353 0
M  V30 10 O 3.556274 2.329227 3.169119 0
M  V30 11 N 1.670595 2.496450 1.397452 0
M  V30 12 C 1.252859 2.192574 0.042286 0
M  V30 13 C -0.086607 2.845325 -0.260027 0 CFG=1
M  V30 14 O 0.102209 4.238222 -0.099287 0
M  V30 15 C -0.512106 2.650180 -1.675779 0
M  V30 16 N -0.764427 1.277866 -2.055852 0
M  V30 17 C -1.156390 1.341659 -3.466747 0
M  V30 18 C -1.497822 0.002119 -4.027856 0
M  V30 19 C -2.467854 -0.778059 -3.183484 0
M  V30 20 C -1.945413 -0.753509 -1.769619 0 CFG=2
M  V30 21 C -0.559447 -1.354148 -1.798818 0
M  V30 22 C -0.442124 -1.785334 -0.330476 0
M  V30 23 N -1.728098 -2.404650 -0.079581 0
M  V30 24 C -1.838401 -3.541838 0.742690 0
M  V30 25 N -1.810932 -4.646901 -0.052847 0
M  V30 26 C -1.838928 -5.884674 0.517277 0
M  V30 27 N -1.893008 -5.951861 1.857419 0
M  V30 28 C -1.919544 -4.838486 2.605682 0
M  V30 29 N -1.977510 -5.054686 4.032014 0
M  V30 30 C -1.894691 -3.555626 2.087687 0
M  V30 31 C -1.981520 -2.403727 2.943501 0
M  V30 32 C -0.703967 -1.630607 3.191517 0
M  V30 33 C -2.017936 -0.997159 2.671912 0
M  V30 34 C -2.684490 -1.609253 -0.822850 0
M  V30 35 C -1.904822 0.713057 -1.369894 0
M  V30 36 H 1.773669 0.470540 4.153258 0
M  V30 37 H 3.372812 -0.084828 4.659524 0
M  V30 38 H 2.057966 -1.251717 4.730220 0
M  V30 39 H 3.663387 0.840972 -0.883228 0
M  V30 40 H 5.010684 -0.306531 -0.797857 0
M  V30 41 H 3.477686 -0.898361 -1.499267 0
M  V30 42 H 0.911039 2.275626 2.095599 0
M  V30 43 H 2.044820 2.634368 -0.613825 0
M  V30 44 H 1.168987 1.106824 -0.146784 0
M  V30 45 H -0.784471 2.531696 0.511011 0
M  V30 46 H -0.466446 4.621206 0.589724 0
M  V30 47 H 0.293946 3.004946 -2.340756 0
M  V30 48 H -1.398817 3.266128 -1.913943 0
M  V30 49 H -1.942861 2.096859 -3.568742 0
M  V30 50 H -0.269951 1.725076 -4.019193 0
M  V30 51 H -0.590795 -0.566977 -4.269473 0
M  V30 52 H -2.014102 0.182286 -4.998116 0
M  V30 53 H -2.560314 -1.786572 -3.607711 0
M  V30 54 H -3.436058 -0.222299 -3.160121 0
M  V30 55 H 0.228495 -0.652014 -2.077596 0
M  V30 56 H -0.585030 -2.278060 -2.402301 0
M  V30 57 H -0.184927 -0.936108 0.282380 0
M  V30 58 H 0.381952 -2.542965 -0.317789 0
M  V30 59 H -1.821536 -6.823280 -0.013242 0
M  V30 60 H -2.779363 -4.968719 4.721010 0
M  V30 61 H -1.117271 -5.350046 4.549959 0
M  V30 62 H -2.456931 -2.679453 3.953305 0
M  V30 63 H 0.127948 -1.773293 2.501493 0
M  V30 64 H -0.436907 -1.282688 4.209035 0
M  V30 65 H -2.573325 -0.333334 3.416081 0
M  V30 66 H -1.885280 -0.441693 1.756054 0
M  V30 67 H -3.344738 -1.045369 -0.122413 0
M  V30 68 H -3.324585 -2.317896 -1.425203 0
M  V30 69 H -1.925796 0.874452 -0.294750 0
M  V30 70 H -2.809400 1.205767 -1.788743 0
M  V30 END ATOM
M  V30 BEGIN BOND
M  V30 1 1 1 2
M  V30 2 2 2 3
M  V30 3 1 3 4
M  V30 4 1 4 5
M  V30 5 1 5 6
M  V30 6 2 5 7
M  V30 7 1 7 8
M  V30 8 2 8 9
M  V30 9 2 8 10
M  V30 10 1 8 11
M  V30 11 1 11 12
M  V30 12 1 12 13
M  V30 13 1 13 14
M  V30 14 1 13 15
M  V30 15 1 15 16
M  V30 16 1 16 17
M  V30 17 1 17 18
M  V30 18 1 18 19
M  V30 19 1 20 19 CFG=3
M  V30 20 1 20 21
M  V30 21 1 21 22
M  V30 22 1 22 23
M  V30 23 1 23 24
M  V30 24 2 24 25
M  V30 25 1 25 26
M  V30 26 2 26 27
M  V30 27 1 27 28
M  V30 28 1 28 29
M  V30 29 2 28 30
M  V30 30 1 30 31
M  V30 31 1 31 32
M  V30 32 1 32 33
M  V30 33 1 23 34
M  V30 34 1 20 35
M  V30 35 1 7 2
M  V30 36 1 35 16
M  V30 37 1 34 20
M  V30 38 1 30 24
M  V30 39 1 33 31
M  V30 40 1 1 36
M  V30 41 1 1 37
M  V30 42 1 1 38
M  V30 43 1 6 39
M  V30 44 1 6 40
M  V30 45 1 6 41
M  V30 46 1 11 42
M  V30 47 1 12 43
M  V30 48 1 12 44
M  V30 49 1 13 45 CFG=1
M  V30 50 1 14 46
M  V30 51 1 15 47
M  V30 52 1 15 48
M  V30 53 1 17 49
M  V30 54 1 17 50
M  V30 55 1 18 51
M  V30 56 1 18 52
M  V30 57 1 19 53
M  V30 58 1 19 54
M  V30 59 1 21 55
M  V30 60 1 21 56
M  V30 61 1 22 57
M  V30 62 1 22 58
M  V30 63 1 26 59
M  V30 64 1 29 60
M  V30 65 1 29 61
M  V30 66 1 31 62
M  V30 67 1 32 63
M  V30 68 1 32 64
M  V30 69 1 33 65
M  V30 70 1 33 66
M  V30 71 1 34 67
M  V30 72 1 34 68
M  V30 73 1 35 69
M  V30 74 1 35 70
M  V30 END BOND
M  V30 END CTAB
M  END
>  <Dataset>  (40) 
ChEMBL_Kinases

>  <Ligand_Instance>  (40) 
nan

>  <PDB_ID>  (40) 
nan

>  <Standardized_SMILES>  (40) 
Cc1noc(C)c1S(=O)(=O)NC[C@@H](O)CN1CCC[C@@]2(CCN(c3ncnc(N)c3C3CC3)C2)C1

>  <Name>  (40) 
nan

>  <Pocket>  (40) 
nan

>  <ATP_Site>  (40) 
nan

>  <Peripheral>  (40) 
nan

>  <Num_H_Atoms_ProtBoundConf>  (40) 
nan

>  <Num_Resolved_Atoms>  (40) 
nan

>  <Num_Not_Resolved_Atoms>  (40) 
nan

$$$$
CHEMBL1760773
     RDKit          3D

  0  0  0  0  0  0  0  0  0  0999 V3000
M  V30 BEGIN CTAB
M  V30 COUNTS 71 75 0 0 0
M  V30 BEGIN ATOM
M  V30 1 C -0.278312 7.440033 -1.288809 0
M  V30 2 C 0.725503 6.376120 -1.630767 0
M  V30 3 C 2.040416 6.615162 -1.261167 0
M  V30 4 C 3.068524 5.741135 -1.499578 0
M  V30 5 F 4.360303 5.913605 -1.166519 0
M  V30 6 C 2.736422 4.555037 -2.152912 0
M  V30 7 C 1.427635 4.342435 -2.508774 0
M  V30 8 C 0.377321 5.195852 -2.283875 0
M  V30 9 S -1.290255 5.075416 -2.703625 0
M  V30 10 O -1.558580 6.184983 -3.720772 0
M  V30 11 O -2.162389 5.454103 -1.509922 0
M  V30 12 N -1.779795 3.557291 -3.334069 0
M  V30 13 C -1.610778 2.518793 -2.385520 0
M  V30 14 C -2.042673 1.148430 -2.944923 0 CFG=1
M  V30 15 O -1.235970 0.936339 -4.035312 0
M  V30 16 C -1.957122 0.154368 -1.856531 0
M  V30 17 N -2.247085 -1.177831 -2.082156 0
M  V30 18 C -1.404666 -1.982727 -2.893736 0
M  V30 19 C 0.016274 -2.103502 -2.460840 0
M  V30 20 C 0.174909 -2.017480 -0.986733 0
M  V30 21 C -1.039400 -2.119470 -0.153686 0 CFG=2
M  V30 22 C -0.941721 -1.142241 1.007951 0
M  V30 23 C -0.718774 -2.009665 2.231487 0
M  V30 24 N -0.110119 -3.241575 1.702855 0
M  V30 25 C 1.052424 -3.774980 2.300783 0
M  V30 26 N 1.870237 -2.986139 3.018362 0
M  V30 27 C 3.020571 -3.423362 3.553814 0
M  V30 28 N 3.431186 -4.699478 3.401620 0
M  V30 29 C 2.647936 -5.556906 2.684542 0
M  V30 30 N 3.122266 -6.890251 2.551356 0
M  V30 31 C 1.474854 -5.063453 2.154522 0
M  V30 32 C 0.693950 -6.114189 1.471837 0
M  V30 33 C 0.282302 -7.235372 2.442854 0
M  V30 34 C -0.734250 -6.367601 1.797972 0
M  V30 35 C -1.030644 -3.459765 0.607308 0
M  V30 36 C -2.358114 -1.886790 -0.817760 0
M  V30 37 H -0.857961 7.758340 -2.169737 0
M  V30 38 H 0.240822 8.344337 -0.919002 0
M  V30 39 H -0.931209 7.122446 -0.433582 0
M  V30 40 H 2.296746 7.540285 -0.752096 0
M  V30 41 H 3.476394 3.802226 -2.385457 0
M  V30 42 H 1.201961 3.434836 -3.027981 0
M  V30 43 H -2.786121 3.633554 -3.595461 0
M  V30 44 H -2.243283 2.774176 -1.499643 0
M  V30 45 H -0.581145 2.467472 -2.019349 0
M  V30 46 H -3.072095 1.300038 -3.328003 0
M  V30 47 H -0.774233 1.736141 -4.382836 0
M  V30 48 H -2.684286 0.503723 -1.062031 0
M  V30 49 H -0.981759 0.270573 -1.335771 0
M  V30 50 H -1.490681 -1.804697 -3.997773 0
M  V30 51 H -1.846833 -3.017291 -2.787172 0
M  V30 52 H 0.388141 -3.077714 -2.902437 0
M  V30 53 H 0.687848 -1.348702 -2.923297 0
M  V30 54 H 0.859558 -2.880697 -0.716524 0
M  V30 55 H 0.835849 -1.141093 -0.698306 0
M  V30 56 H -1.909240 -0.626729 1.166998 0
M  V30 57 H -0.110871 -0.414875 0.872340 0
M  V30 58 H -0.081148 -1.472702 2.928287 0
M  V30 59 H -1.663438 -2.282469 2.748900 0
M  V30 60 H 3.554633 -2.641521 4.104193 0
M  V30 61 H 2.969180 -7.830407 3.023895 0
M  V30 62 H 3.810631 -6.907993 1.757114 0
M  V30 63 H 1.168259 -6.515999 0.555098 0
M  V30 64 H 0.482667 -7.112994 3.520825 0
M  V30 65 H 0.403230 -8.288959 2.119013 0
M  V30 66 H -1.219053 -5.609708 2.473682 0
M  V30 67 H -1.371495 -6.841823 1.049562 0
M  V30 68 H -0.684921 -4.264050 -0.082378 0
M  V30 69 H -2.032777 -3.602167 1.014724 0
M  V30 70 H -3.112188 -1.371916 -0.215062 0
M  V30 71 H -2.778990 -2.879514 -1.083955 0
M  V30 END ATOM
M  V30 BEGIN BOND
M  V30 1 1 1 2
M  V30 2 2 2 3
M  V30 3 1 3 4
M  V30 4 1 4 5
M  V30 5 2 4 6
M  V30 6 1 6 7
M  V30 7 2 7 8
M  V30 8 1 8 9
M  V30 9 2 9 10
M  V30 10 2 9 11
M  V30 11 1 9 12
M  V30 12 1 12 13
M  V30 13 1 13 14
M  V30 14 1 14 15
M  V30 15 1 14 16
M  V30 16 1 16 17
M  V30 17 1 17 18
M  V30 18 1 18 19
M  V30 19 1 19 20
M  V30 20 1 21 20 CFG=3
M  V30 21 1 21 22
M  V30 22 1 22 23
M  V30 23 1 23 24
M  V30 24 1 24 25
M  V30 25 2 25 26
M  V30 26 1 26 27
M  V30 27 2 27 28
M  V30 28 1 28 29
M  V30 29 1 29 30
M  V30 30 2 29 31
M  V30 31 1 31 32
M  V30 32 1 32 33
M  V30 33 1 33 34
M  V30 34 1 24 35
M  V30 35 1 21 36
M  V30 36 1 8 2
M  V30 37 1 36 17
M  V30 38 1 35 21
M  V30 39 1 31 25
M  V30 40 1 34 32
M  V30 41 1 1 37
M  V30 42 1 1 38
M  V30 43 1 1 39
M  V30 44 1 3 40
M  V30 45 1 6 41
M  V30 46 1 7 42
M  V30 47 1 12 43
M  V30 48 1 13 44
M  V30 49 1 13 45
M  V30 50 1 14 46 CFG=3
M  V30 51 1 15 47
M  V30 52 1 16 48
M  V30 53 1 16 49
M  V30 54 1 18 50
M  V30 55 1 18 51
M  V30 56 1 19 52
M  V30 57 1 19 53
M  V30 58 1 20 54
M  V30 59 1 20 55
M  V30 60 1 22 56
M  V30 61 1 22 57
M  V30 62 1 23 58
M  V30 63 1 23 59
M  V30 64 1 27 60
M  V30 65 1 30 61
M  V30 66 1 30 62
M  V30 67 1 32 63
M  V30 68 1 33 64
M  V30 69 1 33 65
M  V30 70 1 34 66
M  V30 71 1 34 67
M  V30 72 1 35 68
M  V30 73 1 35 69
M  V30 74 1 36 70
M  V30 75 1 36 71
M  V30 END BOND
M  V30 END CTAB
M  END
>  <Dataset>  (41) 
ChEMBL_Kinases

>  <Ligand_Instance>  (41) 
nan

>  <PDB_ID>  (41) 
nan

>  <Standardized_SMILES>  (41) 
Cc1cc(F)ccc1S(=O)(=O)NC[C@@H](O)CN1CCC[C@@]2(CCN(c3ncnc(N)c3C3CC3)C2)C1

>  <Name>  (41) 
nan

>  <Pocket>  (41) 
nan

>  <ATP_Site>  (41) 
nan

>  <Peripheral>  (41) 
nan

>  <Num_H_Atoms_ProtBoundConf>  (41) 
nan

>  <Num_Resolved_Atoms>  (41) 
nan

>  <Num_Not_Resolved_Atoms>  (41) 
nan

$$$$
CHEMBL1760772
     RDKit          3D

  0  0  0  0  0  0  0  0  0  0999 V3000
M  V30 BEGIN CTAB
M  V30 COUNTS 68 72 0 0 0
M  V30 BEGIN ATOM
M  V30 1 N 3.971211 -0.978210 6.792580 0
M  V30 2 C 2.919055 -0.230778 6.198934 0
M  V30 3 N 2.255189 0.740524 6.854423 0
M  V30 4 C 1.260441 1.422454 6.240284 0
M  V30 5 N 0.948203 1.117161 4.973950 0
M  V30 6 C 1.577977 0.153455 4.264044 0
M  V30 7 N 1.060717 0.066546 2.948517 0
M  V30 8 C 1.914443 0.375579 1.832360 0
M  V30 9 C 1.330383 -0.408862 0.704804 0
M  V30 10 C -0.152678 -0.402480 0.998484 0 CFG=2
M  V30 11 C -0.806195 -1.692144 0.545758 0
M  V30 12 C -2.277113 -1.376260 0.361335 0
M  V30 13 C -2.465813 -0.365059 -0.712209 0
M  V30 14 N -1.233110 0.428123 -0.973482 0
M  V30 15 C -1.744530 1.534686 -1.743224 0
M  V30 16 C -0.830852 2.562344 -2.234403 0 CFG=2
M  V30 17 O -1.658677 3.524568 -2.904282 0
M  V30 18 C 0.113017 2.109783 -3.341794 0
M  V30 19 N 1.013631 1.123272 -2.787955 0
M  V30 20 S 2.127474 0.563169 -3.991081 0
M  V30 21 O 2.996149 1.654020 -4.510287 0
M  V30 22 O 2.964238 -0.505855 -3.310660 0
M  V30 23 C 1.210718 -0.187137 -5.271438 0
M  V30 24 C 1.310797 0.371744 -6.534955 0
M  V30 25 C 0.597232 -0.196548 -7.559154 0
M  V30 26 C -0.230024 -1.307197 -7.419585 0
M  V30 27 C -0.320573 -1.856815 -6.149023 0
M  V30 28 C 0.403053 -1.279213 -5.114555 0
M  V30 29 Br 0.256942 -2.062580 -3.395894 0
M  V30 30 C -0.749515 0.797771 0.319298 0
M  V30 31 C -0.271912 -0.292334 2.515256 0
M  V30 32 C 2.580893 -0.528933 4.896375 0
M  V30 33 C 3.286793 -1.571772 4.157352 0
M  V30 34 C 2.919126 -2.979170 4.557146 0
M  V30 35 C 2.681238 -2.458627 3.160943 0
M  V30 36 H 4.969286 -0.970282 7.050502 0
M  V30 37 H 3.635108 -1.922280 7.106749 0
M  V30 38 H 0.754817 2.197158 6.814594 0
M  V30 39 H 1.745051 1.452902 1.606418 0
M  V30 40 H 2.985731 0.171762 2.015897 0
M  V30 41 H 1.564584 0.126531 -0.242411 0
M  V30 42 H 1.707743 -1.448295 0.604577 0
M  V30 43 H -0.417791 -2.092554 -0.389739 0
M  V30 44 H -0.698907 -2.440682 1.352580 0
M  V30 45 H -2.775209 -2.319986 0.063720 0
M  V30 46 H -2.765515 -1.106733 1.336173 0
M  V30 47 H -2.757007 -0.892285 -1.654480 0
M  V30 48 H -3.313895 0.309552 -0.454112 0
M  V30 49 H -2.628537 1.933559 -1.206479 0
M  V30 50 H -2.198200 1.040394 -2.656717 0
M  V30 51 H -0.254250 3.138248 -1.523984 0
M  V30 52 H -1.257439 4.423562 -2.839242 0
M  V30 53 H -0.520095 1.689607 -4.149878 0
M  V30 54 H 0.658640 3.006729 -3.700993 0
M  V30 55 H 1.590813 1.645214 -2.063619 0
M  V30 56 H 1.919070 1.242993 -6.790785 0
M  V30 57 H 0.650291 0.215455 -8.569792 0
M  V30 58 H -0.785935 -1.747068 -8.229636 0
M  V30 59 H -0.939726 -2.710522 -5.977927 0
M  V30 60 H 0.037013 1.575549 0.301912 0
M  V30 61 H -1.565447 1.250939 0.948997 0
M  V30 62 H -0.958941 0.547050 2.798542 0
M  V30 63 H -0.593690 -1.245385 2.951286 0
M  V30 64 H 4.405875 -1.429354 4.112666 0
M  V30 65 H 2.013111 -3.208064 5.119212 0
M  V30 66 H 3.720546 -3.743336 4.727036 0
M  V30 67 H 1.662278 -2.383607 2.785032 0
M  V30 68 H 3.381835 -2.917657 2.408351 0
M  V30 END ATOM
M  V30 BEGIN BOND
M  V30 1 1 1 2
M  V30 2 2 2 3
M  V30 3 1 3 4
M  V30 4 2 4 5
M  V30 5 1 5 6
M  V30 6 1 6 7
M  V30 7 1 7 8
M  V30 8 1 8 9
M  V30 9 1 10 9 CFG=1
M  V30 10 1 10 11
M  V30 11 1 11 12
M  V30 12 1 12 13
M  V30 13 1 13 14
M  V30 14 1 14 15
M  V30 15 1 15 16
M  V30 16 1 16 17
M  V30 17 1 16 18
M  V30 18 1 18 19
M  V30 19 1 19 20
M  V30 20 2 20 21
M  V30 21 2 20 22
M  V30 22 1 20 23
M  V30 23 2 23 24
M  V30 24 1 24 25
M  V30 25 2 25 26
M  V30 26 1 26 27
M  V30 27 2 27 28
M  V30 28 1 28 29
M  V30 29 1 14 30
M  V30 30 1 10 31
M  V30 31 2 6 32
M  V30 32 1 32 33
M  V30 33 1 33 34
M  V30 34 1 34 35
M  V30 35 1 32 2
M  V30 36 1 35 33
M  V30 37 1 31 7
M  V30 38 1 30 10
M  V30 39 1 28 23
M  V30 40 1 1 36
M  V30 41 1 1 37
M  V30 42 1 4 38
M  V30 43 1 8 39
M  V30 44 1 8 40
M  V30 45 1 9 41
M  V30 46 1 9 42
M  V30 47 1 11 43
M  V30 48 1 11 44
M  V30 49 1 12 45
M  V30 50 1 12 46
M  V30 51 1 13 47
M  V30 52 1 13 48
M  V30 53 1 15 49
M  V30 54 1 15 50
M  V30 55 1 16 51 CFG=1
M  V30 56 1 17 52
M  V30 57 1 18 53
M  V30 58 1 18 54
M  V30 59 1 19 55
M  V30 60 1 24 56
M  V30 61 1 25 57
M  V30 62 1 26 58
M  V30 63 1 27 59
M  V30 64 1 30 60
M  V30 65 1 30 61
M  V30 66 1 31 62
M  V30 67 1 31 63
M  V30 68 1 33 64
M  V30 69 1 34 65
M  V30 70 1 34 66
M  V30 71 1 35 67
M  V30 72 1 35 68
M  V30 END BOND
M  V30 END CTAB
M  END
>  <Dataset>  (42) 
ChEMBL_Kinases

>  <Ligand_Instance>  (42) 
nan

>  <PDB_ID>  (42) 
nan

>  <Standardized_SMILES>  (42) 
Nc1ncnc(N2CC[C@@]3(CCCN(C[C@H](O)CNS(=O)(=O)c4ccccc4Br)C3)C2)c1C1CC1

>  <Name>  (42) 
nan

>  <Pocket>  (42) 
nan

>  <ATP_Site>  (42) 
nan

>  <Peripheral>  (42) 
nan

>  <Num_H_Atoms_ProtBoundConf>  (42) 
nan

>  <Num_Resolved_Atoms>  (42) 
nan

>  <Num_Not_Resolved_Atoms>  (42) 
nan

$$$$
CHEMBL1760771
     RDKit          3D

  0  0  0  0  0  0  0  0  0  0999 V3000
M  V30 BEGIN CTAB
M  V30 COUNTS 68 72 0 0 0
M  V30 BEGIN ATOM
M  V30 1 N 3.766765 0.829985 4.942163 0
M  V30 2 C 2.954348 1.720832 3.989835 0
M  V30 3 N 2.914426 2.959097 4.308091 0
M  V30 4 C 2.685423 3.808991 3.248940 0
M  V30 5 N 2.562857 3.342129 1.983368 0
M  V30 6 C 2.574603 2.000513 1.702627 0
M  V30 7 N 2.081945 1.587958 0.466591 0
M  V30 8 C 2.311032 0.460502 -0.378793 0
M  V30 9 C 0.903989 0.009425 -0.675922 0
M  V30 10 C 0.028780 1.246393 -0.493686 0 CFG=2
M  V30 11 C -0.783862 1.201009 0.753964 0
M  V30 12 C -2.094181 1.914289 0.702799 0
M  V30 13 C -2.577308 2.254164 -0.667650 0
M  V30 14 N -2.175541 1.271805 -1.629891 0
M  V30 15 C -2.550625 -0.072393 -1.297740 0
M  V30 16 C -3.198990 -0.848476 -2.526120 0 CFG=2
M  V30 17 O -4.557864 -0.930868 -2.322174 0
M  V30 18 C -2.524229 -2.268539 -2.446339 0
M  V30 19 N -3.593602 -3.100456 -1.948135 0
M  V30 20 S -3.087002 -3.794197 -0.434091 0
M  V30 21 O -2.898311 -2.542642 0.526574 0
M  V30 22 O -4.312017 -4.456311 0.149249 0
M  V30 23 C -1.736717 -4.728700 -0.283383 0
M  V30 24 C -0.878289 -4.997941 -1.310003 0
M  V30 25 C 0.264309 -5.744347 -1.079741 0
M  V30 26 C 0.566488 -6.265167 0.158104 0
M  V30 27 C -0.299779 -6.010012 1.195435 0
M  V30 28 C -1.436789 -5.255196 0.958794 0
M  V30 29 Cl -2.286558 -4.695874 2.399322 0
M  V30 30 C -0.736220 1.418967 -1.761327 0
M  V30 31 C 1.077298 2.338413 -0.309253 0
M  V30 32 C 2.759401 1.221652 2.830410 0
M  V30 33 C 2.898592 -0.249774 2.566385 0
M  V30 34 C 2.590538 -1.187240 3.754178 0
M  V30 35 C 1.829345 -1.242798 2.502309 0
M  V30 36 H 4.608279 0.254059 4.605194 0
M  V30 37 H 3.496673 0.795242 5.938406 0
M  V30 38 H 2.492363 4.851591 3.444358 0
M  V30 39 H 2.767334 0.842728 -1.324659 0
M  V30 40 H 2.966269 -0.307914 0.020914 0
M  V30 41 H 0.560305 -0.830685 -0.058280 0
M  V30 42 H 0.899557 -0.351292 -1.727062 0
M  V30 43 H -0.953935 0.153144 1.112488 0
M  V30 44 H -0.213460 1.668246 1.600120 0
M  V30 45 H -2.893620 1.290439 1.178657 0
M  V30 46 H -2.097692 2.864498 1.295552 0
M  V30 47 H -2.122624 3.221679 -0.979652 0
M  V30 48 H -3.671472 2.410555 -0.670841 0
M  V30 49 H -3.264428 -0.006252 -0.451398 0
M  V30 50 H -1.622302 -0.627127 -1.038565 0
M  V30 51 H -3.000269 -0.331304 -3.424668 0
M  V30 52 H -4.856557 -1.487355 -3.085926 0
M  V30 53 H -2.280388 -2.474685 -3.568476 0
M  V30 54 H -1.675530 -2.268637 -1.904571 0
M  V30 55 H -3.464223 -4.096408 -2.577505 0
M  V30 56 H -1.137357 -4.642237 -2.287007 0
M  V30 57 H 1.015712 -5.864109 -1.852379 0
M  V30 58 H 1.393140 -6.936856 0.299900 0
M  V30 59 H -0.030541 -6.380012 2.169191 0
M  V30 60 H -0.535908 2.445859 -2.138911 0
M  V30 61 H -0.418085 0.723902 -2.577640 0
M  V30 62 H 0.688030 3.208704 0.237349 0
M  V30 63 H 1.458064 2.574683 -1.318060 0
M  V30 64 H 3.932740 -0.414129 2.195894 0
M  V30 65 H 2.091159 -0.758136 4.632105 0
M  V30 66 H 3.279420 -2.023339 3.945592 0
M  V30 67 H 0.786397 -0.836857 2.520026 0
M  V30 68 H 1.943469 -2.044054 1.749733 0
M  V30 END ATOM
M  V30 BEGIN BOND
M  V30 1 1 1 2
M  V30 2 2 2 3
M  V30 3 1 3 4
M  V30 4 2 4 5
M  V30 5 1 5 6
M  V30 6 1 6 7
M  V30 7 1 7 8
M  V30 8 1 8 9
M  V30 9 1 10 9 CFG=3
M  V30 10 1 10 11
M  V30 11 1 11 12
M  V30 12 1 12 13
M  V30 13 1 13 14
M  V30 14 1 14 15
M  V30 15 1 15 16
M  V30 16 1 16 17
M  V30 17 1 16 18
M  V30 18 1 18 19
M  V30 19 1 19 20
M  V30 20 2 20 21
M  V30 21 2 20 22
M  V30 22 1 20 23
M  V30 23 2 23 24
M  V30 24 1 24 25
M  V30 25 2 25 26
M  V30 26 1 26 27
M  V30 27 2 27 28
M  V30 28 1 28 29
M  V30 29 1 14 30
M  V30 30 1 10 31
M  V30 31 2 6 32
M  V30 32 1 32 33
M  V30 33 1 33 34
M  V30 34 1 34 35
M  V30 35 1 32 2
M  V30 36 1 35 33
M  V30 37 1 31 7
M  V30 38 1 30 10
M  V30 39 1 28 23
M  V30 40 1 1 36
M  V30 41 1 1 37
M  V30 42 1 4 38
M  V30 43 1 8 39
M  V30 44 1 8 40
M  V30 45 1 9 41
M  V30 46 1 9 42
M  V30 47 1 11 43
M  V30 48 1 11 44
M  V30 49 1 12 45
M  V30 50 1 12 46
M  V30 51 1 13 47
M  V30 52 1 13 48
M  V30 53 1 15 49
M  V30 54 1 15 50
M  V30 55 1 16 51 CFG=3
M  V30 56 1 17 52
M  V30 57 1 18 53
M  V30 58 1 18 54
M  V30 59 1 19 55
M  V30 60 1 24 56
M  V30 61 1 25 57
M  V30 62 1 26 58
M  V30 63 1 27 59
M  V30 64 1 30 60
M  V30 65 1 30 61
M  V30 66 1 31 62
M  V30 67 1 31 63
M  V30 68 1 33 64
M  V30 69 1 34 65
M  V30 70 1 34 66
M  V30 71 1 35 67
M  V30 72 1 35 68
M  V30 END BOND
M  V30 END CTAB
M  END
>  <Dataset>  (43) 
ChEMBL_Kinases

>  <Ligand_Instance>  (43) 
nan

>  <PDB_ID>  (43) 
nan

>  <Standardized_SMILES>  (43) 
Nc1ncnc(N2CC[C@@]3(CCCN(C[C@H](O)CNS(=O)(=O)c4ccccc4Cl)C3)C2)c1C1CC1

>  <Name>  (43) 
nan

>  <Pocket>  (43) 
nan

>  <ATP_Site>  (43) 
nan

>  <Peripheral>  (43) 
nan

>  <Num_H_Atoms_ProtBoundConf>  (43) 
nan

>  <Num_Resolved_Atoms>  (43) 
nan

>  <Num_Not_Resolved_Atoms>  (43) 
nan

$$$$
CHEMBL1760769
     RDKit          3D

  0  0  0  0  0  0  0  0  0  0999 V3000
M  V30 BEGIN CTAB
M  V30 COUNTS 71 75 0 0 0
M  V30 BEGIN ATOM
M  V30 1 C 2.010692 0.034648 3.783167 0
M  V30 2 C 3.312139 0.333660 3.148121 0
M  V30 3 C 4.352127 -0.578750 3.210601 0
M  V30 4 C 5.574831 -0.322550 2.630603 0
M  V30 5 C 5.764671 0.862425 1.977468 0
M  V30 6 C 4.705486 1.744951 1.936724 0
M  V30 7 C 3.443333 1.541531 2.505303 0
M  V30 8 S 2.193233 2.752237 2.369130 0
M  V30 9 O 1.799555 3.240289 3.728174 0
M  V30 10 O 2.727984 3.898390 1.562689 0
M  V30 11 N 0.802519 2.143674 1.529476 0
M  V30 12 C 1.140225 1.756883 0.186818 0
M  V30 13 C -0.109060 1.231650 -0.522834 0 CFG=1
M  V30 14 O -1.006415 2.296873 -0.503947 0
M  V30 15 C 0.301493 0.897856 -1.961278 0
M  V30 16 N -0.737515 0.550847 -2.819331 0
M  V30 17 C -0.447942 0.224253 -4.131136 0
M  V30 18 C -0.868232 -1.119992 -4.626153 0
M  V30 19 C -2.087058 -1.667746 -3.968242 0
M  V30 20 C -1.965455 -1.464464 -2.475178 0 CFG=2
M  V30 21 C -0.797014 -2.264841 -1.982099 0
M  V30 22 C -1.450528 -3.532604 -1.443803 0
M  V30 23 N -2.606358 -2.910675 -0.774432 0
M  V30 24 C -3.320396 -2.912659 0.428156 0
M  V30 25 N -4.540007 -3.480975 0.396727 0
M  V30 26 C -5.350415 -3.558164 1.465350 0
M  V30 27 N -4.930628 -3.037270 2.655244 0
M  V30 28 C -3.689370 -2.461946 2.676702 0
M  V30 29 N -3.466093 -1.988553 4.019925 0
M  V30 30 C -2.829566 -2.372245 1.572493 0
M  V30 31 C -1.619493 -1.712721 2.013260 0
M  V30 32 C -0.708108 -2.464107 2.963376 0
M  V30 33 C -0.232722 -2.035943 1.630817 0
M  V30 34 C -3.173795 -1.996682 -1.741467 0
M  V30 35 C -1.871486 0.010961 -2.249169 0
M  V30 36 H 1.927812 -1.060961 3.885811 0
M  V30 37 H 1.156916 0.435282 3.205484 0
M  V30 38 H 1.993959 0.447787 4.829036 0
M  V30 39 H 4.198348 -1.523365 3.731993 0
M  V30 40 H 6.364106 -1.051020 2.695959 0
M  V30 41 H 6.696386 1.132210 1.498994 0
M  V30 42 H 4.871641 2.688821 1.411095 0
M  V30 43 H 0.083586 2.881239 1.569061 0
M  V30 44 H 1.951847 1.024166 0.139385 0
M  V30 45 H 1.454262 2.696755 -0.352442 0
M  V30 46 H -0.471822 0.372010 0.040801 0
M  V30 47 H -1.480756 2.210072 0.381938 0
M  V30 48 H 1.106209 0.128128 -1.915892 0
M  V30 49 H 0.839405 1.843281 -2.301047 0
M  V30 50 H -0.763964 1.024444 -4.874527 0
M  V30 51 H 0.682631 0.244382 -4.253453 0
M  V30 52 H -1.140662 -0.998623 -5.718284 0
M  V30 53 H -0.015526 -1.853981 -4.675085 0
M  V30 54 H -2.958576 -1.084856 -4.352317 0
M  V30 55 H -2.233522 -2.706714 -4.255785 0
M  V30 56 H -0.186708 -1.754195 -1.241085 0
M  V30 57 H -0.120320 -2.617480 -2.809311 0
M  V30 58 H -1.914929 -4.074365 -2.309414 0
M  V30 59 H -0.839108 -4.152167 -0.820485 0
M  V30 60 H -6.312244 -4.034558 1.339313 0
M  V30 61 H -3.412730 -2.681723 4.805115 0
M  V30 62 H -3.330304 -1.055162 4.464412 0
M  V30 63 H -1.748688 -0.645531 2.342523 0
M  V30 64 H -0.294280 -1.942304 3.839737 0
M  V30 65 H -0.853618 -3.547597 3.102344 0
M  V30 66 H 0.515688 -1.192059 1.571564 0
M  V30 67 H -0.019963 -2.812345 0.882011 0
M  V30 68 H -3.761311 -2.654407 -2.445990 0
M  V30 69 H -3.815098 -1.208410 -1.353768 0
M  V30 70 H -2.774398 0.460907 -2.790078 0
M  V30 71 H -2.077628 0.294667 -1.189270 0
M  V30 END ATOM
M  V30 BEGIN BOND
M  V30 1 1 1 2
M  V30 2 2 2 3
M  V30 3 1 3 4
M  V30 4 2 4 5
M  V30 5 1 5 6
M  V30 6 2 6 7
M  V30 7 1 7 8
M  V30 8 2 8 9
M  V30 9 2 8 10
M  V30 10 1 8 11
M  V30 11 1 11 12
M  V30 12 1 12 13
M  V30 13 1 13 14
M  V30 14 1 13 15
M  V30 15 1 15 16
M  V30 16 1 16 17
M  V30 17 1 17 18
M  V30 18 1 18 19
M  V30 19 1 20 19 CFG=3
M  V30 20 1 20 21
M  V30 21 1 21 22
M  V30 22 1 22 23
M  V30 23 1 23 24
M  V30 24 2 24 25
M  V30 25 1 25 26
M  V30 26 2 26 27
M  V30 27 1 27 28
M  V30 28 1 28 29
M  V30 29 2 28 30
M  V30 30 1 30 31
M  V30 31 1 31 32
M  V30 32 1 32 33
M  V30 33 1 23 34
M  V30 34 1 20 35
M  V30 35 1 7 2
M  V30 36 1 35 16
M  V30 37 1 34 20
M  V30 38 1 30 24
M  V30 39 1 33 31
M  V30 40 1 1 36
M  V30 41 1 1 37
M  V30 42 1 1 38
M  V30 43 1 3 39
M  V30 44 1 4 40
M  V30 45 1 5 41
M  V30 46 1 6 42
M  V30 47 1 11 43
M  V30 48 1 12 44
M  V30 49 1 12 45
M  V30 50 1 13 46 CFG=1
M  V30 51 1 14 47
M  V30 52 1 15 48
M  V30 53 1 15 49
M  V30 54 1 17 50
M  V30 55 1 17 51
M  V30 56 1 18 52
M  V30 57 1 18 53
M  V30 58 1 19 54
M  V30 59 1 19 55
M  V30 60 1 21 56
M  V30 61 1 21 57
M  V30 62 1 22 58
M  V30 63 1 22 59
M  V30 64 1 26 60
M  V30 65 1 29 61
M  V30 66 1 29 62
M  V30 67 1 31 63
M  V30 68 1 32 64
M  V30 69 1 32 65
M  V30 70 1 33 66
M  V30 71 1 33 67
M  V30 72 1 34 68
M  V30 73 1 34 69
M  V30 74 1 35 70
M  V30 75 1 35 71
M  V30 END BOND
M  V30 END CTAB
M  END
>  <Dataset>  (44) 
ChEMBL_Kinases

>  <Ligand_Instance>  (44) 
nan

>  <PDB_ID>  (44) 
nan

>  <Standardized_SMILES>  (44) 
Cc1ccccc1S(=O)(=O)NC[C@@H](O)CN1CCC[C@@]2(CCN(c3ncnc(N)c3C3CC3)C2)C1

>  <Name>  (44) 
nan

>  <Pocket>  (44) 
nan

>  <ATP_Site>  (44) 
nan

>  <Peripheral>  (44) 
nan

>  <Num_H_Atoms_ProtBoundConf>  (44) 
nan

>  <Num_Resolved_Atoms>  (44) 
nan

>  <Num_Not_Resolved_Atoms>  (44) 
nan

$$$$
CHEMBL1760768
     RDKit          3D

  0  0  0  0  0  0  0  0  0  0999 V3000
M  V30 BEGIN CTAB
M  V30 COUNTS 74 78 0 0 0
M  V30 BEGIN ATOM
M  V30 1 C 4.446068 0.989751 2.185503 0
M  V30 2 C 5.093793 0.100870 1.191320 0
M  V30 3 C 5.837828 -0.932191 1.742971 0
M  V30 4 C 6.509710 -1.862527 0.963222 0
M  V30 5 C 6.389071 -1.692434 -0.417535 0
M  V30 6 C 5.646730 -0.660844 -0.987209 0
M  V30 7 C 5.610901 -0.580602 -2.457783 0
M  V30 8 C 4.999515 0.234904 -0.194049 0
M  V30 9 S 4.071316 1.562981 -0.814456 0
M  V30 10 O 4.311662 2.833487 -0.007647 0
M  V30 11 O 4.549566 1.913695 -2.211444 0
M  V30 12 N 2.400322 1.270021 -0.910440 0
M  V30 13 C 2.035423 0.198851 -1.776182 0
M  V30 14 C 0.509622 0.021954 -1.779371 0 CFG=1
M  V30 15 O -0.125864 1.207629 -2.216204 0
M  V30 16 C 0.092150 -1.137934 -2.647153 0
M  V30 17 N -1.338375 -1.369286 -2.596077 0
M  V30 18 C -1.752825 -2.382344 -3.570382 0
M  V30 19 C -3.265028 -2.406259 -3.550836 0
M  V30 20 C -3.867272 -1.612733 -2.418644 0
M  V30 21 C -3.141956 -1.774521 -1.123638 0 CFG=2
M  V30 22 C -3.777394 -2.838474 -0.236861 0
M  V30 23 C -4.252302 -2.039514 0.990238 0
M  V30 24 N -3.145792 -1.082811 1.097636 0
M  V30 25 C -2.331580 -0.928307 2.279539 0
M  V30 26 N -1.040436 -1.212502 2.221081 0
M  V30 27 C -0.257250 -1.097542 3.302834 0
M  V30 28 N -0.783263 -0.688368 4.465584 0
M  V30 29 C -2.104564 -0.392066 4.543941 0
M  V30 30 N -2.524945 0.033456 5.829335 0
M  V30 31 C -2.931481 -0.509103 3.419146 0
M  V30 32 C -4.302319 -0.132701 3.662988 0
M  V30 33 C -4.464029 1.423079 3.704772 0
M  V30 34 C -5.222281 0.533919 2.748660 0
M  V30 35 C -3.257557 -0.511266 -0.259148 0
M  V30 36 C -1.668503 -2.004994 -1.302421 0
M  V30 37 H 4.058628 0.377513 3.049236 0
M  V30 38 H 3.541927 1.497074 1.741508 0
M  V30 39 H 5.114306 1.791342 2.551597 0
M  V30 40 H 5.943359 -1.080889 2.827593 0
M  V30 41 H 7.096878 -2.679767 1.354444 0
M  V30 42 H 6.897909 -2.394825 -1.058761 0
M  V30 43 H 6.116398 -1.470086 -2.925284 0
M  V30 44 H 6.208658 0.285605 -2.820603 0
M  V30 45 H 4.584285 -0.575985 -2.811633 0
M  V30 46 H 1.920772 1.330114 -0.010303 0
M  V30 47 H 2.314120 0.453233 -2.815389 0
M  V30 48 H 2.451157 -0.759310 -1.415192 0
M  V30 49 H 0.242044 -0.065620 -0.719684 0
M  V30 50 H 0.501630 1.642092 -2.848184 0
M  V30 51 H 0.435251 -0.925109 -3.677043 0
M  V30 52 H 0.554858 -2.059287 -2.232428 0
M  V30 53 H -1.403399 -3.365466 -3.197963 0
M  V30 54 H -1.329422 -2.211339 -4.565392 0
M  V30 55 H -3.591084 -1.902555 -4.497980 0
M  V30 56 H -3.684295 -3.434119 -3.614972 0
M  V30 57 H -4.903352 -2.028211 -2.282695 0
M  V30 58 H -3.992502 -0.534475 -2.678602 0
M  V30 59 H -3.048442 -3.599330 0.067414 0
M  V30 60 H -4.664744 -3.265738 -0.746958 0
M  V30 61 H -4.311499 -2.683141 1.896239 0
M  V30 62 H -5.205390 -1.556764 0.781639 0
M  V30 63 H 0.780291 -1.357366 3.137092 0
M  V30 64 H -1.909663 0.642152 6.423363 0
M  V30 65 H -3.427358 -0.198085 6.282185 0
M  V30 66 H -4.755542 -0.645103 4.540437 0
M  V30 67 H -3.683572 2.030869 3.234639 0
M  V30 68 H -4.987322 1.828364 4.595005 0
M  V30 69 H -5.077488 0.670929 1.658612 0
M  V30 70 H -6.307450 0.462657 2.973472 0
M  V30 71 H -4.270795 -0.112248 -0.458760 0
M  V30 72 H -2.469561 0.208293 -0.471443 0
M  V30 73 H -1.416179 -3.082141 -1.399046 0
M  V30 74 H -1.035861 -1.523753 -0.545988 0
M  V30 END ATOM
M  V30 BEGIN BOND
M  V30 1 1 1 2
M  V30 2 2 2 3
M  V30 3 1 3 4
M  V30 4 2 4 5
M  V30 5 1 5 6
M  V30 6 1 6 7
M  V30 7 2 6 8
M  V30 8 1 8 9
M  V30 9 2 9 10
M  V30 10 2 9 11
M  V30 11 1 9 12
M  V30 12 1 12 13
M  V30 13 1 13 14
M  V30 14 1 14 15
M  V30 15 1 14 16
M  V30 16 1 16 17
M  V30 17 1 17 18
M  V30 18 1 18 19
M  V30 19 1 19 20
M  V30 20 1 21 20 CFG=3
M  V30 21 1 21 22
M  V30 22 1 22 23
M  V30 23 1 23 24
M  V30 24 1 24 25
M  V30 25 2 25 26
M  V30 26 1 26 27
M  V30 27 2 27 28
M  V30 28 1 28 29
M  V30 29 1 29 30
M  V30 30 2 29 31
M  V30 31 1 31 32
M  V30 32 1 32 33
M  V30 33 1 33 34
M  V30 34 1 24 35
M  V30 35 1 21 36
M  V30 36 1 8 2
M  V30 37 1 36 17
M  V30 38 1 35 21
M  V30 39 1 31 25
M  V30 40 1 34 32
M  V30 41 1 1 37
M  V30 42 1 1 38
M  V30 43 1 1 39
M  V30 44 1 3 40
M  V30 45 1 4 41
M  V30 46 1 5 42
M  V30 47 1 7 43
M  V30 48 1 7 44
M  V30 49 1 7 45
M  V30 50 1 12 46
M  V30 51 1 13 47
M  V30 52 1 13 48
M  V30 53 1 14 49 CFG=1
M  V30 54 1 15 50
M  V30 55 1 16 51
M  V30 56 1 16 52
M  V30 57 1 18 53
M  V30 58 1 18 54
M  V30 59 1 19 55
M  V30 60 1 19 56
M  V30 61 1 20 57
M  V30 62 1 20 58
M  V30 63 1 22 59
M  V30 64 1 22 60
M  V30 65 1 23 61
M  V30 66 1 23 62
M  V30 67 1 27 63
M  V30 68 1 30 64
M  V30 69 1 30 65
M  V30 70 1 32 66
M  V30 71 1 33 67
M  V30 72 1 33 68
M  V30 73 1 34 69
M  V30 74 1 34 70
M  V30 75 1 35 71
M  V30 76 1 35 72
M  V30 77 1 36 73
M  V30 78 1 36 74
M  V30 END BOND
M  V30 END CTAB
M  END
>  <Dataset>  (45) 
ChEMBL_Kinases

>  <Ligand_Instance>  (45) 
nan

>  <PDB_ID>  (45) 
nan

>  <Standardized_SMILES>  (45) 
Cc1cccc(C)c1S(=O)(=O)NC[C@@H](O)CN1CCC[C@@]2(CCN(c3ncnc(N)c3C3CC3)C2)C1

>  <Name>  (45) 
nan

>  <Pocket>  (45) 
nan

>  <ATP_Site>  (45) 
nan

>  <Peripheral>  (45) 
nan

>  <Num_H_Atoms_ProtBoundConf>  (45) 
nan

>  <Num_Resolved_Atoms>  (45) 
nan

>  <Num_Not_Resolved_Atoms>  (45) 
nan

$$$$
CHEMBL1760767
     RDKit          3D

  0  0  0  0  0  0  0  0  0  0999 V3000
M  V30 BEGIN CTAB
M  V30 COUNTS 81 86 0 0 0
M  V30 BEGIN ATOM
M  V30 1 C 5.171629 1.700625 3.744260 0
M  V30 2 C 4.397348 0.437752 3.765047 0
M  V30 3 C 4.561131 -0.436223 4.818475 0
M  V30 4 C 3.896145 -1.641258 4.877458 0
M  V30 5 C 3.050879 -1.921936 3.811342 0
M  V30 6 C 2.876025 -1.043973 2.738284 0
M  V30 7 C 1.915674 -1.645889 1.789566 0
M  V30 8 C 3.563107 0.173442 2.703883 0
M  V30 9 S 3.165285 1.119518 1.320356 0
M  V30 10 O 4.223510 2.196784 1.099911 0
M  V30 11 O 3.181333 0.318940 0.044446 0
M  V30 12 N 1.645786 1.902035 1.549469 0
M  V30 13 C 1.654827 2.796241 2.650335 0
M  V30 14 C 1.163800 4.156689 2.192558 0
M  V30 15 C 1.467332 4.099114 0.705386 0
M  V30 16 C 1.233589 2.634234 0.367114 0 CFG=2
M  V30 17 C -0.232106 2.455033 0.032930 0 CFG=1
M  V30 18 O -0.562535 3.179196 -1.106558 0
M  V30 19 C -0.511695 1.011177 -0.062346 0
M  V30 20 N -1.921419 0.689424 -0.302436 0
M  V30 21 C -2.674056 1.030652 0.861961 0
M  V30 22 C -3.991012 0.359936 1.022245 0
M  V30 23 C -3.944512 -1.139977 0.817290 0
M  V30 24 C -3.259454 -1.364747 -0.488538 0 CFG=2
M  V30 25 C -4.072217 -0.876395 -1.669809 0
M  V30 26 C -4.359259 -2.212778 -2.377386 0
M  V30 27 N -3.001107 -2.801959 -2.253883 0
M  V30 28 C -2.179189 -3.087076 -3.409630 0
M  V30 29 N -2.623734 -2.625414 -4.588410 0
M  V30 30 C -2.045362 -2.756373 -5.767421 0
M  V30 31 N -0.884591 -3.428692 -5.774853 0
M  V30 32 C -0.377320 -3.919946 -4.638747 0
M  V30 33 N 0.845443 -4.617037 -4.801521 0
M  V30 34 C -0.967593 -3.788876 -3.413786 0
M  V30 35 C -0.457430 -4.313970 -2.153415 0
M  V30 36 C 0.450879 -3.417210 -1.326152 0
M  V30 37 C 0.984631 -4.665602 -1.993203 0
M  V30 38 C -3.057155 -2.858017 -0.811432 0
M  V30 39 C -1.900832 -0.769853 -0.415154 0
M  V30 40 H 4.677166 2.567882 4.170665 0
M  V30 41 H 6.067581 1.516476 4.427095 0
M  V30 42 H 5.685472 1.887249 2.760407 0
M  V30 43 H 5.245715 -0.137240 5.617601 0
M  V30 44 H 4.069291 -2.277861 5.729503 0
M  V30 45 H 2.579357 -2.895900 3.960566 0
M  V30 46 H 0.983340 -1.916210 2.369644 0
M  V30 47 H 2.274843 -2.594899 1.367677 0
M  V30 48 H 1.574048 -1.012276 0.981400 0
M  V30 49 H 2.651583 2.910519 3.085365 0
M  V30 50 H 0.898782 2.462068 3.419128 0
M  V30 51 H 0.086698 4.283404 2.375493 0
M  V30 52 H 1.734677 4.926661 2.718059 0
M  V30 53 H 0.804466 4.735844 0.103310 0
M  V30 54 H 2.517860 4.372108 0.514199 0
M  V30 55 H 1.833733 2.365204 -0.521163 0
M  V30 56 H -0.780573 2.902629 0.913182 0
M  V30 57 H -1.479101 3.513388 -1.085869 0
M  V30 58 H 0.048332 0.572930 -0.912020 0
M  V30 59 H -0.237229 0.530953 0.898436 0
M  V30 60 H -2.078325 0.972241 1.810426 0
M  V30 61 H -2.899152 2.134625 0.765490 0
M  V30 62 H -4.345181 0.537453 2.053343 0
M  V30 63 H -4.762425 0.758916 0.333053 0
M  V30 64 H -4.986408 -1.491961 0.807779 0
M  V30 65 H -3.398323 -1.662077 1.606870 0
M  V30 66 H -5.055061 -0.454508 -1.377373 0
M  V30 67 H -3.506111 -0.237484 -2.347037 0
M  V30 68 H -4.624534 -2.060418 -3.432451 0
M  V30 69 H -5.089774 -2.825214 -1.852823 0
M  V30 70 H -2.466811 -2.354552 -6.668321 0
M  V30 71 H 0.823792 -5.653623 -4.583050 0
M  V30 72 H 1.676246 -4.045349 -5.128037 0
M  V30 73 H -1.137476 -4.953160 -1.519552 0
M  V30 74 H 0.714967 -2.417873 -1.704500 0
M  V30 75 H 0.405533 -3.490521 -0.221020 0
M  V30 76 H 1.774284 -4.435879 -2.706362 0
M  V30 77 H 1.262603 -5.537993 -1.339361 0
M  V30 78 H -2.174777 -3.225131 -0.302450 0
M  V30 79 H -3.981512 -3.403942 -0.495404 0
M  V30 80 H -1.425204 -1.131331 0.522269 0
M  V30 81 H -1.227684 -1.089672 -1.240630 0
M  V30 END ATOM
M  V30 BEGIN BOND
M  V30 1 1 1 2
M  V30 2 2 2 3
M  V30 3 1 3 4
M  V30 4 2 4 5
M  V30 5 1 5 6
M  V30 6 1 6 7
M  V30 7 2 6 8
M  V30 8 1 8 9
M  V30 9 2 9 10
M  V30 10 2 9 11
M  V30 11 1 9 12
M  V30 12 1 12 13
M  V30 13 1 13 14
M  V30 14 1 14 15
M  V30 15 1 15 16
M  V30 16 1 16 17
M  V30 17 1 17 18
M  V30 18 1 17 19
M  V30 19 1 19 20
M  V30 20 1 20 21
M  V30 21 1 21 22
M  V30 22 1 22 23
M  V30 23 1 24 23 CFG=1
M  V30 24 1 24 25
M  V30 25 1 25 26
M  V30 26 1 26 27
M  V30 27 1 27 28
M  V30 28 2 28 29
M  V30 29 1 29 30
M  V30 30 2 30 31
M  V30 31 1 31 32
M  V30 32 1 32 33
M  V30 33 2 32 34
M  V30 34 1 34 35
M  V30 35 1 35 36
M  V30 36 1 36 37
M  V30 37 1 27 38
M  V30 38 1 24 39
M  V30 39 1 8 2
M  V30 40 1 16 12
M  V30 41 1 39 20
M  V30 42 1 38 24
M  V30 43 1 34 28
M  V30 44 1 37 35
M  V30 45 1 1 40
M  V30 46 1 1 41
M  V30 47 1 1 42
M  V30 48 1 3 43
M  V30 49 1 4 44
M  V30 50 1 5 45
M  V30 51 1 7 46
M  V30 52 1 7 47
M  V30 53 1 7 48
M  V30 54 1 13 49
M  V30 55 1 13 50
M  V30 56 1 14 51
M  V30 57 1 14 52
M  V30 58 1 15 53
M  V30 59 1 15 54
M  V30 60 1 16 55 CFG=3
M  V30 61 1 17 56 CFG=1
M  V30 62 1 18 57
M  V30 63 1 19 58
M  V30 64 1 19 59
M  V30 65 1 21 60
M  V30 66 1 21 61
M  V30 67 1 22 62
M  V30 68 1 22 63
M  V30 69 1 23 64
M  V30 70 1 23 65
M  V30 71 1 25 66
M  V30 72 1 25 67
M  V30 73 1 26 68
M  V30 74 1 26 69
M  V30 75 1 30 70
M  V30 76 1 33 71
M  V30 77 1 33 72
M  V30 78 1 35 73
M  V30 79 1 36 74
M  V30 80 1 36 75
M  V30 81 1 37 76
M  V30 82 1 37 77
M  V30 83 1 38 78
M  V30 84 1 38 79
M  V30 85 1 39 80
M  V30 86 1 39 81
M  V30 END BOND
M  V30 END CTAB
M  END
>  <Dataset>  (46) 
ChEMBL_Kinases

>  <Ligand_Instance>  (46) 
nan

>  <PDB_ID>  (46) 
nan

>  <Standardized_SMILES>  (46) 
Cc1cccc(C)c1S(=O)(=O)N1CCC[C@@H]1[C@@H](O)CN1CCC[C@@]2(CCN(c3ncnc(N)c3C3CC3)C2)C1

>  <Name>  (46) 
nan

>  <Pocket>  (46) 
nan

>  <ATP_Site>  (46) 
nan

>  <Peripheral>  (46) 
nan

>  <Num_H_Atoms_ProtBoundConf>  (46) 
nan

>  <Num_Resolved_Atoms>  (46) 
nan

>  <Num_Not_Resolved_Atoms>  (46) 
nan

$$$$
CHEMBL1766490
     RDKit          3D

  0  0  0  0  0  0  0  0  0  0999 V3000
M  V30 BEGIN CTAB
M  V30 COUNTS 45 48 0 0 0
M  V30 BEGIN ATOM
M  V30 1 C 1.501499 -2.181144 0.686477 0
M  V30 2 N 1.373465 -0.806732 0.205055 0
M  V30 3 C 2.244848 -0.370332 -0.732340 0
M  V30 4 O 3.145384 -1.130207 -1.179919 0
M  V30 5 C 2.140413 0.940225 -1.206587 0
M  V30 6 C 3.115768 1.343032 -2.218955 0
M  V30 7 C 2.664571 1.086610 -3.514961 0
M  V30 8 C 3.434502 1.392005 -4.630582 0
M  V30 9 C 4.673697 1.963693 -4.408316 0
M  V30 10 C 5.138406 2.226171 -3.114389 0
M  V30 11 C 4.355384 1.913977 -2.020222 0
M  V30 12 Cl 4.798112 2.181164 -0.356032 0
M  V30 13 C 1.145250 1.758628 -0.702798 0
M  V30 14 C 0.278503 1.296222 0.241802 0
M  V30 15 C -0.715634 2.108111 0.747522 0
M  V30 16 N -1.557949 1.626533 1.679368 0
M  V30 17 C -1.454710 0.347873 2.140917 0
M  V30 18 N -2.351633 -0.172247 3.136319 0
M  V30 19 C -2.270706 -1.518878 3.646311 0
M  V30 20 C -3.355603 -1.768894 4.687088 0
M  V30 21 C -3.117235 -3.179434 5.212106 0
M  V30 22 O -3.315672 -4.093402 4.185949 0
M  V30 23 C -2.367199 -3.921450 3.197184 0
M  V30 24 C -2.504817 -2.551855 2.562940 0
M  V30 25 N -0.478673 -0.442683 1.641585 0
M  V30 26 C 0.390755 -0.001049 0.703605 0
M  V30 27 H 1.817312 -2.860513 -0.153946 0
M  V30 28 H 2.179327 -2.272221 1.546220 0
M  V30 29 H 0.510919 -2.583333 1.012097 0
M  V30 30 H 1.697350 0.637513 -3.760898 0
M  V30 31 H 3.115551 1.206995 -5.641333 0
M  V30 32 H 5.336388 2.231711 -5.238542 0
M  V30 33 H 6.104433 2.673121 -2.909296 0
M  V30 34 H 1.084113 2.761315 -1.081786 0
M  V30 35 H -0.842811 3.137791 0.413724 0
M  V30 36 H -3.094079 0.472046 3.497656 0
M  V30 37 H -1.293801 -1.744078 4.111084 0
M  V30 38 H -3.265383 -1.058519 5.536402 0
M  V30 39 H -4.366390 -1.722330 4.239678 0
M  V30 40 H -2.035507 -3.218543 5.524877 0
M  V30 41 H -3.770070 -3.428749 6.072625 0
M  V30 42 H -2.523701 -4.726099 2.431212 0
M  V30 43 H -1.323965 -4.028130 3.532451 0
M  V30 44 H -1.824056 -2.454289 1.710539 0
M  V30 45 H -3.587521 -2.442626 2.288255 0
M  V30 END ATOM
M  V30 BEGIN BOND
M  V30 1 1 1 2
M  V30 2 1 2 3
M  V30 3 2 3 4
M  V30 4 1 3 5
M  V30 5 1 5 6
M  V30 6 2 6 7
M  V30 7 1 7 8
M  V30 8 2 8 9
M  V30 9 1 9 10
M  V30 10 2 10 11
M  V30 11 1 11 12
M  V30 12 2 5 13
M  V30 13 1 13 14
M  V30 14 2 14 15
M  V30 15 1 15 16
M  V30 16 2 16 17
M  V30 17 1 17 18
M  V30 18 1 18 19
M  V30 19 1 19 20
M  V30 20 1 20 21
M  V30 21 1 21 22
M  V30 22 1 22 23
M  V30 23 1 23 24
M  V30 24 1 17 25
M  V30 25 2 25 26
M  V30 26 1 26 2
M  V30 27 1 11 6
M  V30 28 1 26 14
M  V30 29 1 24 19
M  V30 30 1 1 27
M  V30 31 1 1 28
M  V30 32 1 1 29
M  V30 33 1 7 30
M  V30 34 1 8 31
M  V30 35 1 9 32
M  V30 36 1 10 33
M  V30 37 1 13 34
M  V30 38 1 15 35
M  V30 39 1 18 36
M  V30 40 1 19 37
M  V30 41 1 20 38
M  V30 42 1 20 39
M  V30 43 1 21 40
M  V30 44 1 21 41
M  V30 45 1 23 42
M  V30 46 1 23 43
M  V30 47 1 24 44
M  V30 48 1 24 45
M  V30 END BOND
M  V30 END CTAB
M  END
>  <Dataset>  (47) 
ChEMBL_Kinases

>  <Ligand_Instance>  (47) 
nan

>  <PDB_ID>  (47) 
nan

>  <Standardized_SMILES>  (47) 
Cn1c(=O)c(-c2ccccc2Cl)cc2cnc(NC3CCOCC3)nc21

>  <Name>  (47) 
nan

>  <Pocket>  (47) 
nan

>  <ATP_Site>  (47) 
nan

>  <Peripheral>  (47) 
nan

>  <Num_H_Atoms_ProtBoundConf>  (47) 
nan

>  <Num_Resolved_Atoms>  (47) 
nan

>  <Num_Not_Resolved_Atoms>  (47) 
nan

$$$$
CHEMBL1760638
     RDKit          3D

  0  0  0  0  0  0  0  0  0  0999 V3000
M  V30 BEGIN CTAB
M  V30 COUNTS 51 53 0 0 0
M  V30 BEGIN ATOM
M  V30 1 C 1.415876 -2.949382 -0.191542 0
M  V30 2 O 1.562832 -1.527209 -0.065214 0
M  V30 3 C 2.836926 -0.975677 -0.074248 0
M  V30 4 C 3.953514 -1.778750 -0.202824 0
M  V30 5 C 5.220216 -1.185434 -0.207599 0
M  V30 6 Cl 6.599262 -2.257876 -0.373964 0
M  V30 7 C 5.330617 0.189910 -0.083879 0
M  V30 8 C 6.746367 0.672210 -0.106154 0
M  V30 9 C 4.202343 0.994858 0.045433 0
M  V30 10 C 2.950364 0.412959 0.050578 0
M  V30 11 N 1.813185 1.264442 0.184721 0
M  V30 12 C 1.259098 1.608636 1.470076 0
M  V30 13 O 1.769907 1.160619 2.540947 0
M  V30 14 N 0.130645 2.456191 1.558197 0
M  V30 15 C -0.470707 2.838775 2.796547 0
M  V30 16 C -0.980154 1.673372 3.614193 0
M  V30 17 C -2.013366 0.908237 2.862303 0
M  V30 18 C -3.328589 1.267904 2.992007 0
M  V30 19 C -4.360114 0.612835 2.330061 0
M  V30 20 C -4.073337 -0.450558 1.499150 0
M  V30 21 N -4.802203 -1.272307 0.738992 0
M  V30 22 C -4.008847 -2.164322 0.110682 0
M  V30 23 N -4.466234 -3.172880 -0.767857 0
M  V30 24 C -3.647783 -4.108386 -1.428580 0
M  V30 25 C -4.166060 -5.159319 -2.349070 0
M  V30 26 O -2.413276 -4.072038 -1.245908 0
M  V30 27 N -2.781922 -1.865599 0.506501 0
M  V30 28 C -2.749972 -0.825131 1.358310 0
M  V30 29 C -1.751434 -0.156629 2.027106 0
M  V30 30 H 2.109931 -3.356034 0.601234 0
M  V30 31 H 0.391900 -3.268858 -0.002879 0
M  V30 32 H 1.845345 -3.226575 -1.163628 0
M  V30 33 H 3.870356 -2.855440 -0.299834 0
M  V30 34 H 6.779282 1.670800 0.338414 0
M  V30 35 H 7.179866 0.656866 -1.112088 0
M  V30 36 H 7.407171 0.024613 0.518547 0
M  V30 37 H 4.398434 2.046074 0.134691 0
M  V30 38 H 1.367661 1.651446 -0.684843 0
M  V30 39 H -0.261751 2.805731 0.642752 0
M  V30 40 H -1.291877 3.539151 2.635864 0
M  V30 41 H 0.280814 3.357574 3.454104 0
M  V30 42 H -1.420602 2.073547 4.533618 0
M  V30 43 H -0.138892 1.020478 3.913866 0
M  V30 44 H -3.665466 2.093805 3.623163 0
M  V30 45 H -5.391921 0.910155 2.444150 0
M  V30 46 H -5.473360 -3.288087 -0.986614 0
M  V30 47 H -5.191661 -5.406711 -1.966767 0
M  V30 48 H -4.162857 -4.839141 -3.410370 0
M  V30 49 H -3.540860 -6.071708 -2.211960 0
M  V30 50 H -1.896846 -2.342327 0.227956 0
M  V30 51 H -0.724126 -0.461515 1.906320 0
M  V30 END ATOM
M  V30 BEGIN BOND
M  V30 1 1 1 2
M  V30 2 1 2 3
M  V30 3 2 3 4
M  V30 4 1 4 5
M  V30 5 1 5 6
M  V30 6 2 5 7
M  V30 7 1 7 8
M  V30 8 1 7 9
M  V30 9 2 9 10
M  V30 10 1 10 11
M  V30 11 1 11 12
M  V30 12 2 12 13
M  V30 13 1 12 14
M  V30 14 1 14 15
M  V30 15 1 15 16
M  V30 16 1 16 17
M  V30 17 2 17 18
M  V30 18 1 18 19
M  V30 19 2 19 20
M  V30 20 1 20 21
M  V30 21 2 21 22
M  V30 22 1 22 23
M  V30 23 1 23 24
M  V30 24 1 24 25
M  V30 25 2 24 26
M  V30 26 1 22 27
M  V30 27 1 27 28
M  V30 28 2 28 29
M  V30 29 1 10 3
M  V30 30 1 29 17
M  V30 31 1 28 20
M  V30 32 1 1 30
M  V30 33 1 1 31
M  V30 34 1 1 32
M  V30 35 1 4 33
M  V30 36 1 8 34
M  V30 37 1 8 35
M  V30 38 1 8 36
M  V30 39 1 9 37
M  V30 40 1 11 38
M  V30 41 1 14 39
M  V30 42 1 15 40
M  V30 43 1 15 41
M  V30 44 1 16 42
M  V30 45 1 16 43
M  V30 46 1 18 44
M  V30 47 1 19 45
M  V30 48 1 23 46
M  V30 49 1 25 47
M  V30 50 1 25 48
M  V30 51 1 25 49
M  V30 52 1 27 50
M  V30 53 1 29 51
M  V30 END BOND
M  V30 END CTAB
M  END
>  <Dataset>  (48) 
ChEMBL_Kinases

>  <Ligand_Instance>  (48) 
nan

>  <PDB_ID>  (48) 
nan

>  <Standardized_SMILES>  (48) 
COc1cc(Cl)c(C)cc1NC(=O)NCCc1ccc2nc(NC(C)=O)[nH]c2c1

>  <Name>  (48) 
nan

>  <Pocket>  (48) 
nan

>  <ATP_Site>  (48) 
nan

>  <Peripheral>  (48) 
nan

>  <Num_H_Atoms_ProtBoundConf>  (48) 
nan

>  <Num_Resolved_Atoms>  (48) 
nan

>  <Num_Not_Resolved_Atoms>  (48) 
nan

$$$$
CHEMBL1760639
     RDKit          3D

  0  0  0  0  0  0  0  0  0  0999 V3000
M  V30 BEGIN CTAB
M  V30 COUNTS 59 61 0 0 0
M  V30 BEGIN ATOM
M  V30 1 C 1.599807 -0.544357 4.972109 0
M  V30 2 N 2.523073 -0.272465 3.908159 0
M  V30 3 C 3.394513 0.856930 4.146297 0
M  V30 4 C 2.685915 2.162125 4.158459 0
M  V30 5 O 2.009418 2.545447 3.027977 0
M  V30 6 C 2.484141 2.786080 1.769522 0
M  V30 7 C 3.707569 2.762494 1.155577 0
M  V30 8 C 3.861971 3.067219 -0.175377 0
M  V30 9 C 2.797697 3.413799 -0.967351 0
M  V30 10 C 3.086093 3.723726 -2.394861 0
M  V30 11 C 1.532210 3.452895 -0.389707 0
M  V30 12 C 1.391170 3.138607 0.969272 0
M  V30 13 N 0.002806 3.233930 1.364457 0
M  V30 14 C -0.610368 1.957631 1.151788 0
M  V30 15 O 0.199075 1.100804 0.678950 0
M  V30 16 N -1.963395 1.617722 1.416832 0
M  V30 17 C -2.531495 0.301478 1.172252 0
M  V30 18 C -2.416696 -0.010129 -0.284511 0
M  V30 19 C -2.971268 -1.355740 -0.653971 0
M  V30 20 C -4.264996 -1.663676 -1.026189 0
M  V30 21 C -4.576543 -2.971068 -1.334388 0
M  V30 22 C -3.650482 -3.998244 -1.289194 0
M  V30 23 N -3.692240 -5.312182 -1.534173 0
M  V30 24 C -2.484363 -5.871163 -1.338335 0
M  V30 25 N -1.999355 -7.212343 -1.460989 0
M  V30 26 C -1.482163 -7.601786 -2.730684 0
M  V30 27 C -0.945681 -8.966032 -2.998775 0
M  V30 28 O -1.474271 -6.750297 -3.685497 0
M  V30 29 N -1.665022 -4.852396 -0.955501 0
M  V30 30 C -2.346488 -3.688723 -0.914337 0
M  V30 31 C -2.021981 -2.382843 -0.603014 0
M  V30 32 H 1.656481 0.220181 5.777025 0
M  V30 33 H 1.890450 -1.507998 5.442359 0
M  V30 34 H 0.561763 -0.681924 4.571072 0
M  V30 35 H 2.950283 -1.080945 3.453946 0
M  V30 36 H 4.235104 0.788591 3.443693 0
M  V30 37 H 3.808168 0.696445 5.176006 0
M  V30 38 H 3.465953 2.954630 4.368261 0
M  V30 39 H 1.995756 2.263364 5.046290 0
M  V30 40 H 4.482411 2.486507 1.849159 0
M  V30 41 H 4.905483 3.000621 -0.510698 0
M  V30 42 H 4.077164 4.197982 -2.449179 0
M  V30 43 H 3.154833 2.743190 -2.950667 0
M  V30 44 H 2.276388 4.328669 -2.854663 0
M  V30 45 H 0.747868 3.730792 -1.059020 0
M  V30 46 H -0.638063 3.987007 1.755205 0
M  V30 47 H -2.513319 2.421450 1.810273 0
M  V30 48 H -2.130340 -0.474331 1.829965 0
M  V30 49 H -3.627375 0.394433 1.410004 0
M  V30 50 H -3.013081 0.721024 -0.902814 0
M  V30 51 H -1.386195 0.085897 -0.680013 0
M  V30 52 H -4.926803 -0.829898 -1.041667 0
M  V30 53 H -5.580162 -3.195343 -1.620054 0
M  V30 54 H -1.978420 -7.951132 -0.719765 0
M  V30 55 H -0.451289 -9.346683 -2.084937 0
M  V30 56 H -0.114766 -8.832343 -3.747819 0
M  V30 57 H -1.702871 -9.652754 -3.411963 0
M  V30 58 H -0.651563 -4.926926 -0.721241 0
M  V30 59 H -1.003641 -2.222889 -0.324007 0
M  V30 END ATOM
M  V30 BEGIN BOND
M  V30 1 1 1 2
M  V30 2 1 2 3
M  V30 3 1 3 4
M  V30 4 1 4 5
M  V30 5 1 5 6
M  V30 6 2 6 7
M  V30 7 1 7 8
M  V30 8 2 8 9
M  V30 9 1 9 10
M  V30 10 1 9 11
M  V30 11 2 11 12
M  V30 12 1 12 13
M  V30 13 1 13 14
M  V30 14 2 14 15
M  V30 15 1 14 16
M  V30 16 1 16 17
M  V30 17 1 17 18
M  V30 18 1 18 19
M  V30 19 2 19 20
M  V30 20 1 20 21
M  V30 21 2 21 22
M  V30 22 1 22 23
M  V30 23 2 23 24
M  V30 24 1 24 25
M  V30 25 1 25 26
M  V30 26 1 26 27
M  V30 27 2 26 28
M  V30 28 1 24 29
M  V30 29 1 29 30
M  V30 30 2 30 31
M  V30 31 1 12 6
M  V30 32 1 31 19
M  V30 33 1 30 22
M  V30 34 1 1 32
M  V30 35 1 1 33
M  V30 36 1 1 34
M  V30 37 1 2 35
M  V30 38 1 3 36
M  V30 39 1 3 37
M  V30 40 1 4 38
M  V30 41 1 4 39
M  V30 42 1 7 40
M  V30 43 1 8 41
M  V30 44 1 10 42
M  V30 45 1 10 43
M  V30 46 1 10 44
M  V30 47 1 11 45
M  V30 48 1 13 46
M  V30 49 1 16 47
M  V30 50 1 17 48
M  V30 51 1 17 49
M  V30 52 1 18 50
M  V30 53 1 18 51
M  V30 54 1 20 52
M  V30 55 1 21 53
M  V30 56 1 25 54
M  V30 57 1 27 55
M  V30 58 1 27 56
M  V30 59 1 27 57
M  V30 60 1 29 58
M  V30 61 1 31 59
M  V30 END BOND
M  V30 END CTAB
M  END
>  <Dataset>  (49) 
ChEMBL_Kinases

>  <Ligand_Instance>  (49) 
nan

>  <PDB_ID>  (49) 
nan

>  <Standardized_SMILES>  (49) 
CNCCOc1ccc(C)cc1NC(=O)NCCc1ccc2nc(NC(C)=O)[nH]c2c1

>  <Name>  (49) 
nan

>  <Pocket>  (49) 
nan

>  <ATP_Site>  (49) 
nan

>  <Peripheral>  (49) 
nan

>  <Num_H_Atoms_ProtBoundConf>  (49) 
nan

>  <Num_Resolved_Atoms>  (49) 
nan

>  <Num_Not_Resolved_Atoms>  (49) 
nan

$$$$
CHEMBL1760640
     RDKit          3D

  0  0  0  0  0  0  0  0  0  0999 V3000
M  V30 BEGIN CTAB
M  V30 COUNTS 59 61 0 0 0
M  V30 BEGIN ATOM
M  V30 1 C 1.192660 -1.611560 3.554736 0
M  V30 2 N 2.533357 -1.860453 4.024026 0
M  V30 3 C 3.234195 -0.660296 4.414985 0
M  V30 4 C 3.534719 0.221806 3.211552 0
M  V30 5 O 2.358982 0.608608 2.565013 0
M  V30 6 C 2.381888 1.427843 1.428889 0
M  V30 7 C 3.606705 1.849556 0.957613 0
M  V30 8 C 3.718219 2.658925 -0.155224 0
M  V30 9 Cl 5.304862 3.150271 -0.690523 0
M  V30 10 C 2.537464 3.022319 -0.769655 0
M  V30 11 C 2.628005 3.893611 -1.970276 0
M  V30 12 C 1.348622 2.586622 -0.275734 0
M  V30 13 C 1.198215 1.786053 0.821308 0
M  V30 14 N -0.010936 1.304654 1.378672 0
M  V30 15 C -1.333520 1.539983 0.958841 0
M  V30 16 O -1.546161 2.262061 -0.027137 0
M  V30 17 N -2.468953 1.006548 1.584942 0
M  V30 18 C -3.823420 1.253633 1.149552 0
M  V30 19 C -4.075491 0.790234 -0.258582 0
M  V30 20 C -3.840969 -0.655618 -0.404675 0
M  V30 21 C -4.865853 -1.549204 -0.174417 0
M  V30 22 C -4.654932 -2.904230 -0.316141 0
M  V30 23 C -3.435251 -3.425760 -0.687401 0
M  V30 24 N -2.975870 -4.672533 -0.893256 0
M  V30 25 C -1.665770 -4.613515 -1.255046 0
M  V30 26 N -0.863698 -5.745665 -1.550219 0
M  V30 27 C 0.496880 -5.700277 -1.929945 0
M  V30 28 C 1.380779 -6.844884 -2.249377 0
M  V30 29 O 1.057931 -4.577283 -2.018531 0
M  V30 30 N -1.340771 -3.316228 -1.264931 0
M  V30 31 C -2.391675 -2.551461 -0.924124 0
M  V30 32 C -2.629882 -1.200509 -0.774977 0
M  V30 33 H 0.551772 -2.478975 3.849205 0
M  V30 34 H 0.734517 -0.721176 4.025312 0
M  V30 35 H 1.223084 -1.535723 2.450577 0
M  V30 36 H 3.087161 -2.411779 3.352817 0
M  V30 37 H 2.618774 -0.069244 5.129516 0
M  V30 38 H 4.162607 -0.945540 4.927140 0
M  V30 39 H 4.095960 1.127212 3.506476 0
M  V30 40 H 4.209359 -0.335932 2.517859 0
M  V30 41 H 4.490827 1.532946 1.480069 0
M  V30 42 H 2.701207 3.207360 -2.857097 0
M  V30 43 H 3.482804 4.592994 -1.932574 0
M  V30 44 H 1.667226 4.444611 -2.121299 0
M  V30 45 H 0.484424 2.911561 -0.807968 0
M  V30 46 H 0.027292 0.686650 2.217014 0
M  V30 47 H -2.320809 0.387845 2.424078 0
M  V30 48 H -4.058630 2.348513 1.231173 0
M  V30 49 H -4.542725 0.737730 1.803528 0
M  V30 50 H -5.140448 1.021776 -0.555810 0
M  V30 51 H -3.478674 1.391695 -0.995742 0
M  V30 52 H -5.858457 -1.238746 0.120946 0
M  V30 53 H -5.483926 -3.600825 -0.128358 0
M  V30 54 H -1.257540 -6.706740 -1.498857 0
M  V30 55 H 1.808871 -6.708158 -3.285511 0
M  V30 56 H 0.858525 -7.823002 -2.271094 0
M  V30 57 H 2.240732 -6.854086 -1.569525 0
M  V30 58 H -0.438597 -2.888887 -1.489933 0
M  V30 59 H -1.786799 -0.560267 -0.972353 0
M  V30 END ATOM
M  V30 BEGIN BOND
M  V30 1 1 1 2
M  V30 2 1 2 3
M  V30 3 1 3 4
M  V30 4 1 4 5
M  V30 5 1 5 6
M  V30 6 2 6 7
M  V30 7 1 7 8
M  V30 8 1 8 9
M  V30 9 2 8 10
M  V30 10 1 10 11
M  V30 11 1 10 12
M  V30 12 2 12 13
M  V30 13 1 13 14
M  V30 14 1 14 15
M  V30 15 2 15 16
M  V30 16 1 15 17
M  V30 17 1 17 18
M  V30 18 1 18 19
M  V30 19 1 19 20
M  V30 20 2 20 21
M  V30 21 1 21 22
M  V30 22 2 22 23
M  V30 23 1 23 24
M  V30 24 2 24 25
M  V30 25 1 25 26
M  V30 26 1 26 27
M  V30 27 1 27 28
M  V30 28 2 27 29
M  V30 29 1 25 30
M  V30 30 1 30 31
M  V30 31 2 31 32
M  V30 32 1 13 6
M  V30 33 1 32 20
M  V30 34 1 31 23
M  V30 35 1 1 33
M  V30 36 1 1 34
M  V30 37 1 1 35
M  V30 38 1 2 36
M  V30 39 1 3 37
M  V30 40 1 3 38
M  V30 41 1 4 39
M  V30 42 1 4 40
M  V30 43 1 7 41
M  V30 44 1 11 42
M  V30 45 1 11 43
M  V30 46 1 11 44
M  V30 47 1 12 45
M  V30 48 1 14 46
M  V30 49 1 17 47
M  V30 50 1 18 48
M  V30 51 1 18 49
M  V30 52 1 19 50
M  V30 53 1 19 51
M  V30 54 1 21 52
M  V30 55 1 22 53
M  V30 56 1 26 54
M  V30 57 1 28 55
M  V30 58 1 28 56
M  V30 59 1 28 57
M  V30 60 1 30 58
M  V30 61 1 32 59
M  V30 END BOND
M  V30 END CTAB
M  END
>  <Dataset>  (50) 
ChEMBL_Kinases

>  <Ligand_Instance>  (50) 
nan

>  <PDB_ID>  (50) 
nan

>  <Standardized_SMILES>  (50) 
CNCCOc1cc(Cl)c(C)cc1NC(=O)NCCc1ccc2nc(NC(C)=O)[nH]c2c1

>  <Name>  (50) 
nan

>  <Pocket>  (50) 
nan

>  <ATP_Site>  (50) 
nan

>  <Peripheral>  (50) 
nan

>  <Num_H_Atoms_ProtBoundConf>  (50) 
nan

>  <Num_Resolved_Atoms>  (50) 
nan

>  <Num_Not_Resolved_Atoms>  (50) 
nan

$$$$
CHEMBL1760641
     RDKit          3D

  0  0  0  0  0  0  0  0  0  0999 V3000
M  V30 BEGIN CTAB
M  V30 COUNTS 59 61 0 0 0
M  V30 BEGIN ATOM
M  V30 1 C 4.069396 -1.839608 1.775713 0
M  V30 2 N 3.724469 -0.465086 1.483457 0
M  V30 3 C 4.012557 0.394292 2.605584 0
M  V30 4 C 3.613112 1.799499 2.185840 0
M  V30 5 O 2.244538 1.785277 1.882670 0
M  V30 6 C 1.522642 2.913985 1.455690 0
M  V30 7 C 2.193984 4.108953 1.325112 0
M  V30 8 C 1.560233 5.261178 0.912351 0
M  V30 9 C 0.215519 5.175912 0.631292 0
M  V30 10 C -0.518538 6.389455 0.181747 0
M  V30 11 F 0.201950 7.080410 -0.767220 0
M  V30 12 F -0.832781 7.178207 1.272691 0
M  V30 13 F -1.712568 5.967572 -0.371234 0
M  V30 14 C -0.426950 3.967975 0.771376 0
M  V30 15 C 0.180538 2.805906 1.180564 0
M  V30 16 N -0.425236 1.538079 1.343002 0
M  V30 17 C -1.772218 1.155010 1.131555 0
M  V30 18 O -2.599606 2.015563 0.744143 0
M  V30 19 N -2.302298 -0.133905 1.315821 0
M  V30 20 C -3.721702 -0.163089 1.005075 0
M  V30 21 C -4.323485 -1.531053 1.191236 0
M  V30 22 C -3.689130 -2.554548 0.326611 0
M  V30 23 C -4.220404 -2.762391 -0.951214 0
M  V30 24 C -3.694856 -3.694720 -1.821883 0
M  V30 25 C -2.611795 -4.469373 -1.464996 0
M  V30 26 N -1.835615 -5.447886 -2.003719 0
M  V30 27 C -0.882590 -5.823707 -1.116027 0
M  V30 28 N 0.072654 -6.846718 -1.438990 0
M  V30 29 C 1.300300 -6.439090 -2.058321 0
M  V30 30 C 2.445195 -7.267440 -2.492600 0
M  V30 31 O 1.480172 -5.208254 -2.287947 0
M  V30 32 N -1.020251 -5.105989 0.000569 0
M  V30 33 C -2.075894 -4.277208 -0.208740 0
M  V30 34 C -2.607115 -3.342905 0.656218 0
M  V30 35 H 3.704629 -2.027713 2.814771 0
M  V30 36 H 3.555128 -2.559981 1.120647 0
M  V30 37 H 5.160789 -1.983989 1.708696 0
M  V30 38 H 2.746615 -0.334173 1.182722 0
M  V30 39 H 5.087451 0.386381 2.855932 0
M  V30 40 H 3.453637 0.126980 3.505762 0
M  V30 41 H 4.258370 2.055161 1.313866 0
M  V30 42 H 3.863427 2.469142 3.045262 0
M  V30 43 H 3.248641 4.120444 1.558520 0
M  V30 44 H 2.130280 6.175353 0.825077 0
M  V30 45 H -1.460037 3.965261 0.540693 0
M  V30 46 H 0.142972 0.726462 1.661031 0
M  V30 47 H -1.615825 -0.877342 1.644327 0
M  V30 48 H -3.898750 0.175491 -0.035315 0
M  V30 49 H -4.258998 0.556907 1.648976 0
M  V30 50 H -5.393216 -1.490035 0.919247 0
M  V30 51 H -4.249658 -1.841987 2.261643 0
M  V30 52 H -5.082025 -2.209866 -1.354663 0
M  V30 53 H -4.097790 -3.864025 -2.812889 0
M  V30 54 H 0.122830 -7.890111 -1.338594 0
M  V30 55 H 2.271292 -8.351207 -2.465772 0
M  V30 56 H 2.650575 -7.027142 -3.576737 0
M  V30 57 H 3.360169 -7.076707 -1.880377 0
M  V30 58 H -0.412099 -5.201352 0.838082 0
M  V30 59 H -2.183765 -3.201196 1.633213 0
M  V30 END ATOM
M  V30 BEGIN BOND
M  V30 1 1 1 2
M  V30 2 1 2 3
M  V30 3 1 3 4
M  V30 4 1 4 5
M  V30 5 1 5 6
M  V30 6 2 6 7
M  V30 7 1 7 8
M  V30 8 2 8 9
M  V30 9 1 9 10
M  V30 10 1 10 11
M  V30 11 1 10 12
M  V30 12 1 10 13
M  V30 13 1 9 14
M  V30 14 2 14 15
M  V30 15 1 15 16
M  V30 16 1 16 17
M  V30 17 2 17 18
M  V30 18 1 17 19
M  V30 19 1 19 20
M  V30 20 1 20 21
M  V30 21 1 21 22
M  V30 22 2 22 23
M  V30 23 1 23 24
M  V30 24 2 24 25
M  V30 25 1 25 26
M  V30 26 2 26 27
M  V30 27 1 27 28
M  V30 28 1 28 29
M  V30 29 1 29 30
M  V30 30 2 29 31
M  V30 31 1 27 32
M  V30 32 1 32 33
M  V30 33 2 33 34
M  V30 34 1 15 6
M  V30 35 1 34 22
M  V30 36 1 33 25
M  V30 37 1 1 35
M  V30 38 1 1 36
M  V30 39 1 1 37
M  V30 40 1 2 38
M  V30 41 1 3 39
M  V30 42 1 3 40
M  V30 43 1 4 41
M  V30 44 1 4 42
M  V30 45 1 7 43
M  V30 46 1 8 44
M  V30 47 1 14 45
M  V30 48 1 16 46
M  V30 49 1 19 47
M  V30 50 1 20 48
M  V30 51 1 20 49
M  V30 52 1 21 50
M  V30 53 1 21 51
M  V30 54 1 23 52
M  V30 55 1 24 53
M  V30 56 1 28 54
M  V30 57 1 30 55
M  V30 58 1 30 56
M  V30 59 1 30 57
M  V30 60 1 32 58
M  V30 61 1 34 59
M  V30 END BOND
M  V30 END CTAB
M  END
>  <Dataset>  (51) 
ChEMBL_Kinases

>  <Ligand_Instance>  (51) 
nan

>  <PDB_ID>  (51) 
nan

>  <Standardized_SMILES>  (51) 
CNCCOc1ccc(C(F)(F)F)cc1NC(=O)NCCc1ccc2nc(NC(C)=O)[nH]c2c1

>  <Name>  (51) 
nan

>  <Pocket>  (51) 
nan

>  <ATP_Site>  (51) 
nan

>  <Peripheral>  (51) 
nan

>  <Num_H_Atoms_ProtBoundConf>  (51) 
nan

>  <Num_Resolved_Atoms>  (51) 
nan

>  <Num_Not_Resolved_Atoms>  (51) 
nan

$$$$
CHEMBL1760642
     RDKit          3D

  0  0  0  0  0  0  0  0  0  0999 V3000
M  V30 BEGIN CTAB
M  V30 COUNTS 59 61 0 0 0
M  V30 BEGIN ATOM
M  V30 1 C 0.520753 -0.045412 4.406264 0
M  V30 2 N 1.943094 -0.389904 4.462815 0
M  V30 3 C 2.345894 -0.997621 3.211043 0
M  V30 4 C 2.319522 0.000584 2.078274 0
M  V30 5 O 1.011507 0.488684 1.953587 0
M  V30 6 C 0.615486 1.420669 1.021562 0
M  V30 7 C 1.499344 1.975731 0.092866 0
M  V30 8 C 1.156186 2.910430 -0.859695 0
M  V30 9 Cl 2.373397 3.530129 -1.972742 0
M  V30 10 C -0.166945 3.322864 -0.889368 0
M  V30 11 C -0.578147 4.329099 -1.901224 0
M  V30 12 F -1.921249 4.581702 -1.740301 0
M  V30 13 F -0.396814 3.787067 -3.169115 0
M  V30 14 F 0.083458 5.531979 -1.775106 0
M  V30 15 C -1.045742 2.777017 0.027071 0
M  V30 16 C -0.707932 1.854237 0.967943 0
M  V30 17 N -1.591872 1.284554 1.925568 0
M  V30 18 C -2.310322 0.112851 1.576973 0
M  V30 19 O -2.070158 -0.295269 0.415548 0
M  V30 20 N -3.215205 -0.592383 2.367938 0
M  V30 21 C -4.010068 -1.768320 2.245676 0
M  V30 22 C -3.276532 -3.061945 2.119903 0
M  V30 23 C -2.359308 -3.230351 0.994102 0
M  V30 24 C -2.931103 -3.609679 -0.227136 0
M  V30 25 C -2.253168 -3.865950 -1.399816 0
M  V30 26 C -0.882276 -3.737896 -1.373091 0
M  V30 27 N 0.116598 -3.892778 -2.276500 0
M  V30 28 C 1.300564 -3.620979 -1.655577 0
M  V30 29 N 2.475274 -3.729879 -2.454714 0
M  V30 30 C 2.915742 -2.580911 -3.144397 0
M  V30 31 C 4.086884 -2.396006 -4.041105 0
M  V30 32 O 2.255718 -1.500451 -3.026491 0
M  V30 33 N 1.069214 -3.295813 -0.371038 0
M  V30 34 C -0.270130 -3.367491 -0.197848 0
M  V30 35 C -0.959501 -3.114032 0.968355 0
M  V30 36 H -0.013537 -0.692843 3.688854 0
M  V30 37 H 0.033382 -0.189336 5.408230 0
M  V30 38 H 0.382099 1.015306 4.138645 0
M  V30 39 H 2.516351 0.455254 4.688009 0
M  V30 40 H 1.679274 -1.841795 3.018821 0
M  V30 41 H 3.408827 -1.333113 3.323824 0
M  V30 42 H 3.047911 0.802496 2.369668 0
M  V30 43 H 2.645167 -0.539321 1.163974 0
M  V30 44 H 2.540947 1.665628 0.099167 0
M  V30 45 H -2.089165 3.110290 -0.005560 0
M  V30 46 H -1.756522 1.674806 2.893566 0
M  V30 47 H -3.300334 -0.086934 3.288884 0
M  V30 48 H -4.743817 -1.794539 3.099204 0
M  V30 49 H -4.727325 -1.642896 1.350881 0
M  V30 50 H -2.708817 -3.239153 3.081914 0
M  V30 51 H -4.061867 -3.871043 2.029310 0
M  V30 52 H -4.025100 -3.726257 -0.304429 0
M  V30 53 H -2.756435 -4.152185 -2.295833 0
M  V30 54 H 3.087487 -4.565593 -2.618447 0
M  V30 55 H 4.663882 -1.524253 -3.709921 0
M  V30 56 H 4.678273 -3.322501 -4.158331 0
M  V30 57 H 3.734297 -2.152066 -5.081944 0
M  V30 58 H 1.834827 -3.056406 0.267623 0
M  V30 59 H -0.543104 -2.823009 1.913213 0
M  V30 END ATOM
M  V30 BEGIN BOND
M  V30 1 1 1 2
M  V30 2 1 2 3
M  V30 3 1 3 4
M  V30 4 1 4 5
M  V30 5 1 5 6
M  V30 6 2 6 7
M  V30 7 1 7 8
M  V30 8 1 8 9
M  V30 9 2 8 10
M  V30 10 1 10 11
M  V30 11 1 11 12
M  V30 12 1 11 13
M  V30 13 1 11 14
M  V30 14 1 10 15
M  V30 15 2 15 16
M  V30 16 1 16 17
M  V30 17 1 17 18
M  V30 18 2 18 19
M  V30 19 1 18 20
M  V30 20 1 20 21
M  V30 21 1 21 22
M  V30 22 1 22 23
M  V30 23 2 23 24
M  V30 24 1 24 25
M  V30 25 2 25 26
M  V30 26 1 26 27
M  V30 27 2 27 28
M  V30 28 1 28 29
M  V30 29 1 29 30
M  V30 30 1 30 31
M  V30 31 2 30 32
M  V30 32 1 28 33
M  V30 33 1 33 34
M  V30 34 2 34 35
M  V30 35 1 16 6
M  V30 36 1 35 23
M  V30 37 1 34 26
M  V30 38 1 1 36
M  V30 39 1 1 37
M  V30 40 1 1 38
M  V30 41 1 2 39
M  V30 42 1 3 40
M  V30 43 1 3 41
M  V30 44 1 4 42
M  V30 45 1 4 43
M  V30 46 1 7 44
M  V30 47 1 15 45
M  V30 48 1 17 46
M  V30 49 1 20 47
M  V30 50 1 21 48
M  V30 51 1 21 49
M  V30 52 1 22 50
M  V30 53 1 22 51
M  V30 54 1 24 52
M  V30 55 1 25 53
M  V30 56 1 29 54
M  V30 57 1 31 55
M  V30 58 1 31 56
M  V30 59 1 31 57
M  V30 60 1 33 58
M  V30 61 1 35 59
M  V30 END BOND
M  V30 END CTAB
M  END
>  <Dataset>  (52) 
ChEMBL_Kinases

>  <Ligand_Instance>  (52) 
nan

>  <PDB_ID>  (52) 
nan

>  <Standardized_SMILES>  (52) 
CNCCOc1cc(Cl)c(C(F)(F)F)cc1NC(=O)NCCc1ccc2nc(NC(C)=O)[nH]c2c1

>  <Name>  (52) 
nan

>  <Pocket>  (52) 
nan

>  <ATP_Site>  (52) 
nan

>  <Peripheral>  (52) 
nan

>  <Num_H_Atoms_ProtBoundConf>  (52) 
nan

>  <Num_Resolved_Atoms>  (52) 
nan

>  <Num_Not_Resolved_Atoms>  (52) 
nan

$$$$
CHEMBL1760643
     RDKit          3D

  0  0  0  0  0  0  0  0  0  0999 V3000
M  V30 BEGIN CTAB
M  V30 COUNTS 56 58 0 0 0
M  V30 BEGIN ATOM
M  V30 1 C 1.955945 -5.828876 4.971643 0
M  V30 2 C 2.313555 -4.415558 4.699465 0
M  V30 3 O 2.382726 -3.442471 5.516007 0
M  V30 4 N 2.634817 -4.001871 3.391652 0
M  V30 5 C 3.002924 -2.716463 2.901175 0
M  V30 6 N 4.195186 -2.084982 2.748416 0
M  V30 7 C 3.994445 -0.859767 2.232846 0
M  V30 8 C 4.829583 0.182226 1.882090 0
M  V30 9 C 4.348999 1.379852 1.353356 0
M  V30 10 C 2.964505 1.516982 1.176903 0
M  V30 11 C 2.376645 2.750538 0.624298 0
M  V30 12 C 2.227488 2.790567 -0.838966 0
M  V30 13 N 1.396147 1.768622 -1.411573 0
M  V30 14 C 0.054444 1.669765 -1.035203 0
M  V30 15 O -0.309685 2.507934 -0.207629 0
M  V30 16 N -0.881370 0.723286 -1.508630 0
M  V30 17 C -2.250976 0.516057 -1.213572 0
M  V30 18 C -2.914585 1.319468 -0.312322 0
M  V30 19 C -4.258224 1.156604 0.011031 0
M  V30 20 C -4.980437 2.018970 0.982176 0
M  V30 21 C -4.963334 0.126670 -0.612033 0
M  V30 22 Cl -6.655548 -0.137326 -0.254231 0
M  V30 23 C -4.256710 -0.650327 -1.506145 0
M  V30 24 C -2.928609 -0.514033 -1.845804 0
M  V30 25 O -2.231819 -1.264882 -2.716327 0
M  V30 26 C -2.598106 -2.350535 -3.486328 0
M  V30 27 C -3.038604 -3.575579 -2.763220 0
M  V30 28 N -1.953433 -4.036684 -1.913418 0
M  V30 29 C 2.152361 0.462244 1.534841 0
M  V30 30 C 2.632472 -0.719257 2.056980 0
M  V30 31 N 2.038192 -1.866147 2.471395 0
M  V30 32 H 1.254684 -6.221749 4.206607 0
M  V30 33 H 2.873822 -6.423303 5.085670 0
M  V30 34 H 1.428652 -5.871188 5.967950 0
M  V30 35 H 2.636653 -4.662719 2.560313 0
M  V30 36 H 5.903170 0.048128 2.030203 0
M  V30 37 H 4.998852 2.195407 1.078487 0
M  V30 38 H 1.475449 3.045979 1.200493 0
M  V30 39 H 3.118465 3.563768 0.883904 0
M  V30 40 H 3.195293 2.806626 -1.335627 0
M  V30 41 H 1.736492 3.760649 -1.084168 0
M  V30 42 H 1.769613 1.070133 -2.125306 0
M  V30 43 H -0.407245 0.081280 -2.209349 0
M  V30 44 H -2.481846 2.131573 0.220894 0
M  V30 45 H -5.422025 1.306291 1.731704 0
M  V30 46 H -4.324902 2.771109 1.419263 0
M  V30 47 H -5.858564 2.456175 0.449153 0
M  V30 48 H -4.858370 -1.419187 -1.962547 0
M  V30 49 H -1.683178 -2.656526 -4.082050 0
M  V30 50 H -3.339966 -2.078023 -4.295918 0
M  V30 51 H -3.931659 -3.525185 -2.162807 0
M  V30 52 H -3.195887 -4.395245 -3.502825 0
M  V30 53 H -1.338841 -3.218604 -1.682966 0
M  V30 54 H -2.301350 -4.515553 -1.052061 0
M  V30 55 H 1.103280 0.529239 1.416137 0
M  V30 56 H 0.993918 -2.009968 2.438818 0
M  V30 END ATOM
M  V30 BEGIN BOND
M  V30 1 1 1 2
M  V30 2 2 2 3
M  V30 3 1 2 4
M  V30 4 1 4 5
M  V30 5 2 5 6
M  V30 6 1 6 7
M  V30 7 2 7 8
M  V30 8 1 8 9
M  V30 9 2 9 10
M  V30 10 1 10 11
M  V30 11 1 11 12
M  V30 12 1 12 13
M  V30 13 1 13 14
M  V30 14 2 14 15
M  V30 15 1 14 16
M  V30 16 1 16 17
M  V30 17 2 17 18
M  V30 18 1 18 19
M  V30 19 1 19 20
M  V30 20 2 19 21
M  V30 21 1 21 22
M  V30 22 1 21 23
M  V30 23 2 23 24
M  V30 24 1 24 25
M  V30 25 1 25 26
M  V30 26 1 26 27
M  V30 27 1 27 28
M  V30 28 1 10 29
M  V30 29 2 29 30
M  V30 30 1 30 31
M  V30 31 1 31 5
M  V30 32 1 30 7
M  V30 33 1 24 17
M  V30 34 1 1 32
M  V30 35 1 1 33
M  V30 36 1 1 34
M  V30 37 1 4 35
M  V30 38 1 8 36
M  V30 39 1 9 37
M  V30 40 1 11 38
M  V30 41 1 11 39
M  V30 42 1 12 40
M  V30 43 1 12 41
M  V30 44 1 13 42
M  V30 45 1 16 43
M  V30 46 1 18 44
M  V30 47 1 20 45
M  V30 48 1 20 46
M  V30 49 1 20 47
M  V30 50 1 23 48
M  V30 51 1 26 49
M  V30 52 1 26 50
M  V30 53 1 27 51
M  V30 54 1 27 52
M  V30 55 1 28 53
M  V30 56 1 28 54
M  V30 57 1 29 55
M  V30 58 1 31 56
M  V30 END BOND
M  V30 END CTAB
M  END
>  <Dataset>  (53) 
ChEMBL_Kinases

>  <Ligand_Instance>  (53) 
nan

>  <PDB_ID>  (53) 
nan

>  <Standardized_SMILES>  (53) 
CC(=O)Nc1nc2ccc(CCNC(=O)Nc3cc(C)c(Cl)cc3OCCN)cc2[nH]1

>  <Name>  (53) 
nan

>  <Pocket>  (53) 
nan

>  <ATP_Site>  (53) 
nan

>  <Peripheral>  (53) 
nan

>  <Num_H_Atoms_ProtBoundConf>  (53) 
nan

>  <Num_Resolved_Atoms>  (53) 
nan

>  <Num_Not_Resolved_Atoms>  (53) 
nan

$$$$
CHEMBL1760735
     RDKit          3D

  0  0  0  0  0  0  0  0  0  0999 V3000
M  V30 BEGIN CTAB
M  V30 COUNTS 56 58 0 0 0
M  V30 BEGIN ATOM
M  V30 1 C 3.355038 -4.717528 4.359275 0
M  V30 2 C 3.115614 -3.383760 3.730622 0
M  V30 3 O 3.078380 -2.449713 4.600031 0
M  V30 4 N 2.950143 -3.190425 2.326589 0
M  V30 5 C 2.728802 -1.857811 1.878124 0
M  V30 6 N 2.666375 -0.783593 2.681227 0
M  V30 7 C 2.447509 0.332569 1.969297 0
M  V30 8 C 2.309624 1.654897 2.342460 0
M  V30 9 C 2.088547 2.559992 1.324992 0
M  V30 10 C 1.995213 2.260085 -0.011517 0
M  V30 11 C 1.818431 3.213645 -1.106447 0
M  V30 12 C 0.416273 3.656047 -1.330347 0
M  V30 13 N -0.578996 2.682143 -1.617260 0
M  V30 14 C -1.187641 1.603473 -0.940638 0
M  V30 15 O -0.844777 1.384352 0.237371 0
M  V30 16 N -2.164280 0.717142 -1.447151 0
M  V30 17 C -2.611215 -0.293894 -0.535941 0
M  V30 18 C -3.707496 0.170693 0.198270 0
M  V30 19 C -4.299171 -0.644539 1.136800 0
M  V30 20 C -5.463971 -0.294864 1.989887 0
M  V30 21 F -5.483775 1.081974 2.109708 0
M  V30 22 F -5.328989 -0.881980 3.240167 0
M  V30 23 F -6.645155 -0.718662 1.457100 0
M  V30 24 C -3.807057 -1.908452 1.344316 0
M  V30 25 C -2.728164 -2.359342 0.618741 0
M  V30 26 C -2.101347 -1.584513 -0.330816 0
M  V30 27 O -1.046681 -1.741900 -1.183694 0
M  V30 28 C -0.202298 -2.807327 -1.399117 0
M  V30 29 C -0.860714 -4.072620 -1.890215 0
M  V30 30 N -1.529369 -3.801747 -3.171095 0
M  V30 31 C 2.144331 0.903511 -0.316920 0
M  V30 32 C 2.366704 -0.050066 0.648799 0
M  V30 33 N 2.542580 -1.390294 0.630660 0
M  V30 34 H 2.573838 -4.843814 5.160180 0
M  V30 35 H 3.347785 -5.545557 3.650714 0
M  V30 36 H 4.318605 -4.691927 4.946614 0
M  V30 37 H 2.997010 -4.007167 1.709900 0
M  V30 38 H 2.370366 1.974103 3.377277 0
M  V30 39 H 1.979228 3.598265 1.607262 0
M  V30 40 H 2.278433 2.771833 -2.031830 0
M  V30 41 H 2.410427 4.154423 -0.840453 0
M  V30 42 H 0.068994 4.224938 -0.405979 0
M  V30 43 H 0.389980 4.457891 -2.131925 0
M  V30 44 H -1.013879 2.736650 -2.595458 0
M  V30 45 H -2.479009 0.876178 -2.449894 0
M  V30 46 H -4.173044 1.139793 0.117460 0
M  V30 47 H -4.158578 -2.671203 2.043540 0
M  V30 48 H -2.267223 -3.312054 0.705366 0
M  V30 49 H 0.423508 -3.068751 -0.491970 0
M  V30 50 H 0.550206 -2.536917 -2.192156 0
M  V30 51 H -1.557433 -4.516402 -1.168978 0
M  V30 52 H -0.052571 -4.824973 -2.129094 0
M  V30 53 H -2.498449 -3.469715 -3.017022 0
M  V30 54 H -0.935834 -3.143601 -3.701746 0
M  V30 55 H 2.086849 0.559881 -1.350876 0
M  V30 56 H 2.531828 -1.955231 -0.231366 0
M  V30 END ATOM
M  V30 BEGIN BOND
M  V30 1 1 1 2
M  V30 2 2 2 3
M  V30 3 1 2 4
M  V30 4 1 4 5
M  V30 5 2 5 6
M  V30 6 1 6 7
M  V30 7 2 7 8
M  V30 8 1 8 9
M  V30 9 2 9 10
M  V30 10 1 10 11
M  V30 11 1 11 12
M  V30 12 1 12 13
M  V30 13 1 13 14
M  V30 14 2 14 15
M  V30 15 1 14 16
M  V30 16 1 16 17
M  V30 17 2 17 18
M  V30 18 1 18 19
M  V30 19 1 19 20
M  V30 20 1 20 21
M  V30 21 1 20 22
M  V30 22 1 20 23
M  V30 23 2 19 24
M  V30 24 1 24 25
M  V30 25 2 25 26
M  V30 26 1 26 27
M  V30 27 1 27 28
M  V30 28 1 28 29
M  V30 29 1 29 30
M  V30 30 1 10 31
M  V30 31 2 31 32
M  V30 32 1 32 33
M  V30 33 1 33 5
M  V30 34 1 32 7
M  V30 35 1 26 17
M  V30 36 1 1 34
M  V30 37 1 1 35
M  V30 38 1 1 36
M  V30 39 1 4 37
M  V30 40 1 8 38
M  V30 41 1 9 39
M  V30 42 1 11 40
M  V30 43 1 11 41
M  V30 44 1 12 42
M  V30 45 1 12 43
M  V30 46 1 13 44
M  V30 47 1 16 45
M  V30 48 1 18 46
M  V30 49 1 24 47
M  V30 50 1 25 48
M  V30 51 1 28 49
M  V30 52 1 28 50
M  V30 53 1 29 51
M  V30 54 1 29 52
M  V30 55 1 30 53
M  V30 56 1 30 54
M  V30 57 1 31 55
M  V30 58 1 33 56
M  V30 END BOND
M  V30 END CTAB
M  END
>  <Dataset>  (54) 
ChEMBL_Kinases

>  <Ligand_Instance>  (54) 
nan

>  <PDB_ID>  (54) 
nan

>  <Standardized_SMILES>  (54) 
CC(=O)Nc1nc2ccc(CCNC(=O)Nc3cc(C(F)(F)F)ccc3OCCN)cc2[nH]1

>  <Name>  (54) 
nan

>  <Pocket>  (54) 
nan

>  <ATP_Site>  (54) 
nan

>  <Peripheral>  (54) 
nan

>  <Num_H_Atoms_ProtBoundConf>  (54) 
nan

>  <Num_Resolved_Atoms>  (54) 
nan

>  <Num_Not_Resolved_Atoms>  (54) 
nan

$$$$
CHEMBL1760765
     RDKit          3D

  0  0  0  0  0  0  0  0  0  0999 V3000
M  V30 BEGIN CTAB
M  V30 COUNTS 81 86 0 0 0
M  V30 BEGIN ATOM
M  V30 1 C 2.141735 1.154918 4.469997 0
M  V30 2 C 2.750399 -0.148443 4.075200 0
M  V30 3 C 2.660434 -1.214218 4.958395 0
M  V30 4 C 3.187946 -2.448780 4.704517 0
M  V30 5 C 3.826995 -2.602674 3.513645 0
M  V30 6 C 3.940104 -1.557925 2.596840 0
M  V30 7 C 4.649659 -1.821387 1.337368 0
M  V30 8 C 3.405184 -0.293382 2.845842 0
M  V30 9 S 3.506372 1.040028 1.746200 0
M  V30 10 O 4.831564 0.968411 1.029404 0
M  V30 11 O 3.471666 2.330617 2.540458 0
M  V30 12 N 2.261478 1.120450 0.592650 0
M  V30 13 C 2.792589 0.913627 -0.720879 0
M  V30 14 C 2.533885 2.139108 -1.530032 0
M  V30 15 C 1.933758 3.124474 -0.596755 0
M  V30 16 C 1.474536 2.305581 0.590719 0 CFG=1
M  V30 17 C 0.006843 1.941922 0.319299 0 CFG=1
M  V30 18 O -0.034336 1.322125 -0.902048 0
M  V30 19 C -0.470321 1.131024 1.488107 0
M  V30 20 N -1.816915 0.738582 1.338608 0
M  V30 21 C -2.332178 0.016821 2.482742 0
M  V30 22 C -3.836280 -0.011978 2.447180 0
M  V30 23 C -4.251452 -0.817191 1.269576 0
M  V30 24 C -3.429329 -0.656724 0.053578 0 CFG=2
M  V30 25 C -4.373455 -0.105042 -1.041941 0
M  V30 26 C -4.580260 -1.324002 -1.935916 0
M  V30 27 N -3.207650 -1.881772 -1.923853 0
M  V30 28 C -2.476121 -2.020846 -3.164904 0
M  V30 29 N -2.978728 -1.431970 -4.259354 0
M  V30 30 C -2.380193 -1.483499 -5.447053 0
M  V30 31 N -1.221885 -2.152490 -5.564754 0
M  V30 32 C -0.669359 -2.763486 -4.502105 0
M  V30 33 N 0.541774 -3.414750 -4.841221 0
M  V30 34 C -1.287037 -2.704173 -3.299589 0
M  V30 35 C -0.666670 -3.387430 -2.186322 0
M  V30 36 C 0.280064 -2.537009 -1.341763 0
M  V30 37 C 0.733739 -3.795458 -2.071891 0
M  V30 38 C -3.172150 -2.068358 -0.498123 0
M  V30 39 C -2.234870 0.201495 0.091389 0
M  V30 40 H 1.568600 1.629302 3.670391 0
M  V30 41 H 1.490359 0.989864 5.352014 0
M  V30 42 H 2.957442 1.833740 4.861610 0
M  V30 43 H 2.141266 -1.049062 5.899197 0
M  V30 44 H 3.103490 -3.255138 5.407032 0
M  V30 45 H 4.264191 -3.571089 3.266342 0
M  V30 46 H 4.620977 -2.922073 1.141252 0
M  V30 47 H 5.732064 -1.568966 1.540337 0
M  V30 48 H 4.332448 -1.233263 0.474843 0
M  V30 49 H 2.346561 0.033189 -1.235396 0
M  V30 50 H 3.901154 0.790917 -0.666091 0
M  V30 51 H 3.495897 2.596040 -1.916677 0
M  V30 52 H 1.896092 1.933022 -2.426834 0
M  V30 53 H 2.630193 3.938726 -0.327842 0
M  V30 54 H 1.062011 3.625873 -1.082696 0
M  V30 55 H 1.502914 2.863536 1.523582 0
M  V30 56 H -0.543556 2.910022 0.227354 0
M  V30 57 H -0.346970 1.915637 -1.632889 0
M  V30 58 H 0.250201 0.295248 1.611579 0
M  V30 59 H -0.404718 1.815286 2.374950 0
M  V30 60 H -1.893957 -0.995885 2.564161 0
M  V30 61 H -2.028999 0.577001 3.389148 0
M  V30 62 H -4.188226 -0.530013 3.374786 0
M  V30 63 H -4.215888 1.017270 2.434653 0
M  V30 64 H -5.346219 -0.573731 1.098550 0
M  V30 65 H -4.309816 -1.901928 1.597991 0
M  V30 66 H -5.317349 0.253339 -0.635442 0
M  V30 67 H -3.872035 0.663342 -1.658202 0
M  V30 68 H -4.912650 -1.034102 -2.928659 0
M  V30 69 H -5.288108 -1.987962 -1.408574 0
M  V30 70 H -2.866601 -0.973419 -6.278709 0
M  V30 71 H 0.546532 -4.442726 -4.864659 0
M  V30 72 H 1.399499 -2.860423 -5.059590 0
M  V30 73 H -1.379357 -4.021998 -1.598862 0
M  V30 74 H 0.594866 -1.545098 -1.718547 0
M  V30 75 H 0.227166 -2.600878 -0.236290 0
M  V30 76 H 0.963636 -4.671149 -1.396584 0
M  V30 77 H 1.550239 -3.603196 -2.753298 0
M  V30 78 H -4.064022 -2.698662 -0.224413 0
M  V30 79 H -2.259919 -2.486700 -0.089628 0
M  V30 80 H -2.317661 1.042165 -0.624409 0
M  V30 81 H -1.372802 -0.429189 -0.277516 0
M  V30 END ATOM
M  V30 BEGIN BOND
M  V30 1 1 1 2
M  V30 2 2 2 3
M  V30 3 1 3 4
M  V30 4 2 4 5
M  V30 5 1 5 6
M  V30 6 1 6 7
M  V30 7 2 6 8
M  V30 8 1 8 9
M  V30 9 2 9 10
M  V30 10 2 9 11
M  V30 11 1 9 12
M  V30 12 1 12 13
M  V30 13 1 13 14
M  V30 14 1 14 15
M  V30 15 1 15 16
M  V30 16 1 16 17
M  V30 17 1 17 18
M  V30 18 1 17 19
M  V30 19 1 19 20
M  V30 20 1 20 21
M  V30 21 1 21 22
M  V30 22 1 22 23
M  V30 23 1 24 23 CFG=1
M  V30 24 1 24 25
M  V30 25 1 25 26
M  V30 26 1 26 27
M  V30 27 1 27 28
M  V30 28 2 28 29
M  V30 29 1 29 30
M  V30 30 2 30 31
M  V30 31 1 31 32
M  V30 32 1 32 33
M  V30 33 2 32 34
M  V30 34 1 34 35
M  V30 35 1 35 36
M  V30 36 1 36 37
M  V30 37 1 27 38
M  V30 38 1 24 39
M  V30 39 1 8 2
M  V30 40 1 16 12
M  V30 41 1 39 20
M  V30 42 1 38 24
M  V30 43 1 34 28
M  V30 44 1 37 35
M  V30 45 1 1 40
M  V30 46 1 1 41
M  V30 47 1 1 42
M  V30 48 1 3 43
M  V30 49 1 4 44
M  V30 50 1 5 45
M  V30 51 1 7 46
M  V30 52 1 7 47
M  V30 53 1 7 48
M  V30 54 1 13 49
M  V30 55 1 13 50
M  V30 56 1 14 51
M  V30 57 1 14 52
M  V30 58 1 15 53
M  V30 59 1 15 54
M  V30 60 1 16 55 CFG=1
M  V30 61 1 17 56 CFG=3
M  V30 62 1 18 57
M  V30 63 1 19 58
M  V30 64 1 19 59
M  V30 65 1 21 60
M  V30 66 1 21 61
M  V30 67 1 22 62
M  V30 68 1 22 63
M  V30 69 1 23 64
M  V30 70 1 23 65
M  V30 71 1 25 66
M  V30 72 1 25 67
M  V30 73 1 26 68
M  V30 74 1 26 69
M  V30 75 1 30 70
M  V30 76 1 33 71
M  V30 77 1 33 72
M  V30 78 1 35 73
M  V30 79 1 36 74
M  V30 80 1 36 75
M  V30 81 1 37 76
M  V30 82 1 37 77
M  V30 83 1 38 78
M  V30 84 1 38 79
M  V30 85 1 39 80
M  V30 86 1 39 81
M  V30 END BOND
M  V30 END CTAB
M  END
>  <Dataset>  (55) 
ChEMBL_Kinases

>  <Ligand_Instance>  (55) 
nan

>  <PDB_ID>  (55) 
nan

>  <Standardized_SMILES>  (55) 
Cc1cccc(C)c1S(=O)(=O)N1CCC[C@H]1[C@@H](O)CN1CCC[C@@]2(CCN(c3ncnc(N)c3C3CC3)C2)C1

>  <Name>  (55) 
nan

>  <Pocket>  (55) 
nan

>  <ATP_Site>  (55) 
nan

>  <Peripheral>  (55) 
nan

>  <Num_H_Atoms_ProtBoundConf>  (55) 
nan

>  <Num_Resolved_Atoms>  (55) 
nan

>  <Num_Not_Resolved_Atoms>  (55) 
nan

$$$$
CHEMBL1760737
     RDKit          3D

  0  0  0  0  0  0  0  0  0  0999 V3000
M  V30 BEGIN CTAB
M  V30 COUNTS 63 66 0 0 0
M  V30 BEGIN ATOM
M  V30 1 C 8.616032 -2.105146 6.472423 0
M  V30 2 C 7.912365 -1.068702 5.640465 0
M  V30 3 O 8.081980 0.155446 5.402507 0
M  V30 4 N 6.767804 -1.514409 4.921338 0
M  V30 5 C 5.837352 -0.895326 4.044791 0
M  V30 6 N 5.913913 -0.780106 2.686594 0
M  V30 7 C 4.826116 -0.124142 2.245378 0
M  V30 8 C 4.345944 0.282833 1.039844 0
M  V30 9 C 3.146082 0.967841 0.884842 0
M  V30 10 C 2.364474 1.275741 1.974538 0
M  V30 11 C 1.082504 1.989435 1.964561 0
M  V30 12 C -0.079581 1.029680 1.818986 0
M  V30 13 N -0.021169 0.259795 0.596784 0
M  V30 14 C -1.111881 -0.632965 0.472492 0
M  V30 15 O -2.001632 -0.700767 1.363909 0
M  V30 16 N -1.291604 -1.502699 -0.634239 0
M  V30 17 C -2.364488 -2.406694 -0.795238 0
M  V30 18 C -2.155556 -3.680033 -0.270723 0
M  V30 19 C -3.085019 -4.694695 -0.331417 0
M  V30 20 C -2.826366 -6.043130 0.240358 0
M  V30 21 F -3.568416 -7.012887 -0.436960 0
M  V30 22 F -3.091869 -6.111053 1.593228 0
M  V30 23 F -1.499439 -6.394378 0.091881 0
M  V30 24 C -4.311540 -4.445023 -0.952047 0
M  V30 25 C -4.536231 -3.174443 -1.482505 0
M  V30 26 C -3.581920 -2.180576 -1.403884 0
M  V30 27 O -3.757956 -0.899170 -1.916787 0
M  V30 28 C -4.948454 -0.502673 -2.571642 0
M  V30 29 C -4.869479 0.931606 -3.025155 0
M  V30 30 C -3.898953 1.108929 -4.174681 0
M  V30 31 C -4.266111 2.505050 -4.633971 0
M  V30 32 C -5.773463 2.472302 -4.519149 0
M  V30 33 N -6.109844 1.338799 -3.704470 0
M  V30 34 C 2.887557 0.842775 3.198462 0
M  V30 35 C 4.077188 0.162651 3.360396 0
M  V30 36 N 4.689697 -0.305334 4.457906 0
M  V30 37 H 9.228330 -2.790383 5.872100 0
M  V30 38 H 7.808571 -2.697197 6.990939 0
M  V30 39 H 9.145329 -1.577503 7.275069 0
M  V30 40 H 6.454880 -2.526682 4.989623 0
M  V30 41 H 4.924220 0.066785 0.132451 0
M  V30 42 H 2.776740 1.285173 -0.078858 0
M  V30 43 H 0.949965 2.482081 2.952412 0
M  V30 44 H 1.030680 2.788634 1.200482 0
M  V30 45 H 0.013181 0.274759 2.652780 0
M  V30 46 H -1.039521 1.540249 1.947698 0
M  V30 47 H 0.633203 0.213794 -0.202748 0
M  V30 48 H -0.562795 -1.470915 -1.400169 0
M  V30 49 H -1.211309 -3.942093 0.230846 0
M  V30 50 H -5.051141 -5.228892 -1.008349 0
M  V30 51 H -5.471529 -2.962644 -1.963060 0
M  V30 52 H -4.983155 -1.113148 -3.520524 0
M  V30 53 H -5.853484 -0.718935 -1.989083 0
M  V30 54 H -4.663501 1.658982 -2.241308 0
M  V30 55 H -2.844838 1.043096 -3.844113 0
M  V30 56 H -4.148805 0.410879 -4.983607 0
M  V30 57 H -3.852268 3.206738 -3.880128 0
M  V30 58 H -3.920407 2.706081 -5.666560 0
M  V30 59 H -6.123909 3.423509 -4.074158 0
M  V30 60 H -6.152663 2.368180 -5.575075 0
M  V30 61 H -6.789431 1.646587 -2.974350 0
M  V30 62 H 2.312917 1.056708 4.106774 0
M  V30 63 H 4.337242 -0.224943 5.452393 0
M  V30 END ATOM
M  V30 BEGIN BOND
M  V30 1 1 1 2
M  V30 2 2 2 3
M  V30 3 1 2 4
M  V30 4 1 4 5
M  V30 5 2 5 6
M  V30 6 1 6 7
M  V30 7 2 7 8
M  V30 8 1 8 9
M  V30 9 2 9 10
M  V30 10 1 10 11
M  V30 11 1 11 12
M  V30 12 1 12 13
M  V30 13 1 13 14
M  V30 14 2 14 15
M  V30 15 1 14 16
M  V30 16 1 16 17
M  V30 17 2 17 18
M  V30 18 1 18 19
M  V30 19 1 19 20
M  V30 20 1 20 21
M  V30 21 1 20 22
M  V30 22 1 20 23
M  V30 23 2 19 24
M  V30 24 1 24 25
M  V30 25 2 25 26
M  V30 26 1 26 27
M  V30 27 1 27 28
M  V30 28 1 28 29
M  V30 29 1 29 30
M  V30 30 1 30 31
M  V30 31 1 31 32
M  V30 32 1 32 33
M  V30 33 1 10 34
M  V30 34 2 34 35
M  V30 35 1 35 36
M  V30 36 1 36 5
M  V30 37 1 35 7
M  V30 38 1 26 17
M  V30 39 1 33 29
M  V30 40 1 1 37
M  V30 41 1 1 38
M  V30 42 1 1 39
M  V30 43 1 4 40
M  V30 44 1 8 41
M  V30 45 1 9 42
M  V30 46 1 11 43
M  V30 47 1 11 44
M  V30 48 1 12 45
M  V30 49 1 12 46
M  V30 50 1 13 47
M  V30 51 1 16 48
M  V30 52 1 18 49
M  V30 53 1 24 50
M  V30 54 1 25 51
M  V30 55 1 28 52
M  V30 56 1 28 53
M  V30 57 1 29 54
M  V30 58 1 30 55
M  V30 59 1 30 56
M  V30 60 1 31 57
M  V30 61 1 31 58
M  V30 62 1 32 59
M  V30 63 1 32 60
M  V30 64 1 33 61
M  V30 65 1 34 62
M  V30 66 1 36 63
M  V30 END BOND
M  V30 END CTAB
M  END
>  <Dataset>  (56) 
ChEMBL_Kinases

>  <Ligand_Instance>  (56) 
nan

>  <PDB_ID>  (56) 
nan

>  <Standardized_SMILES>  (56) 
CC(=O)Nc1nc2ccc(CCNC(=O)Nc3cc(C(F)(F)F)ccc3OCC3CCCN3)cc2[nH]1

>  <Name>  (56) 
nan

>  <Pocket>  (56) 
nan

>  <ATP_Site>  (56) 
nan

>  <Peripheral>  (56) 
nan

>  <Num_H_Atoms_ProtBoundConf>  (56) 
nan

>  <Num_Resolved_Atoms>  (56) 
nan

>  <Num_Not_Resolved_Atoms>  (56) 
nan

$$$$
CHEMBL1760758
     RDKit          3D

  0  0  0  0  0  0  0  0  0  0999 V3000
M  V30 BEGIN CTAB
M  V30 COUNTS 88 92 0 0 0
M  V30 BEGIN ATOM
M  V30 1 C 2.385797 -4.166751 2.173759 0
M  V30 2 C 2.551586 -4.296964 0.688987 0
M  V30 3 O 1.481561 -3.750054 -0.020566 0
M  V30 4 C 1.614258 -3.789376 -1.367959 0
M  V30 5 C 2.649552 -2.904452 -2.006573 0
M  V30 6 N 2.438152 -1.514906 -1.799308 0
M  V30 7 C 2.156799 -0.889555 -3.056643 0
M  V30 8 C 0.924877 -0.111699 -3.230687 0 CFG=1
M  V30 9 O -0.214921 -0.901316 -3.041530 0
M  V30 10 C 0.803365 1.267746 -2.788731 0
M  V30 11 N 0.444783 1.570972 -1.424987 0
M  V30 12 C 0.493580 3.060654 -1.418887 0
M  V30 13 C 0.133862 3.623554 -0.093235 0
M  V30 14 C -0.431724 2.599519 0.857325 0
M  V30 15 C -1.410291 1.672923 0.189283 0
M  V30 16 C -2.739633 2.424032 0.146905 0
M  V30 17 C -3.842364 1.678750 0.867553 0
M  V30 18 N -3.908403 0.297737 0.427912 0
M  V30 19 C -4.872511 -0.539229 -0.200591 0
M  V30 20 N -4.494133 -1.007293 -1.414847 0
M  V30 21 C -5.331546 -1.805968 -2.102829 0
M  V30 22 N -6.543626 -2.179917 -1.659548 0
M  V30 23 C -6.937553 -1.726311 -0.457193 0
M  V30 24 N -8.060589 -1.898179 0.276729 0
M  V30 25 C -7.925673 -1.206057 1.425117 0
M  V30 26 C -6.691363 -0.557905 1.464062 0
M  V30 27 C -6.154834 0.298207 2.533067 0
M  V30 28 C -6.111880 -0.906261 0.280902 0
M  V30 29 C -2.689644 -0.445704 0.686525 0
M  V30 30 C -1.550245 0.469496 1.104423 0
M  V30 31 C -0.961460 1.306432 -1.176809 0
M  V30 32 S 3.702381 -0.692993 -1.051699 0
M  V30 33 O 4.969371 -0.720023 -1.946619 0
M  V30 34 O 3.422948 0.803160 -0.944754 0
M  V30 35 C 4.179389 -1.170865 0.542736 0
M  V30 36 C 3.486048 -0.863856 1.689266 0
M  V30 37 C 2.206232 -0.119239 1.586091 0
M  V30 38 C 3.869286 -1.180698 2.972398 0
M  V30 39 C 5.041244 -1.863014 3.164054 0
M  V30 40 C 5.753962 -2.182655 2.049099 0
M  V30 41 C 5.362798 -1.859582 0.753208 0
M  V30 42 C 6.277858 -2.253651 -0.318565 0
M  V30 43 H 1.875016 -3.214244 2.453030 0
M  V30 44 H 3.363625 -4.173771 2.695489 0
M  V30 45 H 1.807402 -5.035354 2.605186 0
M  V30 46 H 3.478759 -3.884405 0.317176 0
M  V30 47 H 2.592984 -5.422053 0.476839 0
M  V30 48 H 0.625547 -3.713137 -1.874117 0
M  V30 49 H 1.945473 -4.843794 -1.627507 0
M  V30 50 H 2.661992 -3.162499 -3.101763 0
M  V30 51 H 3.623700 -3.246063 -1.598987 0
M  V30 52 H 2.183368 -1.680846 -3.874953 0
M  V30 53 H 3.026154 -0.224432 -3.380348 0
M  V30 54 H 0.873256 -0.003276 -4.403561 0
M  V30 55 H -0.970432 -0.571350 -3.588374 0
M  V30 56 H 1.773131 1.788209 -2.969574 0
M  V30 57 H 0.072230 1.829246 -3.440670 0
M  V30 58 H 1.470162 3.406626 -1.809504 0
M  V30 59 H -0.272896 3.369653 -2.159935 0
M  V30 60 H 1.066407 4.022257 0.378191 0
M  V30 61 H -0.538256 4.521753 -0.170963 0
M  V30 62 H -0.940519 3.214647 1.662209 0
M  V30 63 H 0.398479 2.109131 1.362277 0
M  V30 64 H -3.035948 2.643645 -0.911608 0
M  V30 65 H -2.684559 3.421255 0.628322 0
M  V30 66 H -3.616360 1.701048 1.958938 0
M  V30 67 H -4.789295 2.201843 0.653649 0
M  V30 68 H -5.043246 -2.186943 -3.073881 0
M  V30 69 H -8.869170 -2.484309 -0.046204 0
M  V30 70 H -8.679700 -1.169082 2.198965 0
M  V30 71 H -6.799343 0.111080 3.443582 0
M  V30 72 H -5.136881 0.045050 2.870993 0
M  V30 73 H -6.314808 1.379137 2.324323 0
M  V30 74 H -2.812871 -1.159985 1.530523 0
M  V30 75 H -2.383152 -1.003586 -0.222654 0
M  V30 76 H -1.741056 0.862086 2.125175 0
M  V30 77 H -0.619053 -0.092391 1.047499 0
M  V30 78 H -1.545059 1.925393 -1.896588 0
M  V30 79 H -1.272348 0.269900 -1.362412 0
M  V30 80 H 1.866978 -0.140427 0.550688 0
M  V30 81 H 2.377192 0.926347 1.953122 0
M  V30 82 H 1.488073 -0.557379 2.311320 0
M  V30 83 H 3.282606 -0.913460 3.844099 0
M  V30 84 H 5.369633 -2.126382 4.151990 0
M  V30 85 H 6.692575 -2.730999 2.228178 0
M  V30 86 H 6.896770 -1.373864 -0.667776 0
M  V30 87 H 7.061552 -2.964316 0.072495 0
M  V30 88 H 5.839132 -2.780531 -1.175071 0
M  V30 END ATOM
M  V30 BEGIN BOND
M  V30 1 1 1 2
M  V30 2 1 2 3
M  V30 3 1 3 4
M  V30 4 1 4 5
M  V30 5 1 5 6
M  V30 6 1 6 7
M  V30 7 1 7 8
M  V30 8 1 8 9
M  V30 9 1 8 10
M  V30 10 1 10 11
M  V30 11 1 11 12
M  V30 12 1 12 13
M  V30 13 1 13 14
M  V30 14 1 14 15
M  V30 15 1 15 16
M  V30 16 1 16 17
M  V30 17 1 17 18
M  V30 18 1 18 19
M  V30 19 2 19 20
M  V30 20 1 20 21
M  V30 21 2 21 22
M  V30 22 1 22 23
M  V30 23 1 23 24
M  V30 24 1 24 25
M  V30 25 2 25 26
M  V30 26 1 26 27
M  V30 27 1 26 28
M  V30 28 1 18 29
M  V30 29 1 29 30
M  V30 30 1 15 31
M  V30 31 1 6 32
M  V30 32 2 32 33
M  V30 33 2 32 34
M  V30 34 1 32 35
M  V30 35 2 35 36
M  V30 36 1 36 37
M  V30 37 1 36 38
M  V30 38 2 38 39
M  V30 39 1 39 40
M  V30 40 2 40 41
M  V30 41 1 41 42
M  V30 42 1 31 11
M  V30 43 1 41 35
M  V30 44 1 30 15
M  V30 45 1 28 19
M  V30 46 2 28 23
M  V30 47 1 1 43
M  V30 48 1 1 44
M  V30 49 1 1 45
M  V30 50 1 2 46
M  V30 51 1 2 47
M  V30 52 1 4 48
M  V30 53 1 4 49
M  V30 54 1 5 50
M  V30 55 1 5 51
M  V30 56 1 7 52
M  V30 57 1 7 53
M  V30 58 1 8 54 CFG=3
M  V30 59 1 9 55
M  V30 60 1 10 56
M  V30 61 1 10 57
M  V30 62 1 12 58
M  V30 63 1 12 59
M  V30 64 1 13 60
M  V30 65 1 13 61
M  V30 66 1 14 62
M  V30 67 1 14 63
M  V30 68 1 16 64
M  V30 69 1 16 65
M  V30 70 1 17 66
M  V30 71 1 17 67
M  V30 72 1 21 68
M  V30 73 1 24 69
M  V30 74 1 25 70
M  V30 75 1 27 71
M  V30 76 1 27 72
M  V30 77 1 27 73
M  V30 78 1 29 74
M  V30 79 1 29 75
M  V30 80 1 30 76
M  V30 81 1 30 77
M  V30 82 1 31 78
M  V30 83 1 31 79
M  V30 84 1 37 80
M  V30 85 1 37 81
M  V30 86 1 37 82
M  V30 87 1 38 83
M  V30 88 1 39 84
M  V30 89 1 40 85
M  V30 90 1 42 86
M  V30 91 1 42 87
M  V30 92 1 42 88
M  V30 END BOND
M  V30 END CTAB
M  END
>  <Dataset>  (57) 
ChEMBL_Kinases

>  <Ligand_Instance>  (57) 
nan

>  <PDB_ID>  (57) 
nan

>  <Standardized_SMILES>  (57) 
CCOCCN(C[C@@H](O)CN1CCCC2(CCN(c3ncnc4[nH]cc(C)c34)CC2)C1)S(=O)(=O)c1c(C)cccc1C

>  <Name>  (57) 
nan

>  <Pocket>  (57) 
nan

>  <ATP_Site>  (57) 
nan

>  <Peripheral>  (57) 
nan

>  <Num_H_Atoms_ProtBoundConf>  (57) 
nan

>  <Num_Resolved_Atoms>  (57) 
nan

>  <Num_Not_Resolved_Atoms>  (57) 
nan

$$$$
CHEMBL1760759
     RDKit          3D

  0  0  0  0  0  0  0  0  0  0999 V3000
M  V30 BEGIN CTAB
M  V30 COUNTS 85 89 0 0 0
M  V30 BEGIN ATOM
M  V30 1 C -0.954829 -4.742383 0.382205 0
M  V30 2 C -0.741825 -4.588181 -1.107078 0
M  V30 3 O 0.326039 -3.739188 -1.390357 0
M  V30 4 C 0.421871 -3.671979 -2.795642 0
M  V30 5 C 1.533633 -2.787235 -3.267931 0
M  V30 6 N 1.361932 -1.451206 -2.806828 0
M  V30 7 C 1.880751 -1.155370 -1.552640 0
M  V30 8 C 3.333741 -0.733954 -1.473505 0 CFG=1
M  V30 9 O 3.513782 0.439026 -2.149939 0
M  V30 10 C 3.782536 -0.736728 -0.048771 0
M  V30 11 N 3.121818 0.192521 0.768689 0
M  V30 12 C 3.361142 1.572986 0.621978 0
M  V30 13 C 2.110969 2.332090 1.091850 0
M  V30 14 C 1.900200 2.005274 2.538857 0
M  V30 15 C 1.734328 0.521616 2.681303 0
M  V30 16 C 1.575081 0.074352 4.119613 0
M  V30 17 C 0.264727 -0.677353 4.068753 0
M  V30 18 N -0.564747 0.040576 3.099096 0
M  V30 19 C -1.838659 0.644283 2.941158 0
M  V30 20 N -1.785403 1.987601 2.700152 0
M  V30 21 C -2.953425 2.680242 2.538601 0
M  V30 22 N -4.158914 2.093102 2.606214 0
M  V30 23 C -4.248837 0.766206 2.842304 0
M  V30 24 N -5.261530 -0.110370 2.967194 0
M  V30 25 C -4.753463 -1.332908 3.202841 0
M  V30 26 C -3.356088 -1.274815 3.237478 0
M  V30 27 C -2.405194 -2.380154 3.465023 0
M  V30 28 C -3.079264 0.060267 3.006626 0
M  V30 29 C 0.460034 -0.018445 2.073189 0
M  V30 30 C 2.932984 -0.232880 2.135812 0
M  V30 31 S 0.739703 -0.319379 -3.840932 0
M  V30 32 O 1.706901 0.873369 -3.982615 0
M  V30 33 O 0.765507 -0.918980 -5.248823 0
M  V30 34 C -0.824164 0.257012 -3.410681 0
M  V30 35 C -0.957872 1.411926 -2.635659 0
M  V30 36 C 0.187399 2.236585 -2.187222 0
M  V30 37 C -2.214105 1.901042 -2.261218 0
M  V30 38 C -3.387458 1.285887 -2.627297 0
M  V30 39 C -3.265377 0.144822 -3.394661 0
M  V30 40 C -2.005347 -0.331811 -3.760501 0
M  V30 41 C -2.124933 -1.535359 -4.603198 0
M  V30 42 H -0.469777 -5.642031 0.791414 0
M  V30 43 H -0.535255 -3.889396 0.954548 0
M  V30 44 H -2.048281 -4.797588 0.564727 0
M  V30 45 H -1.660923 -4.165223 -1.562486 0
M  V30 46 H -0.567635 -5.616190 -1.530049 0
M  V30 47 H 0.565386 -4.732575 -3.152579 0
M  V30 48 H -0.568988 -3.363811 -3.155229 0
M  V30 49 H 2.506714 -3.245024 -3.039343 0
M  V30 50 H 1.473082 -2.753721 -4.385413 0
M  V30 51 H 1.830696 -2.106135 -0.931857 0
M  V30 52 H 1.277557 -0.441700 -1.002776 0
M  V30 53 H 3.978904 -1.501686 -2.013574 0
M  V30 54 H 4.481278 0.623625 -2.306250 0
M  V30 55 H 4.910377 -0.623930 -0.014812 0
M  V30 56 H 3.550930 -1.786945 0.331085 0
M  V30 57 H 3.634359 1.855778 -0.397596 0
M  V30 58 H 4.168430 1.946117 1.339425 0
M  V30 59 H 1.290722 2.005359 0.452892 0
M  V30 60 H 2.272797 3.417283 0.906439 0
M  V30 61 H 2.805434 2.280348 3.103582 0
M  V30 62 H 0.979922 2.468684 2.953648 0
M  V30 63 H 2.394668 -0.541655 4.486104 0
M  V30 64 H 1.495028 0.988820 4.741590 0
M  V30 65 H 0.386168 -1.728191 3.809243 0
M  V30 66 H -0.186167 -0.615823 5.079132 0
M  V30 67 H -2.911219 3.765117 2.344859 0
M  V30 68 H -6.247549 0.213589 2.875948 0
M  V30 69 H -5.357516 -2.238497 3.345511 0
M  V30 70 H -1.666527 -2.384525 2.663434 0
M  V30 71 H -2.993587 -3.330947 3.328908 0
M  V30 72 H -2.011077 -2.431898 4.482091 0
M  V30 73 H 0.698523 -1.105380 1.865842 0
M  V30 74 H 0.149334 0.497043 1.144998 0
M  V30 75 H 2.648990 -1.305235 2.117697 0
M  V30 76 H 3.815387 -0.077695 2.787354 0
M  V30 77 H -0.095588 2.843775 -1.295043 0
M  V30 78 H 0.373592 2.988735 -3.003118 0
M  V30 79 H 1.085184 1.693261 -1.912847 0
M  V30 80 H -2.301405 2.813096 -1.649725 0
M  V30 81 H -4.320959 1.705513 -2.310197 0
M  V30 82 H -4.209673 -0.305772 -3.660320 0
M  V30 83 H -2.651464 -2.338262 -4.022508 0
M  V30 84 H -1.208180 -1.979269 -4.962192 0
M  V30 85 H -2.838939 -1.292496 -5.443250 0
M  V30 END ATOM
M  V30 BEGIN BOND
M  V30 1 1 1 2
M  V30 2 1 2 3
M  V30 3 1 3 4
M  V30 4 1 4 5
M  V30 5 1 5 6
M  V30 6 1 6 7
M  V30 7 1 7 8
M  V30 8 1 8 9
M  V30 9 1 8 10
M  V30 10 1 10 11
M  V30 11 1 11 12
M  V30 12 1 12 13
M  V30 13 1 13 14
M  V30 14 1 14 15
M  V30 15 1 15 16
M  V30 16 1 16 17
M  V30 17 1 17 18
M  V30 18 1 18 19
M  V30 19 2 19 20
M  V30 20 1 20 21
M  V30 21 2 21 22
M  V30 22 1 22 23
M  V30 23 1 23 24
M  V30 24 1 24 25
M  V30 25 2 25 26
M  V30 26 1 26 27
M  V30 27 1 26 28
M  V30 28 1 18 29
M  V30 29 1 15 30
M  V30 30 1 6 31
M  V30 31 2 31 32
M  V30 32 2 31 33
M  V30 33 1 31 34
M  V30 34 2 34 35
M  V30 35 1 35 36
M  V30 36 1 35 37
M  V30 37 2 37 38
M  V30 38 1 38 39
M  V30 39 2 39 40
M  V30 40 1 40 41
M  V30 41 1 30 11
M  V30 42 1 40 34
M  V30 43 1 29 15
M  V30 44 1 28 19
M  V30 45 2 28 23
M  V30 46 1 1 42
M  V30 47 1 1 43
M  V30 48 1 1 44
M  V30 49 1 2 45
M  V30 50 1 2 46
M  V30 51 1 4 47
M  V30 52 1 4 48
M  V30 53 1 5 49
M  V30 54 1 5 50
M  V30 55 1 7 51
M  V30 56 1 7 52
M  V30 57 1 8 53 CFG=3
M  V30 58 1 9 54
M  V30 59 1 10 55
M  V30 60 1 10 56
M  V30 61 1 12 57
M  V30 62 1 12 58
M  V30 63 1 13 59
M  V30 64 1 13 60
M  V30 65 1 14 61
M  V30 66 1 14 62
M  V30 67 1 16 63
M  V30 68 1 16 64
M  V30 69 1 17 65
M  V30 70 1 17 66
M  V30 71 1 21 67
M  V30 72 1 24 68
M  V30 73 1 25 69
M  V30 74 1 27 70
M  V30 75 1 27 71
M  V30 76 1 27 72
M  V30 77 1 29 73
M  V30 78 1 29 74
M  V30 79 1 30 75
M  V30 80 1 30 76
M  V30 81 1 36 77
M  V30 82 1 36 78
M  V30 83 1 36 79
M  V30 84 1 37 80
M  V30 85 1 38 81
M  V30 86 1 39 82
M  V30 87 1 41 83
M  V30 88 1 41 84
M  V30 89 1 41 85
M  V30 END BOND
M  V30 END CTAB
M  END
>  <Dataset>  (58) 
ChEMBL_Kinases

>  <Ligand_Instance>  (58) 
nan

>  <PDB_ID>  (58) 
nan

>  <Standardized_SMILES>  (58) 
CCOCCN(C[C@@H](O)CN1CCCC2(CCN(c3ncnc4[nH]cc(C)c34)C2)C1)S(=O)(=O)c1c(C)cccc1C

>  <Name>  (58) 
nan

>  <Pocket>  (58) 
nan

>  <ATP_Site>  (58) 
nan

>  <Peripheral>  (58) 
nan

>  <Num_H_Atoms_ProtBoundConf>  (58) 
nan

>  <Num_Resolved_Atoms>  (58) 
nan

>  <Num_Not_Resolved_Atoms>  (58) 
nan

$$$$
CHEMBL1760760
     RDKit          3D

  0  0  0  0  0  0  0  0  0  0999 V3000
M  V30 BEGIN CTAB
M  V30 COUNTS 81 85 0 0 0
M  V30 BEGIN ATOM
M  V30 1 C 2.910815 -5.775858 2.521437 0
M  V30 2 C 3.236776 -5.482637 1.061063 0
M  V30 3 O 3.391243 -4.135097 0.849461 0
M  V30 4 C 3.696286 -3.786789 -0.464502 0
M  V30 5 C 3.834076 -2.298472 -0.575204 0
M  V30 6 N 2.743165 -1.504419 -0.236673 0
M  V30 7 C 1.845919 -1.086212 -1.257366 0
M  V30 8 C 0.648242 -2.005980 -1.280754 0 CFG=1
M  V30 9 O -0.052893 -2.030814 -0.098895 0
M  V30 10 C -0.226188 -1.844861 -2.493277 0
M  V30 11 N -1.024549 -0.731682 -2.610073 0
M  V30 12 C -0.527522 0.560261 -2.801890 0
M  V30 13 C -1.757807 1.253022 -3.419054 0
M  V30 14 C -2.813466 0.691619 -2.456397 0
M  V30 15 C -4.182159 0.950933 -2.977195 0
M  V30 16 C -4.894082 1.784437 -1.948648 0
M  V30 17 N -4.129941 1.633801 -0.714656 0
M  V30 18 C -4.488175 1.729126 0.656878 0
M  V30 19 N -3.922189 2.845107 1.209169 0
M  V30 20 C -4.153555 3.140152 2.507548 0
M  V30 21 N -4.929561 2.379671 3.312606 0
M  V30 22 C -5.492238 1.282163 2.789280 0
M  V30 23 N -6.304199 0.267272 3.209771 0
M  V30 24 N -6.541561 -0.581643 2.223520 0
M  V30 25 C -5.908191 -0.188326 1.094479 0
M  V30 26 C -5.927578 -0.884544 -0.207158 0
M  V30 27 C -5.276209 0.957374 1.477594 0
M  V30 28 C -2.757712 1.335760 -1.113612 0
M  V30 29 C -2.419727 -0.772852 -2.422743 0
M  V30 30 S 2.525345 -0.880456 1.286771 0
M  V30 31 O 1.166463 -0.195116 1.321074 0
M  V30 32 O 2.402223 -2.003679 2.278654 0
M  V30 33 C 3.753608 0.209045 1.881945 0
M  V30 34 C 4.812848 -0.276689 2.658518 0
M  V30 35 C 4.949464 -1.681805 3.040129 0
M  V30 36 C 5.787042 0.608213 3.112728 0
M  V30 37 C 5.785147 1.956558 2.849156 0
M  V30 38 C 4.735155 2.402926 2.086762 0
M  V30 39 C 3.726368 1.583561 1.596988 0
M  V30 40 C 2.648137 2.160646 0.788815 0
M  V30 41 H 3.783901 -5.586880 3.178265 0
M  V30 42 H 2.633049 -6.826414 2.655030 0
M  V30 43 H 2.078173 -5.154147 2.884437 0
M  V30 44 H 4.181586 -6.002300 0.803216 0
M  V30 45 H 2.363544 -5.809111 0.462016 0
M  V30 46 H 4.719700 -4.270112 -0.622069 0
M  V30 47 H 3.077580 -4.270381 -1.224648 0
M  V30 48 H 4.030011 -2.117712 -1.683818 0
M  V30 49 H 4.822694 -1.982395 -0.134430 0
M  V30 50 H 2.412512 -1.162804 -2.231577 0
M  V30 51 H 1.591815 -0.038663 -1.153428 0
M  V30 52 H 1.076854 -3.049440 -1.382703 0
M  V30 53 H -0.461246 -2.915954 0.081411 0
M  V30 54 H -0.838650 -2.763601 -2.606603 0
M  V30 55 H 0.480302 -1.881887 -3.368582 0
M  V30 56 H -0.336573 1.159514 -1.883982 0
M  V30 57 H 0.277451 0.585936 -3.546940 0
M  V30 58 H -1.968140 0.885232 -4.433481 0
M  V30 59 H -1.719032 2.336339 -3.310778 0
M  V30 60 H -4.725344 0.038857 -3.282455 0
M  V30 61 H -4.088681 1.597154 -3.893460 0
M  V30 62 H -4.843911 2.869478 -2.204201 0
M  V30 63 H -5.937228 1.497944 -1.865993 0
M  V30 64 H -3.731034 4.010135 2.990140 0
M  V30 65 H -6.668734 0.204074 4.191462 0
M  V30 66 H -4.975824 -0.806185 -0.729812 0
M  V30 67 H -6.736292 -0.453597 -0.825163 0
M  V30 68 H -6.176153 -1.956116 0.018950 0
M  V30 69 H -2.292170 0.733865 -0.336340 0
M  V30 70 H -2.168282 2.295753 -1.159935 0
M  V30 71 H -2.896546 -1.239781 -3.317565 0
M  V30 72 H -2.784195 -1.309800 -1.551091 0
M  V30 73 H 4.161802 -1.902270 3.793522 0
M  V30 74 H 4.938296 -2.369518 2.199957 0
M  V30 75 H 5.919613 -1.850143 3.563149 0
M  V30 76 H 6.614868 0.229931 3.717631 0
M  V30 77 H 6.573198 2.585219 3.233290 0
M  V30 78 H 4.732522 3.482799 1.875574 0
M  V30 79 H 2.676012 1.863636 -0.264257 0
M  V30 80 H 1.680603 2.052220 1.301258 0
M  V30 81 H 2.813612 3.280478 0.758928 0
M  V30 END ATOM
M  V30 BEGIN BOND
M  V30 1 1 1 2
M  V30 2 1 2 3
M  V30 3 1 3 4
M  V30 4 1 4 5
M  V30 5 1 5 6
M  V30 6 1 6 7
M  V30 7 1 7 8
M  V30 8 1 8 9
M  V30 9 1 8 10
M  V30 10 1 10 11
M  V30 11 1 11 12
M  V30 12 1 12 13
M  V30 13 1 13 14
M  V30 14 1 14 15
M  V30 15 1 15 16
M  V30 16 1 16 17
M  V30 17 1 17 18
M  V30 18 2 18 19
M  V30 19 1 19 20
M  V30 20 2 20 21
M  V30 21 1 21 22
M  V30 22 1 22 23
M  V30 23 1 23 24
M  V30 24 2 24 25
M  V30 25 1 25 26
M  V30 26 1 25 27
M  V30 27 1 17 28
M  V30 28 1 14 29
M  V30 29 1 6 30
M  V30 30 2 30 31
M  V30 31 2 30 32
M  V30 32 1 30 33
M  V30 33 2 33 34
M  V30 34 1 34 35
M  V30 35 1 34 36
M  V30 36 2 36 37
M  V30 37 1 37 38
M  V30 38 2 38 39
M  V30 39 1 39 40
M  V30 40 1 29 11
M  V30 41 1 39 33
M  V30 42 1 28 14
M  V30 43 1 27 18
M  V30 44 2 27 22
M  V30 45 1 1 41
M  V30 46 1 1 42
M  V30 47 1 1 43
M  V30 48 1 2 44
M  V30 49 1 2 45
M  V30 50 1 4 46
M  V30 51 1 4 47
M  V30 52 1 5 48
M  V30 53 1 5 49
M  V30 54 1 7 50
M  V30 55 1 7 51
M  V30 56 1 8 52 CFG=3
M  V30 57 1 9 53
M  V30 58 1 10 54
M  V30 59 1 10 55
M  V30 60 1 12 56
M  V30 61 1 12 57
M  V30 62 1 13 58
M  V30 63 1 13 59
M  V30 64 1 15 60
M  V30 65 1 15 61
M  V30 66 1 16 62
M  V30 67 1 16 63
M  V30 68 1 20 64
M  V30 69 1 23 65
M  V30 70 1 26 66
M  V30 71 1 26 67
M  V30 72 1 26 68
M  V30 73 1 28 69
M  V30 74 1 28 70
M  V30 75 1 29 71
M  V30 76 1 29 72
M  V30 77 1 35 73
M  V30 78 1 35 74
M  V30 79 1 35 75
M  V30 80 1 36 76
M  V30 81 1 37 77
M  V30 82 1 38 78
M  V30 83 1 40 79
M  V30 84 1 40 80
M  V30 85 1 40 81
M  V30 END BOND
M  V30 END CTAB
M  END
>  <Dataset>  (59) 
ChEMBL_Kinases

>  <Ligand_Instance>  (59) 
nan

>  <PDB_ID>  (59) 
nan

>  <Standardized_SMILES>  (59) 
CCOCCN(C[C@@H](O)CN1CCC2(CCN(c3ncnc4[nH]nc(C)c34)C2)C1)S(=O)(=O)c1c(C)cccc1C

>  <Name>  (59) 
nan

>  <Pocket>  (59) 
nan

>  <ATP_Site>  (59) 
nan

>  <Peripheral>  (59) 
nan

>  <Num_H_Atoms_ProtBoundConf>  (59) 
nan

>  <Num_Resolved_Atoms>  (59) 
nan

>  <Num_Not_Resolved_Atoms>  (59) 
nan

$$$$
CHEMBL1760761
     RDKit          3D

  0  0  0  0  0  0  0  0  0  0999 V3000
M  V30 BEGIN CTAB
M  V30 COUNTS 84 88 0 0 0
M  V30 BEGIN ATOM
M  V30 1 C 0.748873 -2.538033 3.896648 0
M  V30 2 C 1.250882 -3.518298 2.886225 0
M  V30 3 O 2.383675 -3.080641 2.194019 0
M  V30 4 C 1.999985 -1.891148 1.531066 0
M  V30 5 C 3.196164 -1.386104 0.783686 0
M  V30 6 N 3.001418 -0.179942 0.049364 0
M  V30 7 C 1.738552 -0.206956 -0.692043 0
M  V30 8 C 1.929671 0.508661 -1.990277 0 CFG=1
M  V30 9 O 3.018411 -0.200016 -2.618083 0
M  V30 10 C 0.808100 0.414548 -2.953957 0
M  V30 11 N -0.447445 1.033458 -2.646008 0
M  V30 12 C -1.255195 1.157491 -3.850942 0
M  V30 13 C -2.302941 0.113998 -4.006445 0
M  V30 14 C -3.303173 0.431394 -2.902902 0
M  V30 15 C -2.613420 0.271391 -1.580125 0
M  V30 16 C -3.340388 1.186161 -0.613008 0
M  V30 17 C -4.601519 0.377200 -0.331969 0
M  V30 18 N -4.094109 -0.997785 -0.190693 0
M  V30 19 C -4.364212 -2.236726 0.499915 0
M  V30 20 N -3.422925 -2.612361 1.420019 0
M  V30 21 C -3.589709 -3.742044 2.129077 0
M  V30 22 N -4.658518 -4.536326 1.974007 0
M  V30 23 C -5.609408 -4.216647 1.087778 0
M  V30 24 N -6.757381 -4.788563 0.711763 0
M  V30 25 N -7.294675 -4.018923 -0.221285 0
M  V30 26 C -6.510577 -2.956704 -0.455229 0
M  V30 27 C -6.801820 -1.893260 -1.438613 0
M  V30 28 C -5.428539 -3.059755 0.368646 0
M  V30 29 C -2.946278 -1.099008 -1.033297 0
M  V30 30 C -1.154588 0.533147 -1.530069 0
M  V30 31 S 3.114873 1.214705 1.005164 0
M  V30 32 O 2.040199 1.185541 2.067620 0
M  V30 33 O 2.843003 2.445208 0.156146 0
M  V30 34 C 4.689744 1.390595 1.738150 0
M  V30 35 C 5.655690 1.979152 0.923014 0
M  V30 36 C 5.392953 2.417992 -0.479886 0
M  V30 37 C 6.925381 2.160746 1.453240 0
M  V30 38 C 7.301420 1.804689 2.718601 0
M  V30 39 C 6.297282 1.229576 3.467677 0
M  V30 40 C 5.000453 1.013067 3.011644 0
M  V30 41 C 3.979137 0.411233 3.889348 0
M  V30 42 H 0.082617 -1.807951 3.436882 0
M  V30 43 H 1.555461 -2.062896 4.490472 0
M  V30 44 H 0.099277 -3.127589 4.609107 0
M  V30 45 H 1.420787 -4.484702 3.386945 0
M  V30 46 H 0.395929 -3.687212 2.167304 0
M  V30 47 H 1.181709 -2.128635 0.848817 0
M  V30 48 H 1.692659 -1.187824 2.339488 0
M  V30 49 H 3.421631 -2.178680 0.002862 0
M  V30 50 H 4.125502 -1.366263 1.407536 0
M  V30 51 H 1.053410 0.352016 -0.038151 0
M  V30 52 H 1.494495 -1.243049 -0.909069 0
M  V30 53 H 2.322578 1.552071 -1.878341 0
M  V30 54 H 3.386726 0.345452 -3.344057 0
M  V30 55 H 1.145941 0.722501 -3.995757 0
M  V30 56 H 0.578255 -0.691301 -3.123229 0
M  V30 57 H -1.713170 2.158552 -3.918504 0
M  V30 58 H -0.557063 1.094335 -4.714993 0
M  V30 59 H -2.838518 0.266456 -4.950733 0
M  V30 60 H -1.957935 -0.914534 -3.903951 0
M  V30 61 H -3.635402 1.484806 -2.992864 0
M  V30 62 H -4.171239 -0.237475 -2.935285 0
M  V30 63 H -3.614778 2.134639 -1.122629 0
M  V30 64 H -2.767801 1.381711 0.302756 0
M  V30 65 H -5.017653 0.765936 0.619171 0
M  V30 66 H -5.299504 0.505315 -1.161655 0
M  V30 67 H -2.884800 -4.108238 2.879898 0
M  V30 68 H -7.157362 -5.677352 1.083570 0
M  V30 69 H -7.177329 -0.965149 -0.964031 0
M  V30 70 H -7.529694 -2.282562 -2.177510 0
M  V30 71 H -5.897291 -1.634398 -2.049669 0
M  V30 72 H -3.059485 -1.849115 -1.846177 0
M  V30 73 H -2.036037 -1.436718 -0.466747 0
M  V30 74 H -0.949606 1.221806 -0.680586 0
M  V30 75 H -0.683542 -0.442884 -1.268902 0
M  V30 76 H 4.723408 1.706900 -1.016449 0
M  V30 77 H 4.993192 3.444137 -0.449987 0
M  V30 78 H 6.380097 2.420848 -1.022663 0
M  V30 79 H 7.681624 2.626361 0.801405 0
M  V30 80 H 8.297243 1.955498 3.110561 0
M  V30 81 H 6.527509 0.918388 4.493714 0
M  V30 82 H 3.141270 1.134889 4.103928 0
M  V30 83 H 3.654056 -0.571197 3.561690 0
M  V30 84 H 4.440061 0.259221 4.908182 0
M  V30 END ATOM
M  V30 BEGIN BOND
M  V30 1 1 1 2
M  V30 2 1 2 3
M  V30 3 1 3 4
M  V30 4 1 4 5
M  V30 5 1 5 6
M  V30 6 1 6 7
M  V30 7 1 7 8
M  V30 8 1 8 9
M  V30 9 1 8 10
M  V30 10 1 10 11
M  V30 11 1 11 12
M  V30 12 1 12 13
M  V30 13 1 13 14
M  V30 14 1 14 15
M  V30 15 1 15 16
M  V30 16 1 16 17
M  V30 17 1 17 18
M  V30 18 1 18 19
M  V30 19 2 19 20
M  V30 20 1 20 21
M  V30 21 2 21 22
M  V30 22 1 22 23
M  V30 23 1 23 24
M  V30 24 1 24 25
M  V30 25 2 25 26
M  V30 26 1 26 27
M  V30 27 1 26 28
M  V30 28 1 18 29
M  V30 29 1 15 30
M  V30 30 1 6 31
M  V30 31 2 31 32
M  V30 32 2 31 33
M  V30 33 1 31 34
M  V30 34 2 34 35
M  V30 35 1 35 36
M  V30 36 1 35 37
M  V30 37 2 37 38
M  V30 38 1 38 39
M  V30 39 2 39 40
M  V30 40 1 40 41
M  V30 41 1 30 11
M  V30 42 1 40 34
M  V30 43 1 29 15
M  V30 44 1 28 19
M  V30 45 2 28 23
M  V30 46 1 1 42
M  V30 47 1 1 43
M  V30 48 1 1 44
M  V30 49 1 2 45
M  V30 50 1 2 46
M  V30 51 1 4 47
M  V30 52 1 4 48
M  V30 53 1 5 49
M  V30 54 1 5 50
M  V30 55 1 7 51
M  V30 56 1 7 52
M  V30 57 1 8 53 CFG=1
M  V30 58 1 9 54
M  V30 59 1 10 55
M  V30 60 1 10 56
M  V30 61 1 12 57
M  V30 62 1 12 58
M  V30 63 1 13 59
M  V30 64 1 13 60
M  V30 65 1 14 61
M  V30 66 1 14 62
M  V30 67 1 16 63
M  V30 68 1 16 64
M  V30 69 1 17 65
M  V30 70 1 17 66
M  V30 71 1 21 67
M  V30 72 1 24 68
M  V30 73 1 27 69
M  V30 74 1 27 70
M  V30 75 1 27 71
M  V30 76 1 29 72
M  V30 77 1 29 73
M  V30 78 1 30 74
M  V30 79 1 30 75
M  V30 80 1 36 76
M  V30 81 1 36 77
M  V30 82 1 36 78
M  V30 83 1 37 79
M  V30 84 1 38 80
M  V30 85 1 39 81
M  V30 86 1 41 82
M  V30 87 1 41 83
M  V30 88 1 41 84
M  V30 END BOND
M  V30 END CTAB
M  END
>  <Dataset>  (60) 
ChEMBL_Kinases

>  <Ligand_Instance>  (60) 
nan

>  <PDB_ID>  (60) 
nan

>  <Standardized_SMILES>  (60) 
CCOCCN(C[C@@H](O)CN1CCCC2(CCN(c3ncnc4[nH]nc(C)c34)C2)C1)S(=O)(=O)c1c(C)cccc1C

>  <Name>  (60) 
nan

>  <Pocket>  (60) 
nan

>  <ATP_Site>  (60) 
nan

>  <Peripheral>  (60) 
nan

>  <Num_H_Atoms_ProtBoundConf>  (60) 
nan

>  <Num_Resolved_Atoms>  (60) 
nan

>  <Num_Not_Resolved_Atoms>  (60) 
nan

$$$$
CHEMBL1760762
     RDKit          3D

  0  0  0  0  0  0  0  0  0  0999 V3000
M  V30 BEGIN CTAB
M  V30 COUNTS 84 88 0 0 0
M  V30 BEGIN ATOM
M  V30 1 C -0.571373 -1.272689 4.674674 0
M  V30 2 C -0.358078 -0.722875 3.278533 0
M  V30 3 O -0.949754 0.499530 3.092367 0
M  V30 4 C -0.797541 1.054744 1.837557 0
M  V30 5 C 0.642542 1.290176 1.450021 0
M  V30 6 N 0.813895 1.872166 0.145326 0
M  V30 7 C 0.062469 1.221383 -0.865961 0
M  V30 8 C 0.758503 1.055678 -2.192024 0 CFG=1
M  V30 9 O 1.135548 2.230310 -2.792859 0
M  V30 10 C 1.947900 0.157169 -2.130854 0
M  V30 11 N 1.721306 -1.126213 -1.521575 0
M  V30 12 C 2.971055 -1.905411 -1.527935 0
M  V30 13 C 2.789063 -3.092432 -0.610791 0
M  V30 14 C 1.363042 -3.276275 -0.184686 0
M  V30 15 C 0.385331 -3.093990 -1.324781 0
M  V30 16 C 0.224925 -4.402506 -2.067578 0
M  V30 17 C -0.805165 -5.157929 -1.252511 0
M  V30 18 N -1.662194 -4.124795 -0.766975 0
M  V30 19 C -3.000743 -4.012816 -0.237553 0
M  V30 20 N -3.119743 -3.623675 1.065537 0
M  V30 21 C -4.292214 -3.490592 1.696463 0
M  V30 22 N -5.410943 -3.754652 1.008183 0
M  V30 23 C -5.398678 -4.145030 -0.282471 0
M  V30 24 C -6.543950 -4.416793 -1.002745 0
M  V30 25 C -6.444048 -4.807696 -2.321310 0
M  V30 26 C -5.211330 -4.929549 -2.926798 0
M  V30 27 C -4.055649 -4.662205 -2.222546 0
M  V30 28 C -4.177008 -4.273383 -0.906166 0
M  V30 29 C -1.007900 -2.833172 -0.829935 0
M  V30 30 C 0.775449 -1.957989 -2.240709 0
M  V30 31 S 0.702366 3.557311 0.232537 0
M  V30 32 O 0.866941 4.228679 -1.106977 0
M  V30 33 O -0.662747 3.926340 0.738419 0
M  V30 34 C 1.961439 4.184417 1.260167 0
M  V30 35 C 3.238870 4.380931 0.730984 0
M  V30 36 C 3.455079 4.009520 -0.712724 0
M  V30 37 C 4.317126 4.886995 1.425118 0
M  V30 38 C 4.145605 5.232313 2.742271 0
M  V30 39 C 2.891576 5.046167 3.282720 0
M  V30 40 C 1.794454 4.532942 2.580585 0
M  V30 41 C 0.515423 4.419093 3.289055 0
M  V30 42 H 0.092133 -0.800754 5.429590 0
M  V30 43 H -0.381413 -2.365172 4.690812 0
M  V30 44 H -1.608041 -1.132666 5.025084 0
M  V30 45 H -0.667159 -1.487568 2.544225 0
M  V30 46 H 0.759792 -0.572829 3.207592 0
M  V30 47 H -1.287009 0.334771 1.129829 0
M  V30 48 H -1.402348 1.975960 1.792283 0
M  V30 49 H 1.145610 0.285870 1.408902 0
M  V30 50 H 1.170399 1.848113 2.220362 0
M  V30 51 H -0.911306 1.675482 -1.062310 0
M  V30 52 H -0.113294 0.165051 -0.504790 0
M  V30 53 H 0.000257 0.589272 -2.876278 0
M  V30 54 H 0.442209 2.639700 -3.382681 0
M  V30 55 H 2.721240 0.678840 -1.519455 0
M  V30 56 H 2.378147 0.052916 -3.147093 0
M  V30 57 H 3.076857 -2.304987 -2.557105 0
M  V30 58 H 3.851755 -1.296686 -1.305570 0
M  V30 59 H 3.407341 -2.904992 0.301477 0
M  V30 60 H 3.149218 -4.030389 -1.052186 0
M  V30 61 H 1.232294 -4.318087 0.179363 0
M  V30 62 H 1.050196 -2.605096 0.629897 0
M  V30 63 H 1.170624 -4.945538 -2.158694 0
M  V30 64 H -0.183803 -4.191230 -3.076311 0
M  V30 65 H -0.322701 -5.664714 -0.370789 0
M  V30 66 H -1.293432 -5.976092 -1.806991 0
M  V30 67 H -4.282195 -3.176556 2.731880 0
M  V30 68 H -7.463813 -4.286712 -0.420884 0
M  V30 69 H -7.401853 -5.002851 -2.816221 0
M  V30 70 H -5.176392 -5.242420 -3.974471 0
M  V30 71 H -3.106292 -4.761166 -2.720974 0
M  V30 72 H -1.018313 -2.290988 0.141215 0
M  V30 73 H -1.551019 -2.232058 -1.598027 0
M  V30 74 H 1.303714 -2.436001 -3.116099 0
M  V30 75 H -0.113006 -1.424577 -2.604455 0
M  V30 76 H 4.526962 3.789513 -0.863573 0
M  V30 77 H 3.107602 4.846564 -1.344341 0
M  V30 78 H 2.880826 3.073061 -0.846317 0
M  V30 79 H 5.264552 5.005718 0.942631 0
M  V30 80 H 4.928126 5.633002 3.358718 0
M  V30 81 H 2.749247 5.320533 4.335162 0
M  V30 82 H -0.034145 5.406747 3.264412 0
M  V30 83 H -0.166326 3.642939 2.968685 0
M  V30 84 H 0.730177 4.269714 4.371776 0
M  V30 END ATOM
M  V30 BEGIN BOND
M  V30 1 1 1 2
M  V30 2 1 2 3
M  V30 3 1 3 4
M  V30 4 1 4 5
M  V30 5 1 5 6
M  V30 6 1 6 7
M  V30 7 1 7 8
M  V30 8 1 8 9
M  V30 9 1 8 10
M  V30 10 1 10 11
M  V30 11 1 11 12
M  V30 12 1 12 13
M  V30 13 1 13 14
M  V30 14 1 14 15
M  V30 15 1 15 16
M  V30 16 1 16 17
M  V30 17 1 17 18
M  V30 18 1 18 19
M  V30 19 2 19 20
M  V30 20 1 20 21
M  V30 21 2 21 22
M  V30 22 1 22 23
M  V30 23 2 23 24
M  V30 24 1 24 25
M  V30 25 2 25 26
M  V30 26 1 26 27
M  V30 27 2 27 28
M  V30 28 1 18 29
M  V30 29 1 15 30
M  V30 30 1 6 31
M  V30 31 2 31 32
M  V30 32 2 31 33
M  V30 33 1 31 34
M  V30 34 2 34 35
M  V30 35 1 35 36
M  V30 36 1 35 37
M  V30 37 2 37 38
M  V30 38 1 38 39
M  V30 39 2 39 40
M  V30 40 1 40 41
M  V30 41 1 30 11
M  V30 42 1 40 34
M  V30 43 1 29 15
M  V30 44 1 28 19
M  V30 45 1 28 23
M  V30 46 1 1 42
M  V30 47 1 1 43
M  V30 48 1 1 44
M  V30 49 1 2 45
M  V30 50 1 2 46
M  V30 51 1 4 47
M  V30 52 1 4 48
M  V30 53 1 5 49
M  V30 54 1 5 50
M  V30 55 1 7 51
M  V30 56 1 7 52
M  V30 57 1 8 53 CFG=3
M  V30 58 1 9 54
M  V30 59 1 10 55
M  V30 60 1 10 56
M  V30 61 1 12 57
M  V30 62 1 12 58
M  V30 63 1 13 59
M  V30 64 1 13 60
M  V30 65 1 14 61
M  V30 66 1 14 62
M  V30 67 1 16 63
M  V30 68 1 16 64
M  V30 69 1 17 65
M  V30 70 1 17 66
M  V30 71 1 21 67
M  V30 72 1 24 68
M  V30 73 1 25 69
M  V30 74 1 26 70
M  V30 75 1 27 71
M  V30 76 1 29 72
M  V30 77 1 29 73
M  V30 78 1 30 74
M  V30 79 1 30 75
M  V30 80 1 36 76
M  V30 81 1 36 77
M  V30 82 1 36 78
M  V30 83 1 37 79
M  V30 84 1 38 80
M  V30 85 1 39 81
M  V30 86 1 41 82
M  V30 87 1 41 83
M  V30 88 1 41 84
M  V30 END BOND
M  V30 END CTAB
M  END
>  <Dataset>  (61) 
ChEMBL_Kinases

>  <Ligand_Instance>  (61) 
nan

>  <PDB_ID>  (61) 
nan

>  <Standardized_SMILES>  (61) 
CCOCCN(C[C@@H](O)CN1CCCC2(CCN(c3ncnc4ccccc34)C2)C1)S(=O)(=O)c1c(C)cccc1C

>  <Name>  (61) 
nan

>  <Pocket>  (61) 
nan

>  <ATP_Site>  (61) 
nan

>  <Peripheral>  (61) 
nan

>  <Num_H_Atoms_ProtBoundConf>  (61) 
nan

>  <Num_Resolved_Atoms>  (61) 
nan

>  <Num_Not_Resolved_Atoms>  (61) 
nan

$$$$
CHEMBL1760763
     RDKit          3D

  0  0  0  0  0  0  0  0  0  0999 V3000
M  V30 BEGIN CTAB
M  V30 COUNTS 85 89 0 0 0
M  V30 BEGIN ATOM
M  V30 1 C 0.119048 -5.222413 1.046809 0
M  V30 2 C 0.233910 -5.361639 -0.477921 0
M  V30 3 O 0.700951 -4.159725 -0.940483 0
M  V30 4 C 0.879890 -4.084028 -2.318802 0
M  V30 5 C 1.395782 -2.703651 -2.611920 0
M  V30 6 N 0.552870 -1.642076 -2.227249 0
M  V30 7 C 1.014593 -0.672472 -1.309851 0
M  V30 8 C 2.460544 -0.373755 -1.249282 0 CFG=1
M  V30 9 O 3.048231 0.053272 -2.443189 0
M  V30 10 C 2.798609 0.644609 -0.199942 0
M  V30 11 N 2.250381 0.440285 1.117939 0
M  V30 12 C 3.205879 1.228196 1.992973 0
M  V30 13 C 2.830002 1.020174 3.423316 0
M  V30 14 C 1.411520 1.384327 3.700896 0
M  V30 15 C 0.427868 0.984921 2.650544 0
M  V30 16 C -0.806867 1.860108 2.811823 0
M  V30 17 C -1.700705 1.098873 3.771192 0
M  V30 18 N -1.422002 -0.292807 3.494025 0
M  V30 19 C -2.195732 -1.457838 3.712354 0
M  V30 20 N -1.736836 -2.438900 4.544973 0
M  V30 21 C -2.463398 -3.568880 4.774751 0
M  V30 22 N -3.679425 -3.781735 4.190695 0
M  V30 23 C -4.094978 -2.794066 3.379010 0
M  V30 24 C -3.438100 -1.626625 3.087197 0
M  V30 25 C -3.993368 -0.592513 2.167822 0
M  V30 26 C -3.628795 -0.563280 0.751234 0
M  V30 27 C -4.881747 -1.240982 1.076361 0
M  V30 28 C -0.097186 -0.378705 2.888029 0
M  V30 29 C 1.029943 1.220343 1.288853 0
M  V30 30 S -0.405662 -1.005472 -3.483445 0
M  V30 31 O -1.857302 -1.181178 -3.036980 0
M  V30 32 O -0.248385 -1.823566 -4.756858 0
M  V30 33 C -0.047184 0.662028 -3.780034 0
M  V30 34 C 0.935960 1.101430 -4.639234 0
M  V30 35 C 1.749438 0.150161 -5.400837 0
M  V30 36 C 1.189847 2.438908 -4.861768 0
M  V30 37 C 0.465859 3.428169 -4.231653 0
M  V30 38 C -0.511341 2.960003 -3.380329 0
M  V30 39 C -0.814378 1.615293 -3.114917 0
M  V30 40 C -1.949350 1.382861 -2.183566 0
M  V30 41 H 0.369707 -6.172664 1.540894 0
M  V30 42 H 0.892883 -4.478620 1.390672 0
M  V30 43 H -0.842061 -4.793575 1.355390 0
M  V30 44 H 1.061406 -6.111134 -0.626419 0
M  V30 45 H -0.699315 -5.712496 -0.930152 0
M  V30 46 H 1.725146 -4.803422 -2.539119 0
M  V30 47 H 0.035519 -4.407877 -2.917525 0
M  V30 48 H 1.466704 -2.661573 -3.742125 0
M  V30 49 H 2.418208 -2.579116 -2.242425 0
M  V30 50 H 0.704448 -0.911741 -0.256550 0
M  V30 51 H 0.510623 0.274439 -1.572765 0
M  V30 52 H 3.068606 -1.289923 -0.916339 0
M  V30 53 H 3.991763 -0.170700 -2.475536 0
M  V30 54 H 3.916876 0.721325 -0.170519 0
M  V30 55 H 2.437192 1.635105 -0.628869 0
M  V30 56 H 4.232567 0.913941 1.799764 0
M  V30 57 H 3.027810 2.273816 1.708784 0
M  V30 58 H 3.463457 1.716011 4.024783 0
M  V30 59 H 3.059448 0.005180 3.795009 0
M  V30 60 H 1.126990 0.834115 4.645464 0
M  V30 61 H 1.307759 2.465559 4.000586 0
M  V30 62 H -1.246164 1.973836 1.800112 0
M  V30 63 H -0.527093 2.862575 3.166176 0
M  V30 64 H -1.308925 1.294774 4.797042 0
M  V30 65 H -2.725863 1.416212 3.591943 0
M  V30 66 H -1.923426 -4.220014 5.464357 0
M  V30 67 H -5.077749 -3.002327 2.930075 0
M  V30 68 H -4.565364 0.189894 2.697493 0
M  V30 69 H -3.650577 0.408161 0.219663 0
M  V30 70 H -2.735395 -1.177087 0.465208 0
M  V30 71 H -4.958123 -2.324329 1.017520 0
M  V30 72 H -5.806788 -0.721989 0.773622 0
M  V30 73 H -0.193083 -0.941485 1.939341 0
M  V30 74 H 0.542393 -0.967495 3.604635 0
M  V30 75 H 0.252648 1.110515 0.561724 0
M  V30 76 H 1.371480 2.307229 1.317372 0
M  V30 77 H 2.615033 0.640107 -5.899255 0
M  V30 78 H 1.140841 -0.260579 -6.261970 0
M  V30 79 H 2.094940 -0.713690 -4.853065 0
M  V30 80 H 1.976889 2.778623 -5.547747 0
M  V30 81 H 0.631497 4.470434 -4.376290 0
M  V30 82 H -1.090636 3.752082 -2.875571 0
M  V30 83 H -2.927808 1.393955 -2.714049 0
M  V30 84 H -1.834334 0.536529 -1.509474 0
M  V30 85 H -2.002111 2.286414 -1.511657 0
M  V30 END ATOM
M  V30 BEGIN BOND
M  V30 1 1 1 2
M  V30 2 1 2 3
M  V30 3 1 3 4
M  V30 4 1 4 5
M  V30 5 1 5 6
M  V30 6 1 6 7
M  V30 7 1 7 8
M  V30 8 1 8 9
M  V30 9 1 8 10
M  V30 10 1 10 11
M  V30 11 1 11 12
M  V30 12 1 12 13
M  V30 13 1 13 14
M  V30 14 1 14 15
M  V30 15 1 15 16
M  V30 16 1 16 17
M  V30 17 1 17 18
M  V30 18 1 18 19
M  V30 19 2 19 20
M  V30 20 1 20 21
M  V30 21 2 21 22
M  V30 22 1 22 23
M  V30 23 2 23 24
M  V30 24 1 24 25
M  V30 25 1 25 26
M  V30 26 1 26 27
M  V30 27 1 18 28
M  V30 28 1 15 29
M  V30 29 1 6 30
M  V30 30 2 30 31
M  V30 31 2 30 32
M  V30 32 1 30 33
M  V30 33 2 33 34
M  V30 34 1 34 35
M  V30 35 1 34 36
M  V30 36 2 36 37
M  V30 37 1 37 38
M  V30 38 2 38 39
M  V30 39 1 39 40
M  V30 40 1 29 11
M  V30 41 1 39 33
M  V30 42 1 28 15
M  V30 43 1 24 19
M  V30 44 1 27 25
M  V30 45 1 1 41
M  V30 46 1 1 42
M  V30 47 1 1 43
M  V30 48 1 2 44
M  V30 49 1 2 45
M  V30 50 1 4 46
M  V30 51 1 4 47
M  V30 52 1 5 48
M  V30 53 1 5 49
M  V30 54 1 7 50
M  V30 55 1 7 51
M  V30 56 1 8 52 CFG=1
M  V30 57 1 9 53
M  V30 58 1 10 54
M  V30 59 1 10 55
M  V30 60 1 12 56
M  V30 61 1 12 57
M  V30 62 1 13 58
M  V30 63 1 13 59
M  V30 64 1 14 60
M  V30 65 1 14 61
M  V30 66 1 16 62
M  V30 67 1 16 63
M  V30 68 1 17 64
M  V30 69 1 17 65
M  V30 70 1 21 66
M  V30 71 1 23 67
M  V30 72 1 25 68
M  V30 73 1 26 69
M  V30 74 1 26 70
M  V30 75 1 27 71
M  V30 76 1 27 72
M  V30 77 1 28 73
M  V30 78 1 28 74
M  V30 79 1 29 75
M  V30 80 1 29 76
M  V30 81 1 35 77
M  V30 82 1 35 78
M  V30 83 1 35 79
M  V30 84 1 36 80
M  V30 85 1 37 81
M  V30 86 1 38 82
M  V30 87 1 40 83
M  V30 88 1 40 84
M  V30 89 1 40 85
M  V30 END BOND
M  V30 END CTAB
M  END
>  <Dataset>  (62) 
ChEMBL_Kinases

>  <Ligand_Instance>  (62) 
nan

>  <PDB_ID>  (62) 
nan

>  <Standardized_SMILES>  (62) 
CCOCCN(C[C@@H](O)CN1CCCC2(CCN(c3ncncc3C3CC3)C2)C1)S(=O)(=O)c1c(C)cccc1C

>  <Name>  (62) 
nan

>  <Pocket>  (62) 
nan

>  <ATP_Site>  (62) 
nan

>  <Peripheral>  (62) 
nan

>  <Num_H_Atoms_ProtBoundConf>  (62) 
nan

>  <Num_Resolved_Atoms>  (62) 
nan

>  <Num_Not_Resolved_Atoms>  (62) 
nan

$$$$
CHEMBL1760764
     RDKit          3D

  0  0  0  0  0  0  0  0  0  0999 V3000
M  V30 BEGIN CTAB
M  V30 COUNTS 87 91 0 0 0
M  V30 BEGIN ATOM
M  V30 1 C -3.718825 -4.035457 -0.491806 0
M  V30 2 C -2.321161 -3.892384 -1.030285 0
M  V30 3 O -2.120137 -2.527396 -1.315296 0
M  V30 4 C -0.811266 -2.344042 -1.823927 0
M  V30 5 C -0.665117 -0.860088 -2.106855 0
M  V30 6 N 0.544503 -0.442258 -2.615825 0
M  V30 7 C 1.602991 0.047248 -1.834473 0
M  V30 8 C 2.443225 -0.964903 -1.168044 0 CFG=1
M  V30 9 O 2.971344 -1.848584 -2.164229 0
M  V30 10 C 3.641340 -0.500332 -0.398952 0
M  V30 11 N 3.526582 0.406988 0.640434 0
M  V30 12 C 3.255439 1.761757 0.458941 0
M  V30 13 C 2.073382 2.243805 1.225522 0
M  V30 14 C 1.314809 1.176962 1.919857 0
M  V30 15 C 2.139242 0.181629 2.680160 0
M  V30 16 C 2.377990 0.654034 4.097666 0
M  V30 17 C 1.022448 0.497899 4.710488 0
M  V30 18 N 0.593823 -0.806755 4.189224 0
M  V30 19 C -0.325043 -1.754388 4.712788 0
M  V30 20 N 0.157406 -2.977498 5.084786 0
M  V30 21 C -0.610321 -3.944441 5.616136 0
M  V30 22 N -1.926333 -3.759577 5.816479 0
M  V30 23 C -2.460396 -2.580525 5.471558 0
M  V30 24 N -3.858947 -2.379517 5.681558 0
M  V30 25 C -1.669874 -1.566820 4.916927 0
M  V30 26 C -2.392582 -0.339553 4.558410 0
M  V30 27 C -3.320804 -0.434825 3.325405 0
M  V30 28 C -2.128642 0.441121 3.327438 0
M  V30 29 C 1.303639 -1.061586 2.947044 0
M  V30 30 C 3.399342 -0.132021 1.952446 0
M  V30 31 S 0.807200 -0.465342 -4.277099 0
M  V30 32 O 2.244511 0.002873 -4.548021 0
M  V30 33 O 0.779147 -1.861844 -4.889388 0
M  V30 34 C -0.303420 0.575851 -5.168062 0
M  V30 35 C -0.087136 1.935159 -5.406077 0
M  V30 36 C 1.161205 2.528095 -4.866218 0
M  V30 37 C -0.983198 2.713822 -6.117333 0
M  V30 38 C -2.144917 2.141517 -6.620460 0
M  V30 39 C -2.340629 0.811815 -6.379128 0
M  V30 40 C -1.452732 -0.000828 -5.663909 0
M  V30 41 C -1.914313 -1.405486 -5.576373 0
M  V30 42 H -4.382467 -3.230002 -0.838904 0
M  V30 43 H -3.700340 -3.952762 0.627313 0
M  V30 44 H -4.157989 -5.031002 -0.774834 0
M  V30 45 H -1.578036 -4.151184 -0.241589 0
M  V30 46 H -2.189659 -4.484802 -1.961545 0
M  V30 47 H -0.751975 -2.955873 -2.744537 0
M  V30 48 H -0.066528 -2.751775 -1.133806 0
M  V30 49 H -1.510669 -0.617519 -2.818017 0
M  V30 50 H -0.975119 -0.271253 -1.179130 0
M  V30 51 H 1.230018 0.762469 -1.047430 0
M  V30 52 H 2.246637 0.696598 -2.493316 0
M  V30 53 H 1.893367 -1.651413 -0.492364 0
M  V30 54 H 2.202404 -2.357762 -2.567436 0
M  V30 55 H 4.231761 -1.424900 -0.037591 0
M  V30 56 H 4.409198 -0.080227 -1.145704 0
M  V30 57 H 4.123887 2.423192 0.822339 0
M  V30 58 H 3.101734 1.987113 -0.624685 0
M  V30 59 H 1.333074 2.771756 0.552623 0
M  V30 60 H 2.318477 3.028270 1.985949 0
M  V30 61 H 0.550794 1.672957 2.585946 0
M  V30 62 H 0.674218 0.556071 1.225298 0
M  V30 63 H 2.796451 1.678944 4.135122 0
M  V30 64 H 3.043920 -0.090533 4.578669 0
M  V30 65 H 0.313970 1.300578 4.542987 0
M  V30 66 H 1.188058 0.430176 5.814808 0
M  V30 67 H -0.132210 -4.876503 5.878326 0
M  V30 68 H -4.792369 -2.371025 5.222918 0
M  V30 69 H -4.364215 -2.133421 6.585148 0
M  V30 70 H -2.895053 0.143479 5.402694 0
M  V30 71 H -4.320627 0.043121 3.387291 0
M  V30 72 H -3.234755 -1.332476 2.688160 0
M  V30 73 H -1.277065 0.177289 2.648635 0
M  V30 74 H -2.231995 1.541511 3.443586 0
M  V30 75 H 0.613243 -1.180699 2.086208 0
M  V30 76 H 2.007024 -1.902207 3.014544 0
M  V30 77 H 3.602038 -1.240659 1.915813 0
M  V30 78 H 4.268697 0.248558 2.575936 0
M  V30 79 H 1.254386 2.428331 -3.785625 0
M  V30 80 H 1.122272 3.638846 -5.071042 0
M  V30 81 H 2.056438 2.187701 -5.449981 0
M  V30 82 H -0.725984 3.750078 -6.246976 0
M  V30 83 H -2.818806 2.782345 -7.167556 0
M  V30 84 H -3.272060 0.458490 -6.814457 0
M  V30 85 H -1.511159 -1.989123 -4.756034 0
M  V30 86 H -3.033763 -1.429412 -5.462518 0
M  V30 87 H -1.741811 -1.948145 -6.542701 0
M  V30 END ATOM
M  V30 BEGIN BOND
M  V30 1 1 1 2
M  V30 2 1 2 3
M  V30 3 1 3 4
M  V30 4 1 4 5
M  V30 5 1 5 6
M  V30 6 1 6 7
M  V30 7 1 7 8
M  V30 8 1 8 9
M  V30 9 1 8 10
M  V30 10 1 10 11
M  V30 11 1 11 12
M  V30 12 1 12 13
M  V30 13 1 13 14
M  V30 14 1 14 15
M  V30 15 1 15 16
M  V30 16 1 16 17
M  V30 17 1 17 18
M  V30 18 1 18 19
M  V30 19 2 19 20
M  V30 20 1 20 21
M  V30 21 2 21 22
M  V30 22 1 22 23
M  V30 23 1 23 24
M  V30 24 2 23 25
M  V30 25 1 25 26
M  V30 26 1 26 27
M  V30 27 1 27 28
M  V30 28 1 18 29
M  V30 29 1 15 30
M  V30 30 1 6 31
M  V30 31 2 31 32
M  V30 32 2 31 33
M  V30 33 1 31 34
M  V30 34 2 34 35
M  V30 35 1 35 36
M  V30 36 1 35 37
M  V30 37 2 37 38
M  V30 38 1 38 39
M  V30 39 2 39 40
M  V30 40 1 40 41
M  V30 41 1 30 11
M  V30 42 1 40 34
M  V30 43 1 29 15
M  V30 44 1 25 19
M  V30 45 1 28 26
M  V30 46 1 1 42
M  V30 47 1 1 43
M  V30 48 1 1 44
M  V30 49 1 2 45
M  V30 50 1 2 46
M  V30 51 1 4 47
M  V30 52 1 4 48
M  V30 53 1 5 49
M  V30 54 1 5 50
M  V30 55 1 7 51
M  V30 56 1 7 52
M  V30 57 1 8 53 CFG=1
M  V30 58 1 9 54
M  V30 59 1 10 55
M  V30 60 1 10 56
M  V30 61 1 12 57
M  V30 62 1 12 58
M  V30 63 1 13 59
M  V30 64 1 13 60
M  V30 65 1 14 61
M  V30 66 1 14 62
M  V30 67 1 16 63
M  V30 68 1 16 64
M  V30 69 1 17 65
M  V30 70 1 17 66
M  V30 71 1 21 67
M  V30 72 1 24 68
M  V30 73 1 24 69
M  V30 74 1 26 70
M  V30 75 1 27 71
M  V30 76 1 27 72
M  V30 77 1 28 73
M  V30 78 1 28 74
M  V30 79 1 29 75
M  V30 80 1 29 76
M  V30 81 1 30 77
M  V30 82 1 30 78
M  V30 83 1 36 79
M  V30 84 1 36 80
M  V30 85 1 36 81
M  V30 86 1 37 82
M  V30 87 1 38 83
M  V30 88 1 39 84
M  V30 89 1 41 85
M  V30 90 1 41 86
M  V30 91 1 41 87
M  V30 END BOND
M  V30 END CTAB
M  END
>  <Dataset>  (63) 
ChEMBL_Kinases

>  <Ligand_Instance>  (63) 
nan

>  <PDB_ID>  (63) 
nan

>  <Standardized_SMILES>  (63) 
CCOCCN(C[C@@H](O)CN1CCCC2(CCN(c3ncnc(N)c3C3CC3)C2)C1)S(=O)(=O)c1c(C)cccc1C

>  <Name>  (63) 
nan

>  <Pocket>  (63) 
nan

>  <ATP_Site>  (63) 
nan

>  <Peripheral>  (63) 
nan

>  <Num_H_Atoms_ProtBoundConf>  (63) 
nan

>  <Num_Resolved_Atoms>  (63) 
nan

>  <Num_Not_Resolved_Atoms>  (63) 
nan

$$$$
CHEMBL1760736
     RDKit          3D

  0  0  0  0  0  0  0  0  0  0999 V3000
M  V30 BEGIN CTAB
M  V30 COUNTS 56 58 0 0 0
M  V30 BEGIN ATOM
M  V30 1 C 5.128729 -2.667506 5.275056 0
M  V30 2 C 4.438041 -1.773904 4.295379 0
M  V30 3 O 3.550443 -1.068821 4.839290 0
M  V30 4 N 4.777325 -1.756242 2.919478 0
M  V30 5 C 4.028196 -0.850736 2.116427 0
M  V30 6 N 4.517340 0.408836 1.975546 0
M  V30 7 C 3.666524 1.113978 1.180041 0
M  V30 8 C 3.636052 2.396798 0.699756 0
M  V30 9 C 2.572128 2.749194 -0.104720 0
M  V30 10 C 1.545766 1.859710 -0.439113 0
M  V30 11 C 0.517442 2.476312 -1.316214 0
M  V30 12 C -0.589293 3.117657 -0.479850 0
M  V30 13 N -1.262808 2.167941 0.360085 0
M  V30 14 C -1.962731 1.034429 -0.123482 0
M  V30 15 O -2.040655 0.782594 -1.350088 0
M  V30 16 N -2.639687 0.076298 0.692875 0
M  V30 17 C -3.321021 -1.038156 0.077971 0
M  V30 18 C -4.634083 -0.695076 -0.197388 0
M  V30 19 C -5.479244 -1.620588 -0.793265 0
M  V30 20 C -6.904967 -1.318498 -1.118318 0
M  V30 21 F -7.158220 -0.020312 -0.721503 0
M  V30 22 F -7.736592 -2.220536 -0.458936 0
M  V30 23 F -7.040347 -1.396728 -2.494806 0
M  V30 24 C -4.968096 -2.866194 -1.092045 0
M  V30 25 Cl -5.924328 -4.123549 -1.843038 0
M  V30 26 C -3.660696 -3.198590 -0.814352 0
M  V30 27 C -2.800554 -2.299365 -0.223792 0
M  V30 28 O -1.489398 -2.331971 0.164847 0
M  V30 29 C -0.556796 -3.344553 0.073911 0
M  V30 30 C -0.216462 -3.832737 -1.293615 0
M  V30 31 N 0.331860 -2.759050 -2.130267 0
M  V30 32 C 1.600838 0.575042 0.057469 0
M  V30 33 C 2.666293 0.225620 0.861848 0
M  V30 34 N 2.878800 -0.975158 1.428698 0
M  V30 35 H 5.800927 -2.066969 5.894309 0
M  V30 36 H 5.774881 -3.349788 4.676853 0
M  V30 37 H 4.411535 -3.288386 5.846938 0
M  V30 38 H 5.552593 -2.411532 2.604699 0
M  V30 39 H 4.428438 3.084620 0.957429 0
M  V30 40 H 2.617223 3.793477 -0.451168 0
M  V30 41 H 0.949746 3.183584 -2.021598 0
M  V30 42 H 0.036474 1.679191 -1.914351 0
M  V30 43 H -0.129179 3.898415 0.153325 0
M  V30 44 H -1.316185 3.644745 -1.129455 0
M  V30 45 H -1.293136 2.234881 1.412720 0
M  V30 46 H -2.611414 0.229627 1.742715 0
M  V30 47 H -5.116946 0.247473 -0.000540 0
M  V30 48 H -3.179268 -4.133300 -1.002859 0
M  V30 49 H -0.828092 -4.214730 0.732321 0
M  V30 50 H 0.403256 -2.941116 0.509326 0
M  V30 51 H -0.995351 -4.335492 -1.853913 0
M  V30 52 H 0.640795 -4.561480 -1.166598 0
M  V30 53 H -0.366819 -1.980876 -2.238406 0
M  V30 54 H 1.262421 -2.454550 -1.802569 0
M  V30 55 H 0.770026 -0.045306 -0.249058 0
M  V30 56 H 2.341782 -1.844493 1.398838 0
M  V30 END ATOM
M  V30 BEGIN BOND
M  V30 1 1 1 2
M  V30 2 2 2 3
M  V30 3 1 2 4
M  V30 4 1 4 5
M  V30 5 2 5 6
M  V30 6 1 6 7
M  V30 7 2 7 8
M  V30 8 1 8 9
M  V30 9 2 9 10
M  V30 10 1 10 11
M  V30 11 1 11 12
M  V30 12 1 12 13
M  V30 13 1 13 14
M  V30 14 2 14 15
M  V30 15 1 14 16
M  V30 16 1 16 17
M  V30 17 2 17 18
M  V30 18 1 18 19
M  V30 19 1 19 20
M  V30 20 1 20 21
M  V30 21 1 20 22
M  V30 22 1 20 23
M  V30 23 2 19 24
M  V30 24 1 24 25
M  V30 25 1 24 26
M  V30 26 2 26 27
M  V30 27 1 27 28
M  V30 28 1 28 29
M  V30 29 1 29 30
M  V30 30 1 30 31
M  V30 31 1 10 32
M  V30 32 2 32 33
M  V30 33 1 33 34
M  V30 34 1 34 5
M  V30 35 1 33 7
M  V30 36 1 27 17
M  V30 37 1 1 35
M  V30 38 1 1 36
M  V30 39 1 1 37
M  V30 40 1 4 38
M  V30 41 1 8 39
M  V30 42 1 9 40
M  V30 43 1 11 41
M  V30 44 1 11 42
M  V30 45 1 12 43
M  V30 46 1 12 44
M  V30 47 1 13 45
M  V30 48 1 16 46
M  V30 49 1 18 47
M  V30 50 1 26 48
M  V30 51 1 29 49
M  V30 52 1 29 50
M  V30 53 1 30 51
M  V30 54 1 30 52
M  V30 55 1 31 53
M  V30 56 1 31 54
M  V30 57 1 32 55
M  V30 58 1 34 56
M  V30 END BOND
M  V30 END CTAB
M  END
>  <Dataset>  (64) 
ChEMBL_Kinases

>  <Ligand_Instance>  (64) 
nan

>  <PDB_ID>  (64) 
nan

>  <Standardized_SMILES>  (64) 
CC(=O)Nc1nc2ccc(CCNC(=O)Nc3cc(C(F)(F)F)c(Cl)cc3OCCN)cc2[nH]1

>  <Name>  (64) 
nan

>  <Pocket>  (64) 
nan

>  <ATP_Site>  (64) 
nan

>  <Peripheral>  (64) 
nan

>  <Num_H_Atoms_ProtBoundConf>  (64) 
nan

>  <Num_Resolved_Atoms>  (64) 
nan

>  <Num_Not_Resolved_Atoms>  (64) 
nan

$$$$
CHEMBL1766455
     RDKit          3D

  0  0  0  0  0  0  0  0  0  0999 V3000
M  V30 BEGIN CTAB
M  V30 COUNTS 56 60 0 0 0
M  V30 BEGIN ATOM
M  V30 1 C 5.874120 -2.508611 -0.123529 0
M  V30 2 C 4.632420 -2.787909 0.651795 0
M  V30 3 C 4.345996 -4.093268 1.058555 0
M  V30 4 C 3.183536 -4.365814 1.787235 0
M  V30 5 C 2.356952 -3.295214 2.072816 0
M  V30 6 C 2.641250 -2.006503 1.670303 0
M  V30 7 C 1.702098 -0.961353 2.026885 0
M  V30 8 N 1.751918 0.163569 2.773783 0
M  V30 9 N 0.598855 0.772444 2.774138 0
M  V30 10 C 0.236367 2.010767 3.453446 0
M  V30 11 C 0.517917 3.194979 2.527874 0
M  V30 12 C -0.283173 3.068949 1.266394 0
M  V30 13 S 0.650603 2.942113 -0.090964 0
M  V30 14 N -1.692072 3.067556 1.339965 0
M  V30 15 C -2.698805 2.964845 0.348872 0
M  V30 16 C -4.056495 2.986663 0.685912 0
M  V30 17 C -5.036591 2.886924 -0.257334 0
M  V30 18 C -4.715654 2.759663 -1.587736 0
M  V30 19 C -3.400394 2.731140 -1.989367 0
M  V30 20 C -2.442533 2.836030 -0.993065 0
M  V30 21 C -0.271423 0.062465 2.016512 0
M  V30 22 C 0.430929 -1.052751 1.533158 0
M  V30 23 C -0.278671 -1.998148 0.675130 0
M  V30 24 C -1.350940 -2.644901 1.260397 0
M  V30 25 C -2.121017 -3.566495 0.571141 0
M  V30 26 C -1.744008 -3.798878 -0.750948 0
M  V30 27 N -2.486841 -4.691245 -1.433981 0
M  V30 28 C -2.227817 -5.010440 -2.736922 0
M  V30 29 C -1.146745 -4.364948 -3.343701 0
M  V30 30 C -0.348948 -3.439083 -2.691541 0
M  V30 31 C -0.687102 -3.183021 -1.381383 0
M  V30 32 C 0.052007 -2.266285 -0.641357 0
M  V30 33 N 3.779689 -1.800856 0.968198 0
M  V30 34 H 5.575579 -1.945077 -1.013504 0
M  V30 35 H 6.579474 -1.877560 0.459938 0
M  V30 36 H 6.346309 -3.458043 -0.424339 0
M  V30 37 H 5.027539 -4.894889 0.807300 0
M  V30 38 H 3.012117 -5.390162 2.076305 0
M  V30 39 H 1.442837 -3.501319 2.645450 0
M  V30 40 H -0.820888 2.043153 3.712853 0
M  V30 41 H 0.900113 2.164220 4.333043 0
M  V30 42 H 1.587174 3.312549 2.322222 0
M  V30 43 H 0.169627 4.084017 3.112637 0
M  V30 44 H -2.076081 3.160560 2.310560 0
M  V30 45 H -4.346684 3.086729 1.732063 0
M  V30 46 H -6.060238 2.910087 0.064020 0
M  V30 47 H -5.535576 2.687302 -2.269749 0
M  V30 48 H -3.183991 2.631207 -3.033747 0
M  V30 49 H -1.451858 2.805597 -1.383562 0
M  V30 50 H -1.318918 0.347888 1.845690 0
M  V30 51 H -1.657450 -2.472392 2.293332 0
M  V30 52 H -2.969389 -4.087398 1.014516 0
M  V30 53 H -2.807718 -5.719250 -3.301173 0
M  V30 54 H -0.945404 -4.621724 -4.381033 0
M  V30 55 H 0.481453 -2.950626 -3.172972 0
M  V30 56 H 0.910044 -1.733117 -1.067689 0
M  V30 END ATOM
M  V30 BEGIN BOND
M  V30 1 1 1 2
M  V30 2 2 2 3
M  V30 3 1 3 4
M  V30 4 2 4 5
M  V30 5 1 5 6
M  V30 6 1 6 7
M  V30 7 2 7 8
M  V30 8 1 8 9
M  V30 9 1 9 10
M  V30 10 1 10 11
M  V30 11 1 11 12
M  V30 12 2 12 13
M  V30 13 1 12 14
M  V30 14 1 14 15
M  V30 15 2 15 16
M  V30 16 1 16 17
M  V30 17 2 17 18
M  V30 18 1 18 19
M  V30 19 2 19 20
M  V30 20 1 9 21
M  V30 21 2 21 22
M  V30 22 1 22 23
M  V30 23 2 23 24
M  V30 24 1 24 25
M  V30 25 2 25 26
M  V30 26 1 26 27
M  V30 27 2 27 28
M  V30 28 1 28 29
M  V30 29 2 29 30
M  V30 30 1 30 31
M  V30 31 2 31 32
M  V30 32 2 6 33
M  V30 33 1 33 2
M  V30 34 1 22 7
M  V30 35 1 32 23
M  V30 36 1 20 15
M  V30 37 1 31 26
M  V30 38 1 1 34
M  V30 39 1 1 35
M  V30 40 1 1 36
M  V30 41 1 3 37
M  V30 42 1 4 38
M  V30 43 1 5 39
M  V30 44 1 10 40
M  V30 45 1 10 41
M  V30 46 1 11 42
M  V30 47 1 11 43
M  V30 48 1 14 44
M  V30 49 1 16 45
M  V30 50 1 17 46
M  V30 51 1 18 47
M  V30 52 1 19 48
M  V30 53 1 20 49
M  V30 54 1 21 50
M  V30 55 1 24 51
M  V30 56 1 25 52
M  V30 57 1 28 53
M  V30 58 1 29 54
M  V30 59 1 30 55
M  V30 60 1 32 56
M  V30 END BOND
M  V30 END CTAB
M  END
>  <Dataset>  (65) 
ChEMBL_Kinases

>  <Ligand_Instance>  (65) 
nan

>  <PDB_ID>  (65) 
nan

>  <Standardized_SMILES>  (65) 
Cc1cccc(-c2nn(CCC(=S)Nc3ccccc3)cc2-c2ccc3ncccc3c2)n1

>  <Name>  (65) 
nan

>  <Pocket>  (65) 
nan

>  <ATP_Site>  (65) 
nan

>  <Peripheral>  (65) 
nan

>  <Num_H_Atoms_ProtBoundConf>  (65) 
nan

>  <Num_Resolved_Atoms>  (65) 
nan

>  <Num_Not_Resolved_Atoms>  (65) 
nan

$$$$
CHEMBL1766454
     RDKit          3D

  0  0  0  0  0  0  0  0  0  0999 V3000
M  V30 BEGIN CTAB
M  V30 COUNTS 54 58 0 0 0
M  V30 BEGIN ATOM
M  V30 1 C 3.629557 -3.925864 3.647643 0
M  V30 2 C 2.612562 -2.863140 3.433252 0
M  V30 3 C 1.859940 -2.402180 4.488003 0
M  V30 4 C 0.923266 -1.410945 4.245791 0
M  V30 5 C 0.790582 -0.932292 2.951813 0
M  V30 6 C 1.548814 -1.399099 1.898135 0
M  V30 7 C 1.387135 -0.875757 0.548707 0
M  V30 8 N 1.636498 0.426836 0.337728 0
M  V30 9 N 1.430385 0.695340 -0.952809 0
M  V30 10 C 1.603806 2.007096 -1.543228 0
M  V30 11 C 0.362802 2.818349 -1.504395 0
M  V30 12 S -0.574497 3.507077 -2.626270 0
M  V30 13 N -0.054287 3.003092 -0.158648 0
M  V30 14 C -1.188350 3.715289 0.321395 0
M  V30 15 C -2.332822 2.932471 0.444004 0
M  V30 16 C -3.513025 3.503937 0.902726 0
M  V30 17 C -3.601066 4.844133 1.249609 0
M  V30 18 C -2.438775 5.591219 1.113564 0
M  V30 19 C -2.473808 6.991937 1.460577 0
M  V30 20 N -2.489263 8.116270 1.728687 0
M  V30 21 C -1.256102 5.048923 0.661263 0
M  V30 22 C 1.046464 -0.426106 -1.590598 0
M  V30 23 C 1.012002 -1.439860 -0.653277 0
M  V30 24 C 0.671586 -2.854654 -0.760954 0
M  V30 25 C 1.480128 -3.949944 -0.530734 0
M  V30 26 C 0.977187 -5.226299 -0.684697 0
M  V30 27 C -0.332842 -5.426339 -1.068610 0
M  V30 28 N -0.831975 -6.683712 -1.221509 0
M  V30 29 C -2.116584 -6.878265 -1.598089 0
M  V30 30 C -2.989266 -5.837799 -1.847382 0
M  V30 31 C -2.474888 -4.557051 -1.689906 0
M  V30 32 C -1.149590 -4.335735 -1.301268 0
M  V30 33 C -0.660033 -3.037743 -1.151060 0
M  V30 34 N 2.428592 -2.355312 2.219495 0
M  V30 35 H 3.213574 -4.911503 3.403076 0
M  V30 36 H 4.570081 -3.720002 3.074051 0
M  V30 37 H 3.948023 -3.923322 4.721509 0
M  V30 38 H 1.995197 -2.801044 5.475261 0
M  V30 39 H 0.308433 -1.022604 5.063531 0
M  V30 40 H 0.051498 -0.159669 2.795860 0
M  V30 41 H 2.384922 2.562588 -0.962997 0
M  V30 42 H 1.957687 1.871538 -2.591818 0
M  V30 43 H 0.339183 2.684690 0.759235 0
M  V30 44 H -2.356046 1.872869 0.195143 0
M  V30 45 H -4.443104 2.937898 1.019352 0
M  V30 46 H -4.531839 5.267944 1.604620 0
M  V30 47 H -0.339243 5.602273 0.545345 0
M  V30 48 H 0.800220 -0.572110 -2.623927 0
M  V30 49 H 2.488834 -3.697948 -0.234837 0
M  V30 50 H 1.645456 -6.060265 -0.493959 0
M  V30 51 H -2.543019 -7.866265 -1.728174 0
M  V30 52 H -4.021145 -6.006363 -2.150053 0
M  V30 53 H -3.124051 -3.699689 -1.874931 0
M  V30 54 H -1.377832 -2.266344 -1.356547 0
M  V30 END ATOM
M  V30 BEGIN BOND
M  V30 1 1 1 2
M  V30 2 2 2 3
M  V30 3 1 3 4
M  V30 4 2 4 5
M  V30 5 1 5 6
M  V30 6 1 6 7
M  V30 7 2 7 8
M  V30 8 1 8 9
M  V30 9 1 9 10
M  V30 10 1 10 11
M  V30 11 2 11 12
M  V30 12 1 11 13
M  V30 13 1 13 14
M  V30 14 2 14 15
M  V30 15 1 15 16
M  V30 16 2 16 17
M  V30 17 1 17 18
M  V30 18 1 18 19
M  V30 19 3 19 20
M  V30 20 2 18 21
M  V30 21 1 9 22
M  V30 22 2 22 23
M  V30 23 1 23 24
M  V30 24 2 24 25
M  V30 25 1 25 26
M  V30 26 2 26 27
M  V30 27 1 27 28
M  V30 28 2 28 29
M  V30 29 1 29 30
M  V30 30 2 30 31
M  V30 31 1 31 32
M  V30 32 2 32 33
M  V30 33 2 6 34
M  V30 34 1 34 2
M  V30 35 1 23 7
M  V30 36 1 33 24
M  V30 37 1 21 14
M  V30 38 1 32 27
M  V30 39 1 1 35
M  V30 40 1 1 36
M  V30 41 1 1 37
M  V30 42 1 3 38
M  V30 43 1 4 39
M  V30 44 1 5 40
M  V30 45 1 10 41
M  V30 46 1 10 42
M  V30 47 1 13 43
M  V30 48 1 15 44
M  V30 49 1 16 45
M  V30 50 1 17 46
M  V30 51 1 21 47
M  V30 52 1 22 48
M  V30 53 1 25 49
M  V30 54 1 26 50
M  V30 55 1 29 51
M  V30 56 1 30 52
M  V30 57 1 31 53
M  V30 58 1 33 54
M  V30 END BOND
M  V30 END CTAB
M  END
>  <Dataset>  (66) 
ChEMBL_Kinases

>  <Ligand_Instance>  (66) 
nan

>  <PDB_ID>  (66) 
nan

>  <Standardized_SMILES>  (66) 
Cc1cccc(-c2nn(CC(=S)Nc3cccc(C#N)c3)cc2-c2ccc3ncccc3c2)n1

>  <Name>  (66) 
nan

>  <Pocket>  (66) 
nan

>  <ATP_Site>  (66) 
nan

>  <Peripheral>  (66) 
nan

>  <Num_H_Atoms_ProtBoundConf>  (66) 
nan

>  <Num_Resolved_Atoms>  (66) 
nan

>  <Num_Not_Resolved_Atoms>  (66) 
nan

$$$$
CHEMBL1766453
     RDKit          3D

  0  0  0  0  0  0  0  0  0  0999 V3000
M  V30 BEGIN CTAB
M  V30 COUNTS 53 57 0 0 0
M  V30 BEGIN ATOM
M  V30 1 C 3.459865 -3.821885 4.270794 0
M  V30 2 C 2.137653 -3.220892 3.923245 0
M  V30 3 C 1.025688 -3.372753 4.723419 0
M  V30 4 C -0.190112 -2.797486 4.366427 0
M  V30 5 C -0.156274 -2.091664 3.176469 0
M  V30 6 C 0.943832 -1.917429 2.344931 0
M  V30 7 C 0.806332 -1.151781 1.139918 0
M  V30 8 N 1.442253 -0.001629 0.849494 0
M  V30 9 N 1.094714 0.457110 -0.348036 0
M  V30 10 C 1.531806 1.650042 -1.050516 0
M  V30 11 C 0.642980 2.790124 -0.716816 0
M  V30 12 S -0.615645 2.572893 0.320439 0
M  V30 13 N 0.751315 4.118524 -1.210201 0
M  V30 14 C -0.066788 5.223865 -0.920877 0
M  V30 15 C 0.252868 6.033992 0.145636 0
M  V30 16 C -0.582364 7.114518 0.395327 0
M  V30 17 C -1.679319 7.338728 -0.411510 0
M  V30 18 C -1.990103 6.523020 -1.475008 0
M  V30 19 C -1.156278 5.432652 -1.735325 0
M  V30 20 C 0.195310 -0.439362 -0.848346 0
M  V30 21 C 0.005472 -1.452599 0.073785 0
M  V30 22 C -0.879568 -2.566299 -0.132791 0
M  V30 23 C -2.247830 -2.585992 -0.320951 0
M  V30 24 C -2.935634 -3.767387 -0.507263 0
M  V30 25 C -2.242230 -4.981659 -0.507929 0
M  V30 26 N -2.927193 -6.111823 -0.690317 0
M  V30 27 C -2.322136 -7.335244 -0.704265 0
M  V30 28 C -0.936993 -7.389069 -0.519706 0
M  V30 29 C -0.225452 -6.214087 -0.330053 0
M  V30 30 C -0.864987 -4.997115 -0.321370 0
M  V30 31 C -0.208874 -3.784900 -0.136789 0
M  V30 32 N 2.094190 -2.514900 2.771321 0
M  V30 33 H 3.549757 -4.859251 3.835269 0
M  V30 34 H 4.275112 -3.149414 3.910964 0
M  V30 35 H 3.571438 -3.898607 5.357651 0
M  V30 36 H 1.082323 -3.941362 5.640421 0
M  V30 37 H -1.092091 -2.873704 4.937520 0
M  V30 38 H -1.102200 -1.631051 2.877172 0
M  V30 39 H 2.592100 1.832056 -0.774208 0
M  V30 40 H 1.541068 1.417351 -2.144862 0
M  V30 41 H 1.476832 4.474959 -1.879595 0
M  V30 42 H 1.118681 5.862445 0.787438 0
M  V30 43 H -0.415556 7.817038 1.217679 0
M  V30 44 H -2.378420 8.158532 -0.282822 0
M  V30 45 H -2.849942 6.684108 -2.121730 0
M  V30 46 H -1.398048 4.790263 -2.569880 0
M  V30 47 H -0.298056 -0.366794 -1.826482 0
M  V30 48 H -2.688554 -1.596374 -0.303099 0
M  V30 49 H -3.988758 -3.721749 -0.647032 0
M  V30 50 H -2.833738 -8.276084 -0.848210 0
M  V30 51 H -0.426199 -8.341297 -0.525008 0
M  V30 52 H 0.841981 -6.218516 -0.184708 0
M  V30 53 H 0.851836 -3.916045 -0.002011 0
M  V30 END ATOM
M  V30 BEGIN BOND
M  V30 1 1 1 2
M  V30 2 2 2 3
M  V30 3 1 3 4
M  V30 4 2 4 5
M  V30 5 1 5 6
M  V30 6 1 6 7
M  V30 7 2 7 8
M  V30 8 1 8 9
M  V30 9 1 9 10
M  V30 10 1 10 11
M  V30 11 2 11 12
M  V30 12 1 11 13
M  V30 13 1 13 14
M  V30 14 2 14 15
M  V30 15 1 15 16
M  V30 16 2 16 17
M  V30 17 1 17 18
M  V30 18 2 18 19
M  V30 19 1 9 20
M  V30 20 2 20 21
M  V30 21 1 21 22
M  V30 22 2 22 23
M  V30 23 1 23 24
M  V30 24 2 24 25
M  V30 25 1 25 26
M  V30 26 2 26 27
M  V30 27 1 27 28
M  V30 28 2 28 29
M  V30 29 1 29 30
M  V30 30 2 30 31
M  V30 31 2 6 32
M  V30 32 1 32 2
M  V30 33 1 21 7
M  V30 34 1 31 22
M  V30 35 1 19 14
M  V30 36 1 30 25
M  V30 37 1 1 33
M  V30 38 1 1 34
M  V30 39 1 1 35
M  V30 40 1 3 36
M  V30 41 1 4 37
M  V30 42 1 5 38
M  V30 43 1 10 39
M  V30 44 1 10 40
M  V30 45 1 13 41
M  V30 46 1 15 42
M  V30 47 1 16 43
M  V30 48 1 17 44
M  V30 49 1 18 45
M  V30 50 1 19 46
M  V30 51 1 20 47
M  V30 52 1 23 48
M  V30 53 1 24 49
M  V30 54 1 27 50
M  V30 55 1 28 51
M  V30 56 1 29 52
M  V30 57 1 31 53
M  V30 END BOND
M  V30 END CTAB
M  END
>  <Dataset>  (67) 
ChEMBL_Kinases

>  <Ligand_Instance>  (67) 
nan

>  <PDB_ID>  (67) 
nan

>  <Standardized_SMILES>  (67) 
Cc1cccc(-c2nn(CC(=S)Nc3ccccc3)cc2-c2ccc3ncccc3c2)n1

>  <Name>  (67) 
nan

>  <Pocket>  (67) 
nan

>  <ATP_Site>  (67) 
nan

>  <Peripheral>  (67) 
nan

>  <Num_H_Atoms_ProtBoundConf>  (67) 
nan

>  <Num_Resolved_Atoms>  (67) 
nan

>  <Num_Not_Resolved_Atoms>  (67) 
nan

$$$$
CHEMBL1766451
     RDKit          3D

  0  0  0  0  0  0  0  0  0  0999 V3000
M  V30 BEGIN CTAB
M  V30 COUNTS 57 61 0 0 0
M  V30 BEGIN ATOM
M  V30 1 C -1.036310 -2.998481 4.007146 0
M  V30 2 C -0.227536 -3.127454 2.764117 0
M  V30 3 C 0.350498 -4.329673 2.395934 0
M  V30 4 C 1.104329 -4.468179 1.245634 0
M  V30 5 C 1.310836 -3.373774 0.399570 0
M  V30 6 C 0.708555 -2.178424 0.810050 0
M  V30 7 C 0.949996 -1.064614 -0.103662 0
M  V30 8 N 1.649933 0.014528 0.326722 0
M  V30 9 N 1.754797 0.911295 -0.665618 0
M  V30 10 C 2.428444 2.197734 -0.613280 0
M  V30 11 C 1.481912 3.273397 -0.169654 0
M  V30 12 C 0.934431 2.979984 1.194766 0
M  V30 13 O 1.114472 2.018614 2.018153 0
M  V30 14 N 0.010338 3.902272 1.793510 0
M  V30 15 C -0.357132 3.387669 3.090554 0
M  V30 16 C 0.251456 3.625586 4.284701 0
M  V30 17 C -0.232112 3.049941 5.433604 0
M  V30 18 C -1.347714 2.217840 5.392250 0
M  V30 19 C -1.988405 1.956773 4.192229 0
M  V30 20 C -3.134021 1.105335 4.132171 0
M  V30 21 N -4.054535 0.402069 4.082521 0
M  V30 22 C -1.476257 2.555155 3.037817 0
M  V30 23 C 1.130113 0.422922 -1.732274 0
M  V30 24 C 0.609215 -0.816898 -1.424702 0
M  V30 25 C -0.158730 -1.839070 -2.130260 0
M  V30 26 C -1.422685 -2.182968 -1.698726 0
M  V30 27 C -2.182840 -3.147086 -2.340522 0
M  V30 28 C -1.655524 -3.783967 -3.449210 0
M  V30 29 N -2.339965 -4.743495 -4.136174 0
M  V30 30 C -1.788323 -5.344972 -5.219298 0
M  V30 31 C -0.519438 -4.988434 -5.639159 0
M  V30 32 C 0.209412 -4.019948 -4.971134 0
M  V30 33 C -0.389651 -3.418779 -3.856754 0
M  V30 34 C 0.400175 -2.457690 -3.238333 0
M  V30 35 N -0.017366 -2.099060 1.943187 0
M  V30 36 H -1.542495 -2.011605 3.990396 0
M  V30 37 H -0.391205 -3.075889 4.897443 0
M  V30 38 H -1.845993 -3.755415 4.005546 0
M  V30 39 H 0.220764 -5.194107 3.009640 0
M  V30 40 H 1.570492 -5.410042 0.937072 0
M  V30 41 H 1.897104 -3.481861 -0.494485 0
M  V30 42 H 2.786195 2.443579 -1.621211 0
M  V30 43 H 3.251124 2.187139 0.160783 0
M  V30 44 H 0.679924 3.476468 -0.882763 0
M  V30 45 H 2.083570 4.205315 -0.056123 0
M  V30 46 H -0.306707 4.783316 1.321165 0
M  V30 47 H 1.098928 4.270740 4.245651 0
M  V30 48 H 0.240119 3.232997 6.371277 0
M  V30 49 H -1.770526 1.737258 6.271312 0
M  V30 50 H -2.018857 2.318340 2.109788 0
M  V30 51 H 0.978889 0.815234 -2.723610 0
M  V30 52 H -1.897419 -1.723876 -0.836278 0
M  V30 53 H -3.182261 -3.439827 -2.024475 0
M  V30 54 H -2.384698 -6.109861 -5.732169 0
M  V30 55 H -0.074070 -5.462554 -6.500254 0
M  V30 56 H 1.211040 -3.750390 -5.316457 0
M  V30 57 H 1.387727 -2.206860 -3.597037 0
M  V30 END ATOM
M  V30 BEGIN BOND
M  V30 1 1 1 2
M  V30 2 2 2 3
M  V30 3 1 3 4
M  V30 4 2 4 5
M  V30 5 1 5 6
M  V30 6 1 6 7
M  V30 7 2 7 8
M  V30 8 1 8 9
M  V30 9 1 9 10
M  V30 10 1 10 11
M  V30 11 1 11 12
M  V30 12 2 12 13
M  V30 13 1 12 14
M  V30 14 1 14 15
M  V30 15 2 15 16
M  V30 16 1 16 17
M  V30 17 2 17 18
M  V30 18 1 18 19
M  V30 19 1 19 20
M  V30 20 3 20 21
M  V30 21 2 19 22
M  V30 22 1 9 23
M  V30 23 2 23 24
M  V30 24 1 24 25
M  V30 25 2 25 26
M  V30 26 1 26 27
M  V30 27 2 27 28
M  V30 28 1 28 29
M  V30 29 2 29 30
M  V30 30 1 30 31
M  V30 31 2 31 32
M  V30 32 1 32 33
M  V30 33 2 33 34
M  V30 34 2 6 35
M  V30 35 1 35 2
M  V30 36 1 24 7
M  V30 37 1 34 25
M  V30 38 1 22 15
M  V30 39 1 33 28
M  V30 40 1 1 36
M  V30 41 1 1 37
M  V30 42 1 1 38
M  V30 43 1 3 39
M  V30 44 1 4 40
M  V30 45 1 5 41
M  V30 46 1 10 42
M  V30 47 1 10 43
M  V30 48 1 11 44
M  V30 49 1 11 45
M  V30 50 1 14 46
M  V30 51 1 16 47
M  V30 52 1 17 48
M  V30 53 1 18 49
M  V30 54 1 22 50
M  V30 55 1 23 51
M  V30 56 1 26 52
M  V30 57 1 27 53
M  V30 58 1 30 54
M  V30 59 1 31 55
M  V30 60 1 32 56
M  V30 61 1 34 57
M  V30 END BOND
M  V30 END CTAB
M  END
>  <Dataset>  (68) 
ChEMBL_Kinases

>  <Ligand_Instance>  (68) 
nan

>  <PDB_ID>  (68) 
nan

>  <Standardized_SMILES>  (68) 
Cc1cccc(-c2nn(CCC(=O)Nc3cccc(C#N)c3)cc2-c2ccc3ncccc3c2)n1

>  <Name>  (68) 
nan

>  <Pocket>  (68) 
nan

>  <ATP_Site>  (68) 
nan

>  <Peripheral>  (68) 
nan

>  <Num_H_Atoms_ProtBoundConf>  (68) 
nan

>  <Num_Resolved_Atoms>  (68) 
nan

>  <Num_Not_Resolved_Atoms>  (68) 
nan

$$$$
CHEMBL1766450
     RDKit          3D

  0  0  0  0  0  0  0  0  0  0999 V3000
M  V30 BEGIN CTAB
M  V30 COUNTS 56 60 0 0 0
M  V30 BEGIN ATOM
M  V30 1 C 3.309755 -3.217818 4.248803 0
M  V30 2 C 2.151441 -2.464154 3.667208 0
M  V30 3 C 1.016768 -2.352213 4.438268 0
M  V30 4 C -0.069193 -1.651478 3.923657 0
M  V30 5 C -0.051732 -1.062497 2.667241 0
M  V30 6 C 1.130420 -1.220346 1.950061 0
M  V30 7 C 1.300285 -0.651487 0.616125 0
M  V30 8 N 1.356084 0.703952 0.482838 0
M  V30 9 N 1.514993 1.046626 -0.770377 0
M  V30 10 C 1.606526 2.421278 -1.207376 0
M  V30 11 C 0.267776 3.009775 -1.538165 0
M  V30 12 C -0.588762 2.956871 -0.302974 0
M  V30 13 O -0.544951 2.565878 0.898352 0
M  V30 14 N -1.894990 3.523748 -0.496715 0
M  V30 15 C -2.765430 3.508644 0.634156 0
M  V30 16 C -2.875382 4.499225 1.598891 0
M  V30 17 C -3.778745 4.320061 2.634978 0
M  V30 18 C -4.559019 3.192455 2.724739 0
M  V30 19 C -4.433798 2.221926 1.756631 0
M  V30 20 C -3.540744 2.365197 0.703829 0
M  V30 21 C 1.569986 -0.071139 -1.510860 0
M  V30 22 C 1.436327 -1.148313 -0.657400 0
M  V30 23 C 1.419533 -2.568557 -0.910706 0
M  V30 24 C 2.249494 -3.587339 -0.501936 0
M  V30 25 C 2.031938 -4.891672 -0.869568 0
M  V30 26 C 0.953841 -5.242513 -1.678370 0
M  V30 27 N 0.777857 -6.541860 -2.016188 0
M  V30 28 C -0.249770 -6.940429 -2.797702 0
M  V30 29 C -1.104235 -5.948908 -3.228238 0
M  V30 30 C -0.962928 -4.619517 -2.909489 0
M  V30 31 C 0.106062 -4.228907 -2.100807 0
M  V30 32 C 0.334097 -2.917675 -1.724184 0
M  V30 33 N 2.191771 -1.895122 2.431626 0
M  V30 34 H 3.996614 -3.465151 3.409326 0
M  V30 35 H 3.827286 -2.535004 4.967630 0
M  V30 36 H 2.984386 -4.159254 4.719634 0
M  V30 37 H 0.967178 -2.806730 5.441087 0
M  V30 38 H -0.984765 -1.534668 4.487289 0
M  V30 39 H -0.885275 -0.513516 2.251589 0
M  V30 40 H 2.127252 3.079588 -0.495724 0
M  V30 41 H 2.221752 2.429776 -2.143464 0
M  V30 42 H -0.196053 2.380222 -2.348608 0
M  V30 43 H 0.367195 4.040972 -1.885881 0
M  V30 44 H -2.330859 3.962558 -1.358658 0
M  V30 45 H -2.231518 5.361621 1.470219 0
M  V30 46 H -3.828592 5.119023 3.362339 0
M  V30 47 H -5.261319 3.071378 3.545395 0
M  V30 48 H -5.051219 1.338104 1.831688 0
M  V30 49 H -3.501414 1.547746 -0.023758 0
M  V30 50 H 1.694044 -0.146842 -2.579467 0
M  V30 51 H 3.057069 -3.214182 0.119230 0
M  V30 52 H 2.750096 -5.601230 -0.485966 0
M  V30 53 H -0.378651 -7.991849 -3.060124 0
M  V30 54 H -1.949863 -6.209736 -3.858704 0
M  V30 55 H -1.650248 -3.838636 -3.258697 0
M  V30 56 H -0.424865 -2.233742 -2.139880 0
M  V30 END ATOM
M  V30 BEGIN BOND
M  V30 1 1 1 2
M  V30 2 2 2 3
M  V30 3 1 3 4
M  V30 4 2 4 5
M  V30 5 1 5 6
M  V30 6 1 6 7
M  V30 7 2 7 8
M  V30 8 1 8 9
M  V30 9 1 9 10
M  V30 10 1 10 11
M  V30 11 1 11 12
M  V30 12 2 12 13
M  V30 13 1 12 14
M  V30 14 1 14 15
M  V30 15 2 15 16
M  V30 16 1 16 17
M  V30 17 2 17 18
M  V30 18 1 18 19
M  V30 19 2 19 20
M  V30 20 1 9 21
M  V30 21 2 21 22
M  V30 22 1 22 23
M  V30 23 2 23 24
M  V30 24 1 24 25
M  V30 25 2 25 26
M  V30 26 1 26 27
M  V30 27 2 27 28
M  V30 28 1 28 29
M  V30 29 2 29 30
M  V30 30 1 30 31
M  V30 31 2 31 32
M  V30 32 2 6 33
M  V30 33 1 33 2
M  V30 34 1 22 7
M  V30 35 1 32 23
M  V30 36 1 20 15
M  V30 37 1 31 26
M  V30 38 1 1 34
M  V30 39 1 1 35
M  V30 40 1 1 36
M  V30 41 1 3 37
M  V30 42 1 4 38
M  V30 43 1 5 39
M  V30 44 1 10 40
M  V30 45 1 10 41
M  V30 46 1 11 42
M  V30 47 1 11 43
M  V30 48 1 14 44
M  V30 49 1 16 45
M  V30 50 1 17 46
M  V30 51 1 18 47
M  V30 52 1 19 48
M  V30 53 1 20 49
M  V30 54 1 21 50
M  V30 55 1 24 51
M  V30 56 1 25 52
M  V30 57 1 28 53
M  V30 58 1 29 54
M  V30 59 1 30 55
M  V30 60 1 32 56
M  V30 END BOND
M  V30 END CTAB
M  END
>  <Dataset>  (69) 
ChEMBL_Kinases

>  <Ligand_Instance>  (69) 
nan

>  <PDB_ID>  (69) 
nan

>  <Standardized_SMILES>  (69) 
Cc1cccc(-c2nn(CCC(=O)Nc3ccccc3)cc2-c2ccc3ncccc3c2)n1

>  <Name>  (69) 
nan

>  <Pocket>  (69) 
nan

>  <ATP_Site>  (69) 
nan

>  <Peripheral>  (69) 
nan

>  <Num_H_Atoms_ProtBoundConf>  (69) 
nan

>  <Num_Resolved_Atoms>  (69) 
nan

>  <Num_Not_Resolved_Atoms>  (69) 
nan

$$$$
CHEMBL1766444
     RDKit          3D

  0  0  0  0  0  0  0  0  0  0999 V3000
M  V30 BEGIN CTAB
M  V30 COUNTS 57 61 0 0 0
M  V30 BEGIN ATOM
M  V30 1 C 0.903623 -3.364470 4.692951 0
M  V30 2 C 1.581434 -3.422408 3.373228 0
M  V30 3 C 2.337689 -4.552156 3.047551 0
M  V30 4 C 2.949722 -4.570727 1.819293 0
M  V30 5 C 2.848390 -3.541153 0.917108 0
M  V30 6 C 2.091906 -2.441744 1.275945 0
M  V30 7 C 1.837226 -1.228233 0.489370 0
M  V30 8 N 2.198966 0.025549 0.815897 0
M  V30 9 N 1.809916 0.880392 -0.119818 0
M  V30 10 C 1.991585 2.333463 -0.173586 0
M  V30 11 C 0.766907 2.882631 0.509265 0
M  V30 12 O 0.437439 1.674084 0.651974 0
M  V30 13 N 0.276145 4.166818 0.815006 0
M  V30 14 C -0.966574 3.993367 1.485713 0
M  V30 15 C -0.953550 3.883444 2.839418 0
M  V30 16 C -2.160801 3.712884 3.516654 0
M  V30 17 C -3.302278 3.667691 2.742768 0
M  V30 18 C -3.316052 3.779010 1.371460 0
M  V30 19 C -4.543885 3.726790 0.580059 0
M  V30 20 N -5.786306 3.548816 1.277949 0
M  V30 21 O -4.523450 3.833352 -0.672463 0
M  V30 22 C -2.104939 3.949107 0.704157 0
M  V30 23 C 1.179701 0.163497 -1.077975 0
M  V30 24 C 1.179607 -1.190005 -0.719081 0
M  V30 25 C 0.639646 -2.362813 -1.391989 0
M  V30 26 C -0.361024 -2.993887 -0.656924 0
M  V30 27 C -1.005411 -4.133679 -1.125969 0
M  V30 28 C -0.619946 -4.635497 -2.366106 0
M  V30 29 N -1.218121 -5.742886 -2.864989 0
M  V30 30 C -0.845317 -6.234410 -4.072629 0
M  V30 31 C 0.144704 -5.618124 -4.810274 0
M  V30 32 C 0.773539 -4.491107 -4.333471 0
M  V30 33 C 0.372411 -4.016563 -3.103880 0
M  V30 34 C 1.005517 -2.881117 -2.623078 0
M  V30 35 N 1.482610 -2.420392 2.495680 0
M  V30 36 H -0.198609 -3.494027 4.611880 0
M  V30 37 H 1.282222 -4.147585 5.367123 0
M  V30 38 H 1.069594 -2.402689 5.219826 0
M  V30 39 H 2.442143 -5.390025 3.736650 0
M  V30 40 H 3.548230 -5.418778 1.511880 0
M  V30 41 H 3.291111 -3.469512 -0.062961 0
M  V30 42 H 2.056226 2.633010 -1.229732 0
M  V30 43 H 2.887165 2.631299 0.392458 0
M  V30 44 H 0.985552 4.841116 0.449434 0
M  V30 45 H -0.019240 3.925716 3.408523 0
M  V30 46 H -2.174590 3.624336 4.579356 0
M  V30 47 H -4.244601 3.533439 3.283471 0
M  V30 48 H -6.544054 4.059890 1.750644 0
M  V30 49 H -5.878350 2.494177 1.250511 0
M  V30 50 H -2.117566 4.036779 -0.379397 0
M  V30 51 H 0.719795 0.511437 -2.008290 0
M  V30 52 H -0.725169 -2.676955 0.312827 0
M  V30 53 H -1.785570 -4.647630 -0.581206 0
M  V30 54 H -1.353175 -7.130733 -4.439829 0
M  V30 55 H 0.389377 -6.069157 -5.767756 0
M  V30 56 H 1.539471 -4.010472 -4.898992 0
M  V30 57 H 1.791024 -2.326913 -3.124544 0
M  V30 END ATOM
M  V30 BEGIN BOND
M  V30 1 1 1 2
M  V30 2 2 2 3
M  V30 3 1 3 4
M  V30 4 2 4 5
M  V30 5 1 5 6
M  V30 6 1 6 7
M  V30 7 2 7 8
M  V30 8 1 8 9
M  V30 9 1 9 10
M  V30 10 1 10 11
M  V30 11 2 11 12
M  V30 12 1 11 13
M  V30 13 1 13 14
M  V30 14 2 14 15
M  V30 15 1 15 16
M  V30 16 2 16 17
M  V30 17 1 17 18
M  V30 18 1 18 19
M  V30 19 1 19 20
M  V30 20 2 19 21
M  V30 21 2 18 22
M  V30 22 1 9 23
M  V30 23 2 23 24
M  V30 24 1 24 25
M  V30 25 2 25 26
M  V30 26 1 26 27
M  V30 27 2 27 28
M  V30 28 1 28 29
M  V30 29 2 29 30
M  V30 30 1 30 31
M  V30 31 2 31 32
M  V30 32 1 32 33
M  V30 33 2 33 34
M  V30 34 2 6 35
M  V30 35 1 35 2
M  V30 36 1 24 7
M  V30 37 1 34 25
M  V30 38 1 22 14
M  V30 39 1 33 28
M  V30 40 1 1 36
M  V30 41 1 1 37
M  V30 42 1 1 38
M  V30 43 1 3 39
M  V30 44 1 4 40
M  V30 45 1 5 41
M  V30 46 1 10 42
M  V30 47 1 10 43
M  V30 48 1 13 44
M  V30 49 1 15 45
M  V30 50 1 16 46
M  V30 51 1 17 47
M  V30 52 1 20 48
M  V30 53 1 20 49
M  V30 54 1 22 50
M  V30 55 1 23 51
M  V30 56 1 26 52
M  V30 57 1 27 53
M  V30 58 1 30 54
M  V30 59 1 31 55
M  V30 60 1 32 56
M  V30 61 1 34 57
M  V30 END BOND
M  V30 END CTAB
M  END
>  <Dataset>  (70) 
ChEMBL_Kinases

>  <Ligand_Instance>  (70) 
nan

>  <PDB_ID>  (70) 
nan

>  <Standardized_SMILES>  (70) 
Cc1cccc(-c2nn(CC(=O)Nc3cccc(C(N)=O)c3)cc2-c2ccc3ncccc3c2)n1

>  <Name>  (70) 
nan

>  <Pocket>  (70) 
nan

>  <ATP_Site>  (70) 
nan

>  <Peripheral>  (70) 
nan

>  <Num_H_Atoms_ProtBoundConf>  (70) 
nan

>  <Num_Resolved_Atoms>  (70) 
nan

>  <Num_Not_Resolved_Atoms>  (70) 
nan

$$$$
CHEMBL1766441
     RDKit          3D

  0  0  0  0  0  0  0  0  0  0999 V3000
M  V30 BEGIN CTAB
M  V30 COUNTS 54 58 0 0 0
M  V30 BEGIN ATOM
M  V30 1 C 3.829576 -3.916182 3.653686 0
M  V30 2 C 2.991753 -2.706832 3.445715 0
M  V30 3 C 2.414623 -2.088055 4.559593 0
M  V30 4 C 1.650203 -0.975144 4.309363 0
M  V30 5 C 1.477295 -0.514265 3.023045 0
M  V30 6 C 2.062839 -1.151133 1.947099 0
M  V30 7 C 1.783570 -0.540245 0.653002 0
M  V30 8 N 2.086501 0.718326 0.262420 0
M  V30 9 N 1.680294 0.922082 -0.974879 0
M  V30 10 C 1.749536 2.072712 -1.862284 0
M  V30 11 C 0.535257 2.913511 -1.687462 0
M  V30 12 O 0.467840 3.950008 -2.403416 0
M  V30 13 N -0.447481 2.527485 -0.763852 0
M  V30 14 C -1.695173 3.059125 -0.339999 0
M  V30 15 C -2.889608 2.733976 -0.943436 0
M  V30 16 C -4.098120 3.269728 -0.507478 0
M  V30 17 C -4.062068 4.151165 0.565698 0
M  V30 18 C -2.858568 4.465352 1.157499 0
M  V30 19 C -2.803954 5.374267 2.267791 0
M  V30 20 N -2.755277 6.099989 3.185870 0
M  V30 21 C -1.630783 3.944213 0.742680 0
M  V30 22 C 1.097221 -0.236810 -1.400002 0
M  V30 23 C 1.146692 -1.194277 -0.380978 0
M  V30 24 C 0.614957 -2.554131 -0.486374 0
M  V30 25 C 1.416514 -3.670644 -0.383825 0
M  V30 26 C 0.883889 -4.936079 -0.489978 0
M  V30 27 C -0.478157 -5.084779 -0.702915 0
M  V30 28 N -1.071489 -6.287413 -0.817648 0
M  V30 29 C -2.394305 -6.451970 -1.025280 0
M  V30 30 C -3.170651 -5.299123 -1.123226 0
M  V30 31 C -2.640507 -4.026825 -1.016909 0
M  V30 32 C -1.276661 -3.941194 -0.804440 0
M  V30 33 C -0.763293 -2.658973 -0.700977 0
M  V30 34 N 2.803057 -2.232867 2.212623 0
M  V30 35 H 3.240986 -4.839383 3.494705 0
M  V30 36 H 4.734819 -3.912052 3.003978 0
M  V30 37 H 4.199600 -3.933450 4.716223 0
M  V30 38 H 2.590531 -2.502057 5.544933 0
M  V30 39 H 1.223003 -0.528505 5.202490 0
M  V30 40 H 0.844777 0.382302 2.958615 0
M  V30 41 H 2.673579 2.646811 -1.625081 0
M  V30 42 H 1.867278 1.750951 -2.913544 0
M  V30 43 H -0.402973 1.667294 -0.162426 0
M  V30 44 H -2.896849 2.034551 -1.791142 0
M  V30 45 H -4.984529 2.958544 -1.039885 0
M  V30 46 H -5.000382 4.565934 0.902748 0
M  V30 47 H -0.720995 4.214579 1.229598 0
M  V30 48 H 0.649927 -0.440252 -2.364173 0
M  V30 49 H 2.464437 -3.578454 -0.220511 0
M  V30 50 H 1.485062 -5.829624 -0.414211 0
M  V30 51 H -2.826477 -7.448121 -1.111368 0
M  V30 52 H -4.226123 -5.506485 -1.290587 0
M  V30 53 H -3.288703 -3.178935 -1.100830 0
M  V30 54 H -1.391531 -1.782097 -0.781561 0
M  V30 END ATOM
M  V30 BEGIN BOND
M  V30 1 1 1 2
M  V30 2 2 2 3
M  V30 3 1 3 4
M  V30 4 2 4 5
M  V30 5 1 5 6
M  V30 6 1 6 7
M  V30 7 2 7 8
M  V30 8 1 8 9
M  V30 9 1 9 10
M  V30 10 1 10 11
M  V30 11 2 11 12
M  V30 12 1 11 13
M  V30 13 1 13 14
M  V30 14 2 14 15
M  V30 15 1 15 16
M  V30 16 2 16 17
M  V30 17 1 17 18
M  V30 18 1 18 19
M  V30 19 3 19 20
M  V30 20 2 18 21
M  V30 21 1 9 22
M  V30 22 2 22 23
M  V30 23 1 23 24
M  V30 24 2 24 25
M  V30 25 1 25 26
M  V30 26 2 26 27
M  V30 27 1 27 28
M  V30 28 2 28 29
M  V30 29 1 29 30
M  V30 30 2 30 31
M  V30 31 1 31 32
M  V30 32 2 32 33
M  V30 33 2 6 34
M  V30 34 1 34 2
M  V30 35 1 23 7
M  V30 36 1 33 24
M  V30 37 1 21 14
M  V30 38 1 32 27
M  V30 39 1 1 35
M  V30 40 1 1 36
M  V30 41 1 1 37
M  V30 42 1 3 38
M  V30 43 1 4 39
M  V30 44 1 5 40
M  V30 45 1 10 41
M  V30 46 1 10 42
M  V30 47 1 13 43
M  V30 48 1 15 44
M  V30 49 1 16 45
M  V30 50 1 17 46
M  V30 51 1 21 47
M  V30 52 1 22 48
M  V30 53 1 25 49
M  V30 54 1 26 50
M  V30 55 1 29 51
M  V30 56 1 30 52
M  V30 57 1 31 53
M  V30 58 1 33 54
M  V30 END BOND
M  V30 END CTAB
M  END
>  <Dataset>  (71) 
ChEMBL_Kinases

>  <Ligand_Instance>  (71) 
nan

>  <PDB_ID>  (71) 
nan

>  <Standardized_SMILES>  (71) 
Cc1cccc(-c2nn(CC(=O)Nc3cccc(C#N)c3)cc2-c2ccc3ncccc3c2)n1

>  <Name>  (71) 
nan

>  <Pocket>  (71) 
nan

>  <ATP_Site>  (71) 
nan

>  <Peripheral>  (71) 
nan

>  <Num_H_Atoms_ProtBoundConf>  (71) 
nan

>  <Num_Resolved_Atoms>  (71) 
nan

>  <Num_Not_Resolved_Atoms>  (71) 
nan

$$$$
CHEMBL1766440
     RDKit          3D

  0  0  0  0  0  0  0  0  0  0999 V3000
M  V30 BEGIN CTAB
M  V30 COUNTS 53 57 0 0 0
M  V30 BEGIN ATOM
M  V30 1 C 2.430552 -3.011083 5.575108 0
M  V30 2 C 1.409568 -2.377478 4.717167 0
M  V30 3 C 0.126861 -2.111732 5.147911 0
M  V30 4 C -0.876970 -1.525277 4.406106 0
M  V30 5 C -0.518664 -1.182326 3.096972 0
M  V30 6 C 0.762451 -1.437684 2.638459 0
M  V30 7 C 0.996485 -1.037694 1.283571 0
M  V30 8 N 1.911336 -0.082566 0.942668 0
M  V30 9 N 1.907247 0.074698 -0.371250 0
M  V30 10 C 2.688605 0.959576 -1.213145 0
M  V30 11 C 1.957011 2.242020 -1.370502 0
M  V30 12 O 1.185776 1.550833 -0.620283 0
M  V30 13 N 2.144320 3.479714 -2.032388 0
M  V30 14 C 1.011551 4.292529 -1.750111 0
M  V30 15 C 0.974118 5.137650 -0.646756 0
M  V30 16 C -0.184627 5.895675 -0.456583 0
M  V30 17 C -1.205102 5.752917 -1.372520 0
M  V30 18 C -1.186437 4.917481 -2.476223 0
M  V30 19 C -0.024838 4.177088 -2.640790 0
M  V30 20 C 0.990709 -0.774700 -0.905643 0
M  V30 21 C 0.411191 -1.481806 0.142090 0
M  V30 22 C -0.618167 -2.491670 0.002249 0
M  V30 23 C -1.825436 -2.052975 -0.559477 0
M  V30 24 C -2.936315 -2.879354 -0.775748 0
M  V30 25 C -2.832780 -4.205989 -0.412543 0
M  V30 26 N -3.863231 -5.050059 -0.594130 0
M  V30 27 C -3.821441 -6.358830 -0.258512 0
M  V30 28 C -2.632415 -6.829519 0.304118 0
M  V30 29 C -1.572642 -5.963726 0.491450 0
M  V30 30 C -1.633535 -4.630997 0.142792 0
M  V30 31 C -0.542896 -3.815006 0.354023 0
M  V30 32 N 1.682887 -2.020473 3.446728 0
M  V30 33 H 1.914694 -3.415707 6.474026 0
M  V30 34 H 3.148628 -2.250488 5.978307 0
M  V30 35 H 3.033859 -3.759864 5.035656 0
M  V30 36 H -0.079043 -2.408136 6.183122 0
M  V30 37 H -1.858371 -1.340020 4.786660 0
M  V30 38 H -1.302624 -0.713481 2.485681 0
M  V30 39 H 3.650555 1.143637 -0.721508 0
M  V30 40 H 2.884006 0.497212 -2.203236 0
M  V30 41 H 3.057339 3.385430 -2.511594 0
M  V30 42 H 1.805780 5.196638 0.023354 0
M  V30 43 H -0.271409 6.570872 0.384381 0
M  V30 44 H -2.110146 6.333645 -1.238909 0
M  V30 45 H -1.999922 4.832120 -3.168686 0
M  V30 46 H 0.008402 3.511159 -3.507598 0
M  V30 47 H 0.699750 -0.936044 -1.955399 0
M  V30 48 H -1.950049 -1.010679 -0.861223 0
M  V30 49 H -3.826480 -2.462962 -1.212943 0
M  V30 50 H -4.685739 -6.983101 -0.431201 0
M  V30 51 H -2.555711 -7.869059 0.587072 0
M  V30 52 H -0.664638 -6.358173 0.929804 0
M  V30 53 H 0.372011 -4.136220 0.777028 0
M  V30 END ATOM
M  V30 BEGIN BOND
M  V30 1 1 1 2
M  V30 2 2 2 3
M  V30 3 1 3 4
M  V30 4 2 4 5
M  V30 5 1 5 6
M  V30 6 1 6 7
M  V30 7 2 7 8
M  V30 8 1 8 9
M  V30 9 1 9 10
M  V30 10 1 10 11
M  V30 11 2 11 12
M  V30 12 1 11 13
M  V30 13 1 13 14
M  V30 14 2 14 15
M  V30 15 1 15 16
M  V30 16 2 16 17
M  V30 17 1 17 18
M  V30 18 2 18 19
M  V30 19 1 9 20
M  V30 20 2 20 21
M  V30 21 1 21 22
M  V30 22 2 22 23
M  V30 23 1 23 24
M  V30 24 2 24 25
M  V30 25 1 25 26
M  V30 26 2 26 27
M  V30 27 1 27 28
M  V30 28 2 28 29
M  V30 29 1 29 30
M  V30 30 2 30 31
M  V30 31 2 6 32
M  V30 32 1 32 2
M  V30 33 1 21 7
M  V30 34 1 31 22
M  V30 35 1 19 14
M  V30 36 1 30 25
M  V30 37 1 1 33
M  V30 38 1 1 34
M  V30 39 1 1 35
M  V30 40 1 3 36
M  V30 41 1 4 37
M  V30 42 1 5 38
M  V30 43 1 10 39
M  V30 44 1 10 40
M  V30 45 1 13 41
M  V30 46 1 15 42
M  V30 47 1 16 43
M  V30 48 1 17 44
M  V30 49 1 18 45
M  V30 50 1 19 46
M  V30 51 1 20 47
M  V30 52 1 23 48
M  V30 53 1 24 49
M  V30 54 1 27 50
M  V30 55 1 28 51
M  V30 56 1 29 52
M  V30 57 1 31 53
M  V30 END BOND
M  V30 END CTAB
M  END
>  <Dataset>  (72) 
ChEMBL_Kinases

>  <Ligand_Instance>  (72) 
nan

>  <PDB_ID>  (72) 
nan

>  <Standardized_SMILES>  (72) 
Cc1cccc(-c2nn(CC(=O)Nc3ccccc3)cc2-c2ccc3ncccc3c2)n1

>  <Name>  (72) 
nan

>  <Pocket>  (72) 
nan

>  <ATP_Site>  (72) 
nan

>  <Peripheral>  (72) 
nan

>  <Num_H_Atoms_ProtBoundConf>  (72) 
nan

>  <Num_Resolved_Atoms>  (72) 
nan

>  <Num_Not_Resolved_Atoms>  (72) 
nan

$$$$
CHEMBL1766425
     RDKit          3D

  0  0  0  0  0  0  0  0  0  0999 V3000
M  V30 BEGIN CTAB
M  V30 COUNTS 63 66 0 0 0
M  V30 BEGIN ATOM
M  V30 1 C 4.324629 -1.435065 1.494330 0
M  V30 2 C 3.742855 -1.572450 0.119535 0
M  V30 3 N 4.211961 -0.623571 -0.836309 0
M  V30 4 C 5.576310 -0.841981 -1.181853 0
M  V30 5 C 6.595921 -0.546191 -0.135793 0
M  V30 6 C 3.382220 -0.597939 -1.998136 0
M  V30 7 C 2.001377 -0.053150 -1.782751 0
M  V30 8 C 2.021012 1.382223 -1.269231 0
M  V30 9 N 0.647039 1.812050 -1.086351 0
M  V30 10 C -0.025284 1.628524 0.085727 0
M  V30 11 C -1.317224 2.145901 -0.070030 0
M  V30 12 N -2.238809 2.069735 1.043937 0
M  V30 13 C -3.030174 0.883660 1.095780 0
M  V30 14 O -2.752050 0.120381 0.119332 0
M  V30 15 N -3.992613 0.623124 2.120029 0
M  V30 16 C -4.687399 -0.640710 1.993048 0
M  V30 17 C -5.869968 -0.845708 1.299733 0
M  V30 18 N -6.390766 -2.090328 1.274991 0
M  V30 19 C -5.759175 -3.110682 1.920327 0
M  V30 20 C -4.580372 -2.919493 2.614382 0
M  V30 21 C -3.940369 -4.040012 3.290731 0
M  V30 22 C -4.385949 -5.318309 3.321119 0
M  V30 23 C -3.672539 -6.277623 4.005229 0
M  V30 24 C -2.501483 -6.038576 4.686342 0
M  V30 25 C -2.045835 -4.742227 4.658268 0
M  V30 26 C -2.751335 -3.757954 3.972903 0
M  V30 27 N -4.065223 -1.664730 2.632744 0
M  V30 28 C -1.401452 2.640202 -1.354500 0
M  V30 29 C -2.493244 3.241726 -1.935762 0
M  V30 30 C -2.293380 3.651599 -3.260429 0
M  V30 31 C -1.071827 3.449314 -3.906208 0
M  V30 32 C -0.013706 2.834493 -3.256049 0
M  V30 33 C -0.180813 2.420122 -1.950738 0
M  V30 34 H 3.474584 -1.507295 2.248139 0
M  V30 35 H 4.972330 -2.306067 1.784060 0
M  V30 36 H 4.812721 -0.483926 1.694353 0
M  V30 37 H 3.955455 -2.626035 -0.241054 0
M  V30 38 H 2.607604 -1.560379 0.172276 0
M  V30 39 H 5.658506 -1.929757 -1.490433 0
M  V30 40 H 5.880865 -0.298032 -2.110629 0
M  V30 41 H 6.764160 -1.311376 0.620376 0
M  V30 42 H 6.425687 0.479611 0.256768 0
M  V30 43 H 7.584621 -0.461122 -0.683016 0
M  V30 44 H 3.840813 -0.034125 -2.848515 0
M  V30 45 H 3.230303 -1.633256 -2.423705 0
M  V30 46 H 1.515551 -0.043636 -2.793719 0
M  V30 47 H 1.361323 -0.703856 -1.168256 0
M  V30 48 H 2.567800 2.008108 -1.977046 0
M  V30 49 H 2.548867 1.452996 -0.304171 0
M  V30 50 H 0.400288 1.155016 0.977112 0
M  V30 51 H -2.367076 2.804507 1.800045 0
M  V30 52 H -4.044754 1.387130 2.807248 0
M  V30 53 H -6.285702 0.027756 0.825591 0
M  V30 54 H -6.259312 -4.066796 1.838865 0
M  V30 55 H -5.283419 -5.558105 2.811790 0
M  V30 56 H -4.074385 -7.301089 4.000265 0
M  V30 57 H -2.032112 -6.873743 5.185735 0
M  V30 58 H -1.124602 -4.522310 5.186927 0
M  V30 59 H -2.317252 -2.774067 4.007207 0
M  V30 60 H -3.425687 3.384765 -1.409828 0
M  V30 61 H -3.099409 4.135948 -3.796050 0
M  V30 62 H -0.910285 3.762922 -4.929209 0
M  V30 63 H 0.924713 2.677295 -3.745177 0
M  V30 END ATOM
M  V30 BEGIN BOND
M  V30 1 1 1 2
M  V30 2 1 2 3
M  V30 3 1 3 4
M  V30 4 1 4 5
M  V30 5 1 3 6
M  V30 6 1 6 7
M  V30 7 1 7 8
M  V30 8 1 8 9
M  V30 9 1 9 10
M  V30 10 2 10 11
M  V30 11 1 11 12
M  V30 12 1 12 13
M  V30 13 2 13 14
M  V30 14 1 13 15
M  V30 15 1 15 16
M  V30 16 2 16 17
M  V30 17 1 17 18
M  V30 18 2 18 19
M  V30 19 1 19 20
M  V30 20 1 20 21
M  V30 21 2 21 22
M  V30 22 1 22 23
M  V30 23 2 23 24
M  V30 24 1 24 25
M  V30 25 2 25 26
M  V30 26 2 20 27
M  V30 27 1 11 28
M  V30 28 2 28 29
M  V30 29 1 29 30
M  V30 30 2 30 31
M  V30 31 1 31 32
M  V30 32 2 32 33
M  V30 33 1 33 9
M  V30 34 1 27 16
M  V30 35 1 33 28
M  V30 36 1 26 21
M  V30 37 1 1 34
M  V30 38 1 1 35
M  V30 39 1 1 36
M  V30 40 1 2 37
M  V30 41 1 2 38
M  V30 42 1 4 39
M  V30 43 1 4 40
M  V30 44 1 5 41
M  V30 45 1 5 42
M  V30 46 1 5 43
M  V30 47 1 6 44
M  V30 48 1 6 45
M  V30 49 1 7 46
M  V30 50 1 7 47
M  V30 51 1 8 48
M  V30 52 1 8 49
M  V30 53 1 10 50
M  V30 54 1 12 51
M  V30 55 1 15 52
M  V30 56 1 17 53
M  V30 57 1 19 54
M  V30 58 1 22 55
M  V30 59 1 23 56
M  V30 60 1 24 57
M  V30 61 1 25 58
M  V30 62 1 26 59
M  V30 63 1 29 60
M  V30 64 1 30 61
M  V30 65 1 31 62
M  V30 66 1 32 63
M  V30 END BOND
M  V30 END CTAB
M  END
>  <Dataset>  (73) 
ChEMBL_Kinases

>  <Ligand_Instance>  (73) 
nan

>  <PDB_ID>  (73) 
nan

>  <Standardized_SMILES>  (73) 
CCN(CC)CCCn1cc(NC(=O)Nc2cncc(-c3ccccc3)n2)c2ccccc21

>  <Name>  (73) 
nan

>  <Pocket>  (73) 
nan

>  <ATP_Site>  (73) 
nan

>  <Peripheral>  (73) 
nan

>  <Num_H_Atoms_ProtBoundConf>  (73) 
nan

>  <Num_Resolved_Atoms>  (73) 
nan

>  <Num_Not_Resolved_Atoms>  (73) 
nan

$$$$
CHEMBL1766424
     RDKit          3D

  0  0  0  0  0  0  0  0  0  0999 V3000
M  V30 BEGIN CTAB
M  V30 COUNTS 63 66 0 0 0
M  V30 BEGIN ATOM
M  V30 1 C 4.119427 -1.458959 1.922098 0
M  V30 2 C 3.725493 -1.698506 0.507554 0
M  V30 3 N 4.227883 -0.778081 -0.457055 0
M  V30 4 C 5.633979 -0.899592 -0.661305 0
M  V30 5 C 6.522785 -0.473426 0.456997 0
M  V30 6 C 3.515358 -0.776237 -1.697773 0
M  V30 7 C 2.119428 -0.232987 -1.610749 0
M  V30 8 C 2.082769 1.209957 -1.126208 0
M  V30 9 N 0.707876 1.670106 -1.060811 0
M  V30 10 C -0.064318 1.529821 0.056775 0
M  V30 11 C -1.316424 2.073839 -0.244166 0
M  V30 12 N -2.323326 2.040875 0.795252 0
M  V30 13 C -3.137518 0.851203 0.817449 0
M  V30 14 O -2.837672 0.030728 -0.080403 0
M  V30 15 N -4.174686 0.639161 1.770110 0
M  V30 16 C -4.847602 -0.628486 1.604368 0
M  V30 17 C -5.964453 -0.921417 0.848610 0
M  V30 18 C -6.412954 -2.226379 0.852460 0
M  V30 19 N -5.753259 -3.140922 1.580627 0
M  V30 20 C -4.677994 -2.870076 2.311496 0
M  V30 21 C -3.948490 -3.879774 3.105680 0
M  V30 22 C -4.352914 -5.221033 3.127376 0
M  V30 23 C -3.608500 -6.079512 3.886942 0
M  V30 24 C -2.503296 -5.739676 4.627357 0
M  V30 25 C -2.106049 -4.409830 4.603852 0
M  V30 26 C -2.848108 -3.532831 3.841506 0
M  V30 27 N -4.226059 -1.608325 2.321872 0
M  V30 28 C -1.278912 2.534749 -1.543363 0
M  V30 29 C -2.312716 3.142809 -2.223521 0
M  V30 30 C -1.989244 3.511705 -3.535095 0
M  V30 31 C -0.719781 3.265932 -4.066785 0
M  V30 32 C 0.264345 2.651273 -3.322383 0
M  V30 33 C -0.011586 2.272680 -2.028770 0
M  V30 34 H 3.218905 -1.638589 2.588800 0
M  V30 35 H 4.901128 -2.183991 2.286715 0
M  V30 36 H 4.424041 -0.428437 2.170623 0
M  V30 37 H 4.092361 -2.739235 0.234951 0
M  V30 38 H 2.609626 -1.792772 0.453023 0
M  V30 39 H 5.838417 -1.983148 -0.904142 0
M  V30 40 H 5.901732 -0.332145 -1.592642 0
M  V30 41 H 6.757111 -1.312767 1.134394 0
M  V30 42 H 6.232021 0.462335 0.947074 0
M  V30 43 H 7.533419 -0.233672 -0.017489 0
M  V30 44 H 4.087272 -0.245284 -2.498810 0
M  V30 45 H 3.408916 -1.822518 -2.091778 0
M  V30 46 H 1.684598 -0.317807 -2.629703 0
M  V30 47 H 1.494955 -0.849709 -0.959818 0
M  V30 48 H 2.626131 1.805680 -1.914395 0
M  V30 49 H 2.537975 1.315517 -0.136783 0
M  V30 50 H 0.282805 1.068514 0.986831 0
M  V30 51 H -2.569489 2.751787 1.554732 0
M  V30 52 H -4.362472 1.387469 2.496083 0
M  V30 53 H -6.362799 -0.062673 0.329887 0
M  V30 54 H -7.277148 -2.416220 0.255664 0
M  V30 55 H -5.219613 -5.505686 2.549398 0
M  V30 56 H -3.885281 -7.132506 3.932822 0
M  V30 57 H -1.925973 -6.438656 5.223033 0
M  V30 58 H -1.239779 -4.021383 5.153726 0
M  V30 59 H -2.561400 -2.478468 3.801225 0
M  V30 60 H -3.279811 3.316066 -1.784100 0
M  V30 61 H -2.790366 4.001578 -4.109351 0
M  V30 62 H -0.557876 3.583414 -5.086747 0
M  V30 63 H 1.241643 2.461949 -3.732922 0
M  V30 END ATOM
M  V30 BEGIN BOND
M  V30 1 1 1 2
M  V30 2 1 2 3
M  V30 3 1 3 4
M  V30 4 1 4 5
M  V30 5 1 3 6
M  V30 6 1 6 7
M  V30 7 1 7 8
M  V30 8 1 8 9
M  V30 9 1 9 10
M  V30 10 2 10 11
M  V30 11 1 11 12
M  V30 12 1 12 13
M  V30 13 2 13 14
M  V30 14 1 13 15
M  V30 15 1 15 16
M  V30 16 2 16 17
M  V30 17 1 17 18
M  V30 18 2 18 19
M  V30 19 1 19 20
M  V30 20 1 20 21
M  V30 21 2 21 22
M  V30 22 1 22 23
M  V30 23 2 23 24
M  V30 24 1 24 25
M  V30 25 2 25 26
M  V30 26 2 20 27
M  V30 27 1 11 28
M  V30 28 2 28 29
M  V30 29 1 29 30
M  V30 30 2 30 31
M  V30 31 1 31 32
M  V30 32 2 32 33
M  V30 33 1 33 9
M  V30 34 1 27 16
M  V30 35 1 33 28
M  V30 36 1 26 21
M  V30 37 1 1 34
M  V30 38 1 1 35
M  V30 39 1 1 36
M  V30 40 1 2 37
M  V30 41 1 2 38
M  V30 42 1 4 39
M  V30 43 1 4 40
M  V30 44 1 5 41
M  V30 45 1 5 42
M  V30 46 1 5 43
M  V30 47 1 6 44
M  V30 48 1 6 45
M  V30 49 1 7 46
M  V30 50 1 7 47
M  V30 51 1 8 48
M  V30 52 1 8 49
M  V30 53 1 10 50
M  V30 54 1 12 51
M  V30 55 1 15 52
M  V30 56 1 17 53
M  V30 57 1 18 54
M  V30 58 1 22 55
M  V30 59 1 23 56
M  V30 60 1 24 57
M  V30 61 1 25 58
M  V30 62 1 26 59
M  V30 63 1 29 60
M  V30 64 1 30 61
M  V30 65 1 31 62
M  V30 66 1 32 63
M  V30 END BOND
M  V30 END CTAB
M  END
>  <Dataset>  (74) 
ChEMBL_Kinases

>  <Ligand_Instance>  (74) 
nan

>  <PDB_ID>  (74) 
nan

>  <Standardized_SMILES>  (74) 
CCN(CC)CCCn1cc(NC(=O)Nc2ccnc(-c3ccccc3)n2)c2ccccc21

>  <Name>  (74) 
nan

>  <Pocket>  (74) 
nan

>  <ATP_Site>  (74) 
nan

>  <Peripheral>  (74) 
nan

>  <Num_H_Atoms_ProtBoundConf>  (74) 
nan

>  <Num_Resolved_Atoms>  (74) 
nan

>  <Num_Not_Resolved_Atoms>  (74) 
nan

$$$$
CHEMBL1766423
     RDKit          3D

  0  0  0  0  0  0  0  0  0  0999 V3000
M  V30 BEGIN CTAB
M  V30 COUNTS 64 67 0 0 0
M  V30 BEGIN ATOM
M  V30 1 C 3.254008 -2.213883 3.038173 0
M  V30 2 C 3.337594 -2.256687 1.552601 0
M  V30 3 N 4.206904 -1.357407 0.907192 0
M  V30 4 C 5.616241 -1.545325 1.079981 0
M  V30 5 C 6.079669 -1.224952 2.470672 0
M  V30 6 C 3.903006 -1.012117 -0.438247 0
M  V30 7 C 2.668024 -0.188474 -0.616979 0
M  V30 8 C 2.744773 1.139989 0.134688 0
M  V30 9 N 1.491432 1.830007 -0.115932 0
M  V30 10 C 0.404901 1.638553 0.688957 0
M  V30 11 C -0.649570 2.423329 0.198367 0
M  V30 12 N -1.920874 2.383009 0.891347 0
M  V30 13 C -2.718010 1.331966 0.311538 0
M  V30 14 O -2.266301 0.669588 -0.623569 0
M  V30 15 N -4.024277 0.984034 0.744658 0
M  V30 16 C -4.756769 -0.081502 0.110367 0
M  V30 17 C -5.672693 -0.022050 -0.948005 0
M  V30 18 C -6.207200 -1.226685 -1.353709 0
M  V30 19 C -5.852146 -2.413147 -0.744823 0
M  V30 20 C -4.946771 -2.449350 0.297210 0
M  V30 21 C -4.567033 -3.703880 0.934578 0
M  V30 22 C -5.046677 -4.949726 0.597661 0
M  V30 23 C -4.617612 -6.072511 1.259655 0
M  V30 24 C -3.685858 -6.017427 2.295660 0
M  V30 25 C -3.204743 -4.769366 2.633724 0
M  V30 26 C -3.645075 -3.642222 1.958550 0
M  V30 27 N -4.440189 -1.262107 0.674561 0
M  V30 28 C -0.171799 3.083063 -0.910024 0
M  V30 29 C -0.847199 3.956651 -1.710551 0
M  V30 30 C -0.128595 4.488678 -2.775114 0
M  V30 31 C 1.200259 4.112971 -2.961331 0
M  V30 32 C 1.858760 3.224367 -2.131955 0
M  V30 33 C 1.141170 2.700184 -1.077819 0
M  V30 34 H 2.213274 -2.398053 3.414924 0
M  V30 35 H 3.823061 -3.097974 3.441587 0
M  V30 36 H 3.636820 -1.302517 3.518073 0
M  V30 37 H 3.535274 -3.320059 1.247778 0
M  V30 38 H 2.302250 -2.060723 1.168290 0
M  V30 39 H 5.916623 -2.614579 0.836440 0
M  V30 40 H 6.211449 -0.949811 0.329775 0
M  V30 41 H 5.908120 -2.023290 3.214052 0
M  V30 42 H 5.644430 -0.262839 2.808560 0
M  V30 43 H 7.199374 -1.037584 2.444937 0
M  V30 44 H 4.756289 -0.580738 -0.997707 0
M  V30 45 H 3.683475 -1.989974 -0.963568 0
M  V30 46 H 2.546972 -0.016878 -1.706680 0
M  V30 47 H 1.789931 -0.793125 -0.319497 0
M  V30 48 H 3.560570 1.709892 -0.348311 0
M  V30 49 H 2.904434 0.945245 1.209510 0
M  V30 50 H 0.382326 0.979304 1.563776 0
M  V30 51 H -2.344894 2.932979 1.678893 0
M  V30 52 H -4.335286 1.593024 1.543756 0
M  V30 53 H -5.822927 0.990194 -1.294477 0
M  V30 54 H -6.910151 -1.111568 -2.175422 0
M  V30 55 H -6.324448 -3.302505 -1.131944 0
M  V30 56 H -5.770649 -5.014916 -0.201939 0
M  V30 57 H -4.986921 -7.057523 1.003056 0
M  V30 58 H -3.339274 -6.875429 2.821913 0
M  V30 59 H -2.478717 -4.636677 3.425660 0
M  V30 60 H -3.241134 -2.685157 2.255428 0
M  V30 61 H -1.880059 4.216272 -1.524915 0
M  V30 62 H -0.597597 5.187462 -3.448320 0
M  V30 63 H 1.799308 4.502855 -3.777141 0
M  V30 64 H 2.891196 2.931744 -2.274855 0
M  V30 END ATOM
M  V30 BEGIN BOND
M  V30 1 1 1 2
M  V30 2 1 2 3
M  V30 3 1 3 4
M  V30 4 1 4 5
M  V30 5 1 3 6
M  V30 6 1 6 7
M  V30 7 1 7 8
M  V30 8 1 8 9
M  V30 9 1 9 10
M  V30 10 2 10 11
M  V30 11 1 11 12
M  V30 12 1 12 13
M  V30 13 2 13 14
M  V30 14 1 13 15
M  V30 15 1 15 16
M  V30 16 2 16 17
M  V30 17 1 17 18
M  V30 18 2 18 19
M  V30 19 1 19 20
M  V30 20 1 20 21
M  V30 21 2 21 22
M  V30 22 1 22 23
M  V30 23 2 23 24
M  V30 24 1 24 25
M  V30 25 2 25 26
M  V30 26 2 20 27
M  V30 27 1 11 28
M  V30 28 2 28 29
M  V30 29 1 29 30
M  V30 30 2 30 31
M  V30 31 1 31 32
M  V30 32 2 32 33
M  V30 33 1 33 9
M  V30 34 1 27 16
M  V30 35 1 33 28
M  V30 36 1 26 21
M  V30 37 1 1 34
M  V30 38 1 1 35
M  V30 39 1 1 36
M  V30 40 1 2 37
M  V30 41 1 2 38
M  V30 42 1 4 39
M  V30 43 1 4 40
M  V30 44 1 5 41
M  V30 45 1 5 42
M  V30 46 1 5 43
M  V30 47 1 6 44
M  V30 48 1 6 45
M  V30 49 1 7 46
M  V30 50 1 7 47
M  V30 51 1 8 48
M  V30 52 1 8 49
M  V30 53 1 10 50
M  V30 54 1 12 51
M  V30 55 1 15 52
M  V30 56 1 17 53
M  V30 57 1 18 54
M  V30 58 1 19 55
M  V30 59 1 22 56
M  V30 60 1 23 57
M  V30 61 1 24 58
M  V30 62 1 25 59
M  V30 63 1 26 60
M  V30 64 1 29 61
M  V30 65 1 30 62
M  V30 66 1 31 63
M  V30 67 1 32 64
M  V30 END BOND
M  V30 END CTAB
M  END
>  <Dataset>  (75) 
ChEMBL_Kinases

>  <Ligand_Instance>  (75) 
nan

>  <PDB_ID>  (75) 
nan

>  <Standardized_SMILES>  (75) 
CCN(CC)CCCn1cc(NC(=O)Nc2cccc(-c3ccccc3)n2)c2ccccc21

>  <Name>  (75) 
nan

>  <Pocket>  (75) 
nan

>  <ATP_Site>  (75) 
nan

>  <Peripheral>  (75) 
nan

>  <Num_H_Atoms_ProtBoundConf>  (75) 
nan

>  <Num_Resolved_Atoms>  (75) 
nan

>  <Num_Not_Resolved_Atoms>  (75) 
nan

$$$$
CHEMBL1766422
     RDKit          3D

  0  0  0  0  0  0  0  0  0  0999 V3000
M  V30 BEGIN CTAB
M  V30 COUNTS 57 60 0 0 0
M  V30 BEGIN ATOM
M  V30 1 C 2.622165 -4.523659 2.712324 0
M  V30 2 N 3.346806 -3.315959 2.512804 0
M  V30 3 C 4.709616 -3.347881 2.887531 0
M  V30 4 C 2.616460 -2.124181 2.606738 0
M  V30 5 C 3.306380 -0.839287 2.389840 0
M  V30 6 C 3.936249 -0.625964 1.048428 0
M  V30 7 N 3.033929 -0.666193 -0.065089 0
M  V30 8 C 2.370824 0.437106 -0.477404 0
M  V30 9 C 1.542154 0.182696 -1.549007 0
M  V30 10 N 0.692765 1.086235 -2.250780 0
M  V30 11 C -0.619640 1.226498 -1.778503 0
M  V30 12 O -0.964574 0.553902 -0.773705 0
M  V30 13 N -1.522390 2.093399 -2.410331 0
M  V30 14 C -2.864818 2.256917 -1.954188 0
M  V30 15 N -3.712745 3.094942 -2.576250 0
M  V30 16 C -4.986042 3.288129 -2.191086 0
M  V30 17 C -5.396249 2.559319 -1.087551 0
M  V30 18 C -4.565156 1.687282 -0.415295 0
M  V30 19 C -4.971219 0.906701 0.749710 0
M  V30 20 C -4.017082 0.078876 1.305812 0
M  V30 21 C -4.336739 -0.695589 2.420212 0
M  V30 22 C -5.609186 -0.618633 2.948735 0
M  V30 23 C -6.580890 0.203318 2.408471 0
M  V30 24 C -6.216807 0.957894 1.296808 0
M  V30 25 N -3.301037 1.554507 -0.870630 0
M  V30 26 C 1.689839 -1.159297 -1.831133 0
M  V30 27 C 1.164077 -2.033083 -2.758713 0
M  V30 28 C 1.513235 -3.371787 -2.806328 0
M  V30 29 C 2.429819 -3.811829 -1.868229 0
M  V30 30 C 2.965817 -2.951697 -0.932820 0
M  V30 31 C 2.601510 -1.622200 -0.905655 0
M  V30 32 H 1.779909 -4.592574 1.994876 0
M  V30 33 H 3.350862 -5.368062 2.585887 0
M  V30 34 H 2.237553 -4.610983 3.749170 0
M  V30 35 H 4.855250 -3.901124 3.861934 0
M  V30 36 H 5.282319 -3.951676 2.154061 0
M  V30 37 H 5.125777 -2.364846 3.045328 0
M  V30 38 H 2.084861 -2.067338 3.576690 0
M  V30 39 H 1.779957 -2.184680 1.847498 0
M  V30 40 H 2.541235 -0.031696 2.611791 0
M  V30 41 H 4.069876 -0.638780 3.183167 0
M  V30 42 H 4.684505 -1.455499 0.878585 0
M  V30 43 H 4.459044 0.349347 1.059157 0
M  V30 44 H 2.427356 1.435711 -0.070243 0
M  V30 45 H 0.963239 1.649243 -3.082997 0
M  V30 46 H -1.216080 2.642778 -3.242997 0
M  V30 47 H -5.668405 3.961856 -2.690768 0
M  V30 48 H -6.409492 2.684979 -0.746123 0
M  V30 49 H -2.995679 -0.056944 0.972512 0
M  V30 50 H -3.617132 -1.373895 2.906801 0
M  V30 51 H -5.846127 -1.223907 3.813042 0
M  V30 52 H -7.573635 0.267545 2.816002 0
M  V30 53 H -6.970072 1.594465 0.878268 0
M  V30 54 H 0.463654 -1.596036 -3.441046 0
M  V30 55 H 1.024055 -3.929107 -3.580375 0
M  V30 56 H 2.671123 -4.865505 -1.945858 0
M  V30 57 H 3.680992 -3.347504 -0.227991 0
M  V30 END ATOM
M  V30 BEGIN BOND
M  V30 1 1 1 2
M  V30 2 1 2 3
M  V30 3 1 2 4
M  V30 4 1 4 5
M  V30 5 1 5 6
M  V30 6 1 6 7
M  V30 7 1 7 8
M  V30 8 2 8 9
M  V30 9 1 9 10
M  V30 10 1 10 11
M  V30 11 2 11 12
M  V30 12 1 11 13
M  V30 13 1 13 14
M  V30 14 2 14 15
M  V30 15 1 15 16
M  V30 16 2 16 17
M  V30 17 1 17 18
M  V30 18 1 18 19
M  V30 19 2 19 20
M  V30 20 1 20 21
M  V30 21 2 21 22
M  V30 22 1 22 23
M  V30 23 2 23 24
M  V30 24 2 18 25
M  V30 25 1 9 26
M  V30 26 2 26 27
M  V30 27 1 27 28
M  V30 28 2 28 29
M  V30 29 1 29 30
M  V30 30 2 30 31
M  V30 31 1 31 7
M  V30 32 1 25 14
M  V30 33 1 31 26
M  V30 34 1 24 19
M  V30 35 1 1 32
M  V30 36 1 1 33
M  V30 37 1 1 34
M  V30 38 1 3 35
M  V30 39 1 3 36
M  V30 40 1 3 37
M  V30 41 1 4 38
M  V30 42 1 4 39
M  V30 43 1 5 40
M  V30 44 1 5 41
M  V30 45 1 6 42
M  V30 46 1 6 43
M  V30 47 1 8 44
M  V30 48 1 10 45
M  V30 49 1 13 46
M  V30 50 1 16 47
M  V30 51 1 17 48
M  V30 52 1 20 49
M  V30 53 1 21 50
M  V30 54 1 22 51
M  V30 55 1 23 52
M  V30 56 1 24 53
M  V30 57 1 27 54
M  V30 58 1 28 55
M  V30 59 1 29 56
M  V30 60 1 30 57
M  V30 END BOND
M  V30 END CTAB
M  END
>  <Dataset>  (76) 
ChEMBL_Kinases

>  <Ligand_Instance>  (76) 
nan

>  <PDB_ID>  (76) 
nan

>  <Standardized_SMILES>  (76) 
CN(C)CCCn1cc(NC(=O)Nc2nccc(-c3ccccc3)n2)c2ccccc21

>  <Name>  (76) 
nan

>  <Pocket>  (76) 
nan

>  <ATP_Site>  (76) 
nan

>  <Peripheral>  (76) 
nan

>  <Num_H_Atoms_ProtBoundConf>  (76) 
nan

>  <Num_Resolved_Atoms>  (76) 
nan

>  <Num_Not_Resolved_Atoms>  (76) 
nan

$$$$
CHEMBL1765751
     RDKit          3D

  0  0  0  0  0  0  0  0  0  0999 V3000
M  V30 BEGIN CTAB
M  V30 COUNTS 67 70 0 0 0
M  V30 BEGIN ATOM
M  V30 1 C 2.873967 1.121584 3.795543 0
M  V30 2 C 2.845653 0.413946 2.433176 0 CFG=2
M  V30 3 C 2.366385 1.412242 1.393727 0
M  V30 4 C 2.076411 0.816416 0.070464 0 CFG=1
M  V30 5 N 3.234289 0.781978 -0.843861 0
M  V30 6 C 4.467361 0.036564 -0.626439 0
M  V30 7 C 3.165381 1.503518 -2.092073 0
M  V30 8 O 4.205320 1.447928 -2.850274 0
M  V30 9 C 2.193409 2.348311 -2.818571 0
M  V30 10 C 1.683380 1.673385 -4.070678 0
M  V30 11 C 0.718558 2.622649 -4.746568 0
M  V30 12 C 0.875488 0.433526 -3.719830 0
M  V30 13 C 2.776083 1.326217 -5.022647 0
M  V30 14 C 1.476977 -0.541264 0.186334 0
M  V30 15 N 0.867965 -0.720572 1.480983 0
M  V30 16 C -0.570440 -0.844761 1.462432 0
M  V30 17 C -1.405470 -1.712294 2.133684 0
M  V30 18 C -2.802386 -1.780437 2.056782 0
M  V30 19 C -3.243438 -2.909518 2.852228 0
M  V30 20 C -2.569742 -3.738024 3.715728 0
M  V30 21 C -3.332786 -4.757022 4.239334 0
M  V30 22 C -4.653281 -4.997166 3.977125 0
M  V30 23 C -5.479521 -5.986425 4.454519 0
M  V30 24 N -5.177597 -7.045764 5.355428 0
M  V30 25 N -6.696311 -5.763482 3.868953 0
M  V30 26 N -6.585233 -4.677930 3.076752 0
M  V30 27 C -5.348384 -4.153530 3.099613 0
M  V30 28 C -4.582531 -3.120999 2.564195 0
M  V30 29 N -3.197248 -0.873559 1.238782 0
M  V30 30 C -2.540919 0.021401 0.527673 0
M  V30 31 N -3.341929 0.862278 -0.274738 0
M  V30 32 N -1.200135 0.049451 0.631659 0
M  V30 33 C 1.888847 -0.741391 2.545259 0
M  V30 34 H 3.565269 0.586139 4.480294 0
M  V30 35 H 3.113005 2.184267 3.650949 0
M  V30 36 H 1.860866 1.062277 4.242188 0
M  V30 37 H 3.885512 0.107663 2.235020 0
M  V30 38 H 1.419911 1.917150 1.783177 0
M  V30 39 H 3.114293 2.217976 1.315798 0
M  V30 40 H 1.331643 1.451459 -0.487942 0
M  V30 41 H 4.789751 -0.479147 -1.566329 0
M  V30 42 H 4.290259 -0.774839 0.100365 0
M  V30 43 H 5.278769 0.716969 -0.365503 0
M  V30 44 H 2.661157 3.326556 -3.023332 0
M  V30 45 H 1.324079 2.571327 -2.168717 0
M  V30 46 H 0.837010 2.571167 -5.845087 0
M  V30 47 H 0.938988 3.693752 -4.471596 0
M  V30 48 H -0.331330 2.442132 -4.429919 0
M  V30 49 H 0.476765 0.032141 -4.666050 0
M  V30 50 H 1.476428 -0.349887 -3.248078 0
M  V30 51 H -0.028670 0.727903 -3.128289 0
M  V30 52 H 2.387717 1.242619 -6.053972 0
M  V30 53 H 3.536033 2.132193 -4.984586 0
M  V30 54 H 3.289943 0.382070 -4.749392 0
M  V30 55 H 2.324063 -1.279300 0.049190 0
M  V30 56 H 0.733874 -0.754854 -0.619701 0
M  V30 57 H -0.655457 -2.293761 2.697699 0
M  V30 58 H -1.543091 -3.505565 3.904709 0
M  V30 59 H -2.791487 -5.419853 4.923651 0
M  V30 60 H -5.548636 -7.240057 6.314695 0
M  V30 61 H -4.485833 -7.733832 5.001829 0
M  V30 62 H -7.316132 -4.219488 2.472386 0
M  V30 63 H -5.243986 -2.537867 1.903699 0
M  V30 64 H -4.169526 1.385596 0.026561 0
M  V30 65 H -3.369254 1.176694 -1.256918 0
M  V30 66 H 2.500111 -1.680856 2.466134 0
M  V30 67 H 1.370595 -0.666210 3.507150 0
M  V30 END ATOM
M  V30 BEGIN BOND
M  V30 1 1 1 2
M  V30 2 1 2 3
M  V30 3 1 3 4
M  V30 4 1 4 5
M  V30 5 1 5 6
M  V30 6 1 5 7
M  V30 7 2 7 8
M  V30 8 1 7 9
M  V30 9 1 9 10
M  V30 10 1 10 11
M  V30 11 1 10 12
M  V30 12 1 10 13
M  V30 13 1 4 14
M  V30 14 1 14 15
M  V30 15 1 15 16
M  V30 16 2 16 17
M  V30 17 1 17 18
M  V30 18 1 18 19
M  V30 19 2 19 20
M  V30 20 1 20 21
M  V30 21 2 21 22
M  V30 22 1 22 23
M  V30 23 1 23 24
M  V30 24 2 23 25
M  V30 25 1 25 26
M  V30 26 1 26 27
M  V30 27 2 27 28
M  V30 28 2 18 29
M  V30 29 1 29 30
M  V30 30 1 30 31
M  V30 31 2 30 32
M  V30 32 1 15 33
M  V30 33 1 33 2
M  V30 34 1 32 16
M  V30 35 1 28 19
M  V30 36 1 27 22
M  V30 37 1 1 34
M  V30 38 1 1 35
M  V30 39 1 1 36
M  V30 40 1 2 37 CFG=3
M  V30 41 1 3 38
M  V30 42 1 3 39
M  V30 43 1 4 40 CFG=3
M  V30 44 1 6 41
M  V30 45 1 6 42
M  V30 46 1 6 43
M  V30 47 1 9 44
M  V30 48 1 9 45
M  V30 49 1 11 46
M  V30 50 1 11 47
M  V30 51 1 11 48
M  V30 52 1 12 49
M  V30 53 1 12 50
M  V30 54 1 12 51
M  V30 55 1 13 52
M  V30 56 1 13 53
M  V30 57 1 13 54
M  V30 58 1 14 55
M  V30 59 1 14 56
M  V30 60 1 17 57
M  V30 61 1 20 58
M  V30 62 1 21 59
M  V30 63 1 24 60
M  V30 64 1 24 61
M  V30 65 1 26 62
M  V30 66 1 28 63
M  V30 67 1 31 64
M  V30 68 1 31 65
M  V30 69 1 33 66
M  V30 70 1 33 67
M  V30 END BOND
M  V30 END CTAB
M  END
>  <Dataset>  (77) 
ChEMBL_Kinases

>  <Ligand_Instance>  (77) 
nan

>  <PDB_ID>  (77) 
nan

>  <Standardized_SMILES>  (77) 
C[C@@H]1C[C@@H](N(C)C(=O)CC(C)(C)C)CN(c2cc(-c3ccc4c(N)n[nH]c4c3)nc(N)n2)C1

>  <Name>  (77) 
nan

>  <Pocket>  (77) 
nan

>  <ATP_Site>  (77) 
nan

>  <Peripheral>  (77) 
nan

>  <Num_H_Atoms_ProtBoundConf>  (77) 
nan

>  <Num_Resolved_Atoms>  (77) 
nan

>  <Num_Not_Resolved_Atoms>  (77) 
nan

$$$$
CHEMBL1765750
     RDKit          3D

  0  0  0  0  0  0  0  0  0  0999 V3000
M  V30 BEGIN CTAB
M  V30 COUNTS 68 71 0 0 0
M  V30 BEGIN ATOM
M  V30 1 C 0.311556 1.486681 4.658310 0
M  V30 2 N -0.072710 2.435251 3.605664 0
M  V30 3 C 0.112790 1.943996 2.291199 0
M  V30 4 N 0.946341 2.307080 1.473190 0
M  V30 5 C 1.685117 2.517744 0.536086 0
M  V30 6 C 2.553779 2.753455 -0.586059 0
M  V30 7 C 2.885754 2.339840 -1.832070 0
M  V30 8 C 3.867228 2.990892 -2.528791 0
M  V30 9 C 4.554038 4.068522 -2.026865 0
M  V30 10 C 5.552636 4.778937 -2.654620 0
M  V30 11 N 6.138780 4.611009 -3.936904 0
M  V30 12 N 5.879090 5.708965 -1.748146 0
M  V30 13 N 5.156436 5.604782 -0.644021 0
M  V30 14 C 4.290101 4.581872 -0.744847 0
M  V30 15 C 3.268318 3.866788 -0.077399 0
M  V30 16 C 0.923008 1.449325 -0.124604 0
M  V30 17 C -0.168838 0.661773 0.349467 0
M  V30 18 N -0.948146 -0.392138 -0.276058 0
M  V30 19 C -0.797128 -0.692816 -1.683634 0
M  V30 20 C -2.017273 -1.410884 -2.223050 0 CFG=2
M  V30 21 C -3.154471 -0.402404 -2.454476 0
M  V30 22 C -2.478265 -2.539683 -1.372421 0
M  V30 23 C -2.125854 -2.451120 0.069760 0 CFG=1
M  V30 24 N -1.104060 -3.433925 0.362395 0
M  V30 25 C 0.230088 -3.441001 -0.226108 0
M  V30 26 C -1.419484 -4.473047 1.303754 0
M  V30 27 O -0.567480 -5.380098 1.585964 0
M  V30 28 O -2.631849 -4.536407 1.937553 0
M  V30 29 C -2.962264 -5.559797 2.881835 0
M  V30 30 C -2.008439 -5.547305 4.047162 0
M  V30 31 C -2.998574 -6.912747 2.256537 0
M  V30 32 C -4.335823 -5.182094 3.417766 0
M  V30 33 C -1.836708 -1.088343 0.577361 0
M  V30 34 N -0.542874 0.983063 1.641152 0
M  V30 35 H 1.380446 1.644659 4.855003 0
M  V30 36 H 0.182555 0.429831 4.322304 0
M  V30 37 H -0.318249 1.643974 5.559898 0
M  V30 38 H -0.431948 3.357896 3.936315 0
M  V30 39 H 2.318460 1.501789 -2.150106 0
M  V30 40 H 4.049372 2.568134 -3.510967 0
M  V30 41 H 6.282112 5.382802 -4.648776 0
M  V30 42 H 6.506589 3.700395 -4.335775 0
M  V30 43 H 5.143752 6.155034 0.243071 0
M  V30 44 H 3.212523 4.409005 0.887792 0
M  V30 45 H 0.907424 0.916821 -1.135778 0
M  V30 46 H -0.798336 0.306828 -2.209335 0
M  V30 47 H 0.156422 -1.150504 -1.951294 0
M  V30 48 H -1.750372 -1.790563 -3.223227 0
M  V30 49 H -4.134433 -0.871679 -2.521344 0
M  V30 50 H -2.969495 0.175311 -3.384165 0
M  V30 51 H -3.056027 0.328286 -1.620668 0
M  V30 52 H -2.212383 -3.504106 -1.845332 0
M  V30 53 H -3.609501 -2.525793 -1.422001 0
M  V30 54 H -3.006798 -2.803056 0.709964 0
M  V30 55 H 0.743026 -2.471414 0.012699 0
M  V30 56 H 0.183827 -3.598792 -1.320733 0
M  V30 57 H 0.863353 -4.217614 0.239799 0
M  V30 58 H -2.526526 -5.320347 5.004350 0
M  V30 59 H -1.226081 -4.760439 3.937861 0
M  V30 60 H -1.523017 -6.560923 4.177278 0
M  V30 61 H -2.006359 -7.386649 2.160337 0
M  V30 62 H -3.680891 -7.597974 2.827821 0
M  V30 63 H -3.421418 -6.801114 1.249861 0
M  V30 64 H -4.399535 -4.101599 3.640597 0
M  V30 65 H -5.101290 -5.464173 2.663873 0
M  V30 66 H -4.585816 -5.753113 4.333089 0
M  V30 67 H -1.383441 -1.163159 1.592249 0
M  V30 68 H -2.789990 -0.504782 0.605024 0
M  V30 END ATOM
M  V30 BEGIN BOND
M  V30 1 1 1 2
M  V30 2 1 2 3
M  V30 3 2 3 4
M  V30 4 1 4 5
M  V30 5 1 5 6
M  V30 6 2 6 7
M  V30 7 1 7 8
M  V30 8 2 8 9
M  V30 9 1 9 10
M  V30 10 1 10 11
M  V30 11 2 10 12
M  V30 12 1 12 13
M  V30 13 1 13 14
M  V30 14 2 14 15
M  V30 15 2 5 16
M  V30 16 1 16 17
M  V30 17 1 17 18
M  V30 18 1 18 19
M  V30 19 1 19 20
M  V30 20 1 20 21
M  V30 21 1 20 22
M  V30 22 1 22 23
M  V30 23 1 23 24
M  V30 24 1 24 25
M  V30 25 1 24 26
M  V30 26 2 26 27
M  V30 27 1 26 28
M  V30 28 1 28 29
M  V30 29 1 29 30
M  V30 30 1 29 31
M  V30 31 1 29 32
M  V30 32 1 23 33
M  V30 33 2 17 34
M  V30 34 1 34 3
M  V30 35 1 15 6
M  V30 36 1 33 18
M  V30 37 1 14 9
M  V30 38 1 1 35
M  V30 39 1 1 36
M  V30 40 1 1 37
M  V30 41 1 2 38
M  V30 42 1 7 39
M  V30 43 1 8 40
M  V30 44 1 11 41
M  V30 45 1 11 42
M  V30 46 1 13 43
M  V30 47 1 15 44
M  V30 48 1 16 45
M  V30 49 1 19 46
M  V30 50 1 19 47
M  V30 51 1 20 48 CFG=3
M  V30 52 1 21 49
M  V30 53 1 21 50
M  V30 54 1 21 51
M  V30 55 1 22 52
M  V30 56 1 22 53
M  V30 57 1 23 54 CFG=1
M  V30 58 1 25 55
M  V30 59 1 25 56
M  V30 60 1 25 57
M  V30 61 1 30 58
M  V30 62 1 30 59
M  V30 63 1 30 60
M  V30 64 1 31 61
M  V30 65 1 31 62
M  V30 66 1 31 63
M  V30 67 1 32 64
M  V30 68 1 32 65
M  V30 69 1 32 66
M  V30 70 1 33 67
M  V30 71 1 33 68
M  V30 END BOND
M  V30 END CTAB
M  END
>  <Dataset>  (78) 
ChEMBL_Kinases

>  <Ligand_Instance>  (78) 
nan

>  <PDB_ID>  (78) 
nan

>  <Standardized_SMILES>  (78) 
CNc1nc(-c2ccc3c(N)n[nH]c3c2)cc(N2C[C@H](C)C[C@@H](N(C)C(=O)OC(C)(C)C)C2)n1

>  <Name>  (78) 
nan

>  <Pocket>  (78) 
nan

>  <ATP_Site>  (78) 
nan

>  <Peripheral>  (78) 
nan

>  <Num_H_Atoms_ProtBoundConf>  (78) 
nan

>  <Num_Resolved_Atoms>  (78) 
nan

>  <Num_Not_Resolved_Atoms>  (78) 
nan

$$$$
CHEMBL1765744
     RDKit          3D

  0  0  0  0  0  0  0  0  0  0999 V3000
M  V30 BEGIN CTAB
M  V30 COUNTS 69 73 0 0 0
M  V30 BEGIN ATOM
M  V30 1 C 2.385124 0.926780 4.410066 0
M  V30 2 C 1.751665 0.006185 3.383880 0
M  V30 3 C 2.494517 0.006311 2.087400 0 CFG=2
M  V30 4 C 2.553272 1.329890 1.416087 0
M  V30 5 O 3.392286 1.401120 0.360687 0
M  V30 6 C 3.431978 0.337966 -0.494302 0 CFG=2
M  V30 7 C 2.522948 0.416703 -1.665519 0
M  V30 8 O 2.613430 -0.596090 -2.418030 0
M  V30 9 N 1.643625 1.519857 -1.910058 0
M  V30 10 C 0.736942 1.690136 -3.000518 0
M  V30 11 C 0.891750 2.945627 -3.787550 0
M  V30 12 C 0.685633 4.155652 -2.909776 0
M  V30 13 C -0.778712 4.170466 -2.519625 0
M  V30 14 C -1.004891 2.908213 -1.697860 0
M  V30 15 C -0.717261 1.684189 -2.504766 0
M  V30 16 C 3.264007 -0.999391 0.136994 0
M  V30 17 N 2.173377 -1.001718 1.142320 0
M  V30 18 C 1.169526 -1.960940 0.917876 0
M  V30 19 C -0.083720 -2.044051 1.473770 0
M  V30 20 C -1.026111 -3.003570 1.245680 0
M  V30 21 C -2.339834 -3.034821 1.865221 0
M  V30 22 C -3.169090 -4.080426 1.515962 0
M  V30 23 C -4.432991 -4.180701 2.058223 0
M  V30 24 C -4.896053 -3.249209 2.953729 0
M  V30 25 C -6.083663 -3.097640 3.639884 0
M  V30 26 N -7.230831 -3.932530 3.596565 0
M  V30 27 N -5.927887 -1.982258 4.366872 0
M  V30 28 N -4.759226 -1.423485 4.201001 0
M  V30 29 C -4.089530 -2.192875 3.321893 0
M  V30 30 C -2.827031 -2.123211 2.758221 0
M  V30 31 N -0.676738 -3.965717 0.380742 0
M  V30 32 C 0.531180 -3.962178 -0.210388 0
M  V30 33 N 0.903232 -4.983152 -1.125818 0
M  V30 34 C 0.913812 -5.410261 -2.510298 0
M  V30 35 N 1.403020 -2.982971 0.066554 0
M  V30 36 H 3.491395 0.979520 4.216600 0
M  V30 37 H 2.284899 0.501032 5.431167 0
M  V30 38 H 2.003923 1.944782 4.407063 0
M  V30 39 H 0.705475 0.405152 3.253109 0
M  V30 40 H 1.648601 -0.982997 3.840211 0
M  V30 41 H 3.584521 -0.184440 2.412784 0
M  V30 42 H 1.567586 1.752095 1.146805 0
M  V30 43 H 2.947312 2.052971 2.192201 0
M  V30 44 H 4.465458 0.343814 -0.932395 0
M  V30 45 H 1.699861 2.267952 -1.186238 0
M  V30 46 H 0.815700 0.816423 -3.699415 0
M  V30 47 H 0.065691 2.973142 -4.527077 0
M  V30 48 H 1.818359 3.000363 -4.383422 0
M  V30 49 H 0.954894 5.076018 -3.492875 0
M  V30 50 H 1.269359 4.101796 -1.960592 0
M  V30 51 H -1.355429 4.165498 -3.466761 0
M  V30 52 H -1.070800 5.030055 -1.908146 0
M  V30 53 H -2.056254 2.836942 -1.351573 0
M  V30 54 H -0.265368 2.949754 -0.868054 0
M  V30 55 H -0.926973 0.801676 -1.889230 0
M  V30 56 H -1.330636 1.733184 -3.438211 0
M  V30 57 H 4.193812 -1.266132 0.689573 0
M  V30 58 H 3.127734 -1.766917 -0.621995 0
M  V30 59 H -0.384041 -1.281698 2.165698 0
M  V30 60 H -2.893213 -4.861343 0.819981 0
M  V30 61 H -5.092573 -4.986880 1.797966 0
M  V30 62 H -7.328117 -4.647621 2.842211 0
M  V30 63 H -7.283457 -4.632145 2.824010 0
M  V30 64 H -4.358518 -0.560069 4.627648 0
M  V30 65 H -2.212342 -1.309290 3.044523 0
M  V30 66 H 1.351737 -5.715648 -0.529525 0
M  V30 67 H 0.494961 -4.692250 -3.216528 0
M  V30 68 H 0.294524 -6.345761 -2.641640 0
M  V30 69 H 1.963000 -5.596658 -2.838664 0
M  V30 END ATOM
M  V30 BEGIN BOND
M  V30 1 1 1 2
M  V30 2 1 2 3
M  V30 3 1 3 4
M  V30 4 1 4 5
M  V30 5 1 5 6
M  V30 6 1 6 7
M  V30 7 2 7 8
M  V30 8 1 7 9
M  V30 9 1 9 10
M  V30 10 1 10 11
M  V30 11 1 11 12
M  V30 12 1 12 13
M  V30 13 1 13 14
M  V30 14 1 14 15
M  V30 15 1 6 16
M  V30 16 1 16 17
M  V30 17 1 17 18
M  V30 18 2 18 19
M  V30 19 1 19 20
M  V30 20 1 20 21
M  V30 21 2 21 22
M  V30 22 1 22 23
M  V30 23 2 23 24
M  V30 24 1 24 25
M  V30 25 1 25 26
M  V30 26 2 25 27
M  V30 27 1 27 28
M  V30 28 1 28 29
M  V30 29 2 29 30
M  V30 30 2 20 31
M  V30 31 1 31 32
M  V30 32 1 32 33
M  V30 33 1 33 34
M  V30 34 2 32 35
M  V30 35 1 17 3
M  V30 36 1 35 18
M  V30 37 1 15 10
M  V30 38 1 30 21
M  V30 39 1 29 24
M  V30 40 1 1 36
M  V30 41 1 1 37
M  V30 42 1 1 38
M  V30 43 1 2 39
M  V30 44 1 2 40
M  V30 45 1 3 41 CFG=1
M  V30 46 1 4 42
M  V30 47 1 4 43
M  V30 48 1 6 44 CFG=3
M  V30 49 1 9 45
M  V30 50 1 10 46
M  V30 51 1 11 47
M  V30 52 1 11 48
M  V30 53 1 12 49
M  V30 54 1 12 50
M  V30 55 1 13 51
M  V30 56 1 13 52
M  V30 57 1 14 53
M  V30 58 1 14 54
M  V30 59 1 15 55
M  V30 60 1 15 56
M  V30 61 1 16 57
M  V30 62 1 16 58
M  V30 63 1 19 59
M  V30 64 1 22 60
M  V30 65 1 23 61
M  V30 66 1 26 62
M  V30 67 1 26 63
M  V30 68 1 28 64
M  V30 69 1 30 65
M  V30 70 1 33 66
M  V30 71 1 34 67
M  V30 72 1 34 68
M  V30 73 1 34 69
M  V30 END BOND
M  V30 END CTAB
M  END
>  <Dataset>  (79) 
ChEMBL_Kinases

>  <Ligand_Instance>  (79) 
nan

>  <PDB_ID>  (79) 
nan

>  <Standardized_SMILES>  (79) 
CC[C@@H]1CO[C@H](C(=O)NC2CCCCC2)CN1c1cc(-c2ccc3c(N)n[nH]c3c2)nc(NC)n1

>  <Name>  (79) 
nan

>  <Pocket>  (79) 
nan

>  <ATP_Site>  (79) 
nan

>  <Peripheral>  (79) 
nan

>  <Num_H_Atoms_ProtBoundConf>  (79) 
nan

>  <Num_Resolved_Atoms>  (79) 
nan

>  <Num_Not_Resolved_Atoms>  (79) 
nan

$$$$
CHEMBL1761503
     RDKit          3D

  0  0  0  0  0  0  0  0  0  0999 V3000
M  V30 BEGIN CTAB
M  V30 COUNTS 30 32 0 0 0
M  V30 BEGIN ATOM
M  V30 1 N -3.059400 -0.662216 2.634871 0
M  V30 2 C -1.822103 -1.041873 3.226570 0
M  V30 3 O -1.968155 -1.362954 4.411999 0
M  V30 4 C -0.604596 -1.010113 2.418696 0
M  V30 5 C -0.615819 -0.621754 1.092256 0
M  V30 6 C 0.566258 -0.612157 0.377912 0
M  V30 7 C 0.462084 -0.182876 -1.035510 0
M  V30 8 C 1.379299 -0.777319 -1.885535 0
M  V30 9 C 1.333041 -0.413254 -3.237072 0
M  V30 10 C 0.372434 0.508998 -3.597965 0
M  V30 11 C -0.546884 1.108269 -2.760974 0
M  V30 12 Cl -1.713452 2.267357 -3.362984 0
M  V30 13 C -0.493797 0.738867 -1.411920 0
M  V30 14 C 1.763975 -0.984495 0.965339 0
M  V30 15 C 1.815530 -1.378816 2.288915 0
M  V30 16 C 2.829467 -1.793636 3.128600 0
M  V30 17 C 2.205498 -2.040623 4.335961 0
M  V30 18 N 0.878497 -1.786553 4.228788 0
M  V30 19 C 0.609087 -1.373427 2.965834 0
M  V30 20 H -3.591557 0.251106 2.710882 0
M  V30 21 H -3.800498 -1.063964 2.003529 0
M  V30 22 H -1.550927 -0.326772 0.616271 0
M  V30 23 H 2.103157 -1.488958 -1.542397 0
M  V30 24 H 2.013321 -0.830371 -3.968418 0
M  V30 25 H 0.333870 0.797344 -4.661003 0
M  V30 26 H -1.186996 1.175578 -0.715994 0
M  V30 27 H 2.661091 -0.958733 0.360603 0
M  V30 28 H 3.846425 -1.859449 2.768613 0
M  V30 29 H 2.766339 -2.384660 5.194126 0
M  V30 30 H 0.217688 -1.909687 5.032913 0
M  V30 END ATOM
M  V30 BEGIN BOND
M  V30 1 1 1 2
M  V30 2 2 2 3
M  V30 3 1 2 4
M  V30 4 2 4 5
M  V30 5 1 5 6
M  V30 6 1 6 7
M  V30 7 2 7 8
M  V30 8 1 8 9
M  V30 9 2 9 10
M  V30 10 1 10 11
M  V30 11 1 11 12
M  V30 12 2 11 13
M  V30 13 2 6 14
M  V30 14 1 14 15
M  V30 15 1 15 16
M  V30 16 2 16 17
M  V30 17 1 17 18
M  V30 18 1 18 19
M  V30 19 1 19 4
M  V30 20 1 13 7
M  V30 21 2 19 15
M  V30 22 1 1 20
M  V30 23 1 1 21
M  V30 24 1 5 22
M  V30 25 1 8 23
M  V30 26 1 9 24
M  V30 27 1 10 25
M  V30 28 1 13 26
M  V30 29 1 14 27
M  V30 30 1 16 28
M  V30 31 1 17 29
M  V30 32 1 18 30
M  V30 END BOND
M  V30 END CTAB
M  END
>  <Dataset>  (80) 
ChEMBL_Kinases

>  <Ligand_Instance>  (80) 
nan

>  <PDB_ID>  (80) 
nan

>  <Standardized_SMILES>  (80) 
NC(=O)c1cc(-c2cccc(Cl)c2)cc2cc[nH]c12

>  <Name>  (80) 
nan

>  <Pocket>  (80) 
nan

>  <ATP_Site>  (80) 
nan

>  <Peripheral>  (80) 
nan

>  <Num_H_Atoms_ProtBoundConf>  (80) 
nan

>  <Num_Resolved_Atoms>  (80) 
nan

>  <Num_Not_Resolved_Atoms>  (80) 
nan

$$$$
CHEMBL1761512
     RDKit          3D

  0  0  0  0  0  0  0  0  0  0999 V3000
M  V30 BEGIN CTAB
M  V30 COUNTS 57 60 0 0 0
M  V30 BEGIN ATOM
M  V30 1 C 3.248285 -1.273423 3.863313 0
M  V30 2 C 1.941292 -1.765842 3.335548 0
M  V30 3 C 2.013045 -2.831605 2.303142 0
M  V30 4 S 2.847198 -2.429777 0.823364 0
M  V30 5 O 2.825035 -3.689117 -0.040497 0
M  V30 6 O 4.301591 -2.174948 1.109840 0
M  V30 7 N 2.204138 -1.145050 -0.066762 0
M  V30 8 C 2.169818 0.131132 0.551366 0
M  V30 9 C 2.623178 1.248063 -0.371648 0
M  V30 10 C 1.641143 1.246295 -1.532221 0
M  V30 11 C 0.343864 1.576471 -0.962166 0
M  V30 12 C 0.043961 2.911029 -0.630287 0
M  V30 13 N -1.195932 2.934284 -0.113394 0
M  V30 14 C -1.746908 1.713934 -0.075492 0
M  V30 15 C -2.955088 1.213808 0.342985 0
M  V30 16 C -3.951499 2.140245 0.900600 0
M  V30 17 N -5.217383 1.668031 1.346770 0
M  V30 18 O -3.805471 3.360530 1.034534 0
M  V30 19 C -3.260751 -0.108218 0.259104 0
M  V30 20 C -2.266260 -0.923468 -0.280222 0
M  V30 21 C -2.530453 -2.371474 -0.400798 0
M  V30 22 C -2.001667 -3.171132 -1.391193 0
M  V30 23 C -2.284939 -4.520185 -1.452449 0
M  V30 24 C -3.127055 -5.064941 -0.480577 0
M  V30 25 C -3.670705 -4.290863 0.521577 0
M  V30 26 C -3.372461 -2.943363 0.561793 0
M  V30 27 C -1.050130 -0.428600 -0.702706 0
M  V30 28 C -0.779419 0.893875 -0.603881 0
M  V30 29 C 1.876434 -0.014808 -2.219885 0
M  V30 30 C 2.481197 -1.148260 -1.468662 0
M  V30 31 H 3.016830 -0.318114 4.420582 0
M  V30 32 H 4.020331 -1.054693 3.126157 0
M  V30 33 H 3.623366 -1.957985 4.678050 0
M  V30 34 H 1.405493 -2.226359 4.218453 0
M  V30 35 H 1.258931 -0.914705 3.053190 0
M  V30 36 H 0.974834 -3.163712 2.091028 0
M  V30 37 H 2.517154 -3.708347 2.761978 0
M  V30 38 H 1.170740 0.299803 0.993487 0
M  V30 39 H 2.896159 0.143370 1.387695 0
M  V30 40 H 2.578906 2.187719 0.210010 0
M  V30 41 H 3.637621 0.970250 -0.698169 0
M  V30 42 H 1.924062 2.081870 -2.225969 0
M  V30 43 H 0.670950 3.798474 -0.751696 0
M  V30 44 H -1.663103 3.807057 0.215847 0
M  V30 45 H -6.193249 1.869480 1.118745 0
M  V30 46 H -5.380311 0.939985 2.079221 0
M  V30 47 H -4.205136 -0.491164 0.587624 0
M  V30 48 H -1.352259 -2.664544 -2.112029 0
M  V30 49 H -1.827833 -5.053822 -2.255913 0
M  V30 50 H -3.308758 -6.128013 -0.585833 0
M  V30 51 H -4.325777 -4.761526 1.262193 0
M  V30 52 H -3.813936 -2.344764 1.365639 0
M  V30 53 H -0.356816 -1.110786 -1.101589 0
M  V30 54 H 2.646698 0.207332 -3.034116 0
M  V30 55 H 1.044896 -0.377125 -2.872290 0
M  V30 56 H 3.588590 -1.138765 -1.557137 0
M  V30 57 H 2.169575 -2.147293 -1.845165 0
M  V30 END ATOM
M  V30 BEGIN BOND
M  V30 1 1 1 2
M  V30 2 1 2 3
M  V30 3 1 3 4
M  V30 4 2 4 5
M  V30 5 2 4 6
M  V30 6 1 4 7
M  V30 7 1 7 8
M  V30 8 1 8 9
M  V30 9 1 9 10
M  V30 10 1 10 11
M  V30 11 2 11 12
M  V30 12 1 12 13
M  V30 13 1 13 14
M  V30 14 2 14 15
M  V30 15 1 15 16
M  V30 16 1 16 17
M  V30 17 2 16 18
M  V30 18 1 15 19
M  V30 19 2 19 20
M  V30 20 1 20 21
M  V30 21 2 21 22
M  V30 22 1 22 23
M  V30 23 2 23 24
M  V30 24 1 24 25
M  V30 25 2 25 26
M  V30 26 1 20 27
M  V30 27 2 27 28
M  V30 28 1 10 29
M  V30 29 1 29 30
M  V30 30 1 30 7
M  V30 31 1 28 11
M  V30 32 1 28 14
M  V30 33 1 26 21
M  V30 34 1 1 31
M  V30 35 1 1 32
M  V30 36 1 1 33
M  V30 37 1 2 34
M  V30 38 1 2 35
M  V30 39 1 3 36
M  V30 40 1 3 37
M  V30 41 1 8 38
M  V30 42 1 8 39
M  V30 43 1 9 40
M  V30 44 1 9 41
M  V30 45 1 10 42
M  V30 46 1 12 43
M  V30 47 1 13 44
M  V30 48 1 17 45
M  V30 49 1 17 46
M  V30 50 1 19 47
M  V30 51 1 22 48
M  V30 52 1 23 49
M  V30 53 1 24 50
M  V30 54 1 25 51
M  V30 55 1 26 52
M  V30 56 1 27 53
M  V30 57 1 29 54
M  V30 58 1 29 55
M  V30 59 1 30 56
M  V30 60 1 30 57
M  V30 END BOND
M  V30 END CTAB
M  END
>  <Dataset>  (81) 
ChEMBL_Kinases

>  <Ligand_Instance>  (81) 
nan

>  <PDB_ID>  (81) 
nan

>  <Standardized_SMILES>  (81) 
CCCS(=O)(=O)N1CCC(c2c[nH]c3c(C(N)=O)cc(-c4ccccc4)cc23)CC1

>  <Name>  (81) 
nan

>  <Pocket>  (81) 
nan

>  <ATP_Site>  (81) 
nan

>  <Peripheral>  (81) 
nan

>  <Num_H_Atoms_ProtBoundConf>  (81) 
nan

>  <Num_Resolved_Atoms>  (81) 
nan

>  <Num_Not_Resolved_Atoms>  (81) 
nan

$$$$
CHEMBL1761513
     RDKit          3D

  0  0  0  0  0  0  0  0  0  0999 V3000
M  V30 BEGIN CTAB
M  V30 COUNTS 57 60 0 0 0
M  V30 BEGIN ATOM
M  V30 1 C 2.202868 -1.330875 3.241310 0
M  V30 2 C 2.322212 -2.460894 2.275934 0
M  V30 3 C 0.917427 -3.025315 2.047797 0
M  V30 4 S 3.118861 -2.086334 0.777482 0
M  V30 5 O 3.115577 -3.347689 -0.062629 0
M  V30 6 O 4.567687 -1.795603 1.052313 0
M  V30 7 N 2.455531 -0.856827 -0.165192 0
M  V30 8 C 2.394894 0.427493 0.381337 0
M  V30 9 C 2.649742 1.473806 -0.677553 0
M  V30 10 C 1.559584 1.299068 -1.725468 0
M  V30 11 C 0.299903 1.622012 -1.083424 0
M  V30 12 C -0.086571 2.958537 -0.880173 0
M  V30 13 N -1.278023 2.964206 -0.262657 0
M  V30 14 C -1.716977 1.731760 -0.038033 0
M  V30 15 C -2.854389 1.241454 0.545290 0
M  V30 16 C -3.870902 2.143806 1.074258 0
M  V30 17 N -5.051361 1.631534 1.681170 0
M  V30 18 O -3.812087 3.377968 1.049785 0
M  V30 19 C -3.048327 -0.115520 0.636994 0
M  V30 20 C -2.065378 -0.938250 0.125272 0
M  V30 21 C -2.316629 -2.372576 0.243681 0
M  V30 22 C -1.793158 -3.182889 -0.750136 0
M  V30 23 C -1.951053 -4.553392 -0.767191 0
M  V30 24 C -2.670573 -5.124400 0.268346 0
M  V30 25 C -3.213769 -4.335955 1.289351 0
M  V30 26 C -3.031550 -2.955406 1.269587 0
M  V30 27 C -0.923599 -0.433353 -0.459947 0
M  V30 28 C -0.729708 0.909050 -0.551535 0
M  V30 29 C 1.796331 -0.006024 -2.326591 0
M  V30 30 C 2.664747 -0.970877 -1.570910 0
M  V30 31 H 3.210141 -0.847493 3.384680 0
M  V30 32 H 1.429220 -0.583301 3.011731 0
M  V30 33 H 1.915655 -1.775147 4.230312 0
M  V30 34 H 2.853282 -3.296241 2.817995 0
M  V30 35 H 0.418984 -3.170593 3.017025 0
M  V30 36 H 0.361266 -2.395361 1.340645 0
M  V30 37 H 1.081791 -4.036216 1.587320 0
M  V30 38 H 1.402337 0.596302 0.869330 0
M  V30 39 H 3.151120 0.489473 1.201167 0
M  V30 40 H 2.624901 2.502317 -0.253294 0
M  V30 41 H 3.637621 1.241991 -1.133341 0
M  V30 42 H 1.771068 2.093543 -2.485124 0
M  V30 43 H 0.468156 3.863302 -1.165596 0
M  V30 44 H -1.777684 3.837925 -0.001716 0
M  V30 45 H -4.824891 1.091527 2.550615 0
M  V30 46 H -5.978840 1.824042 1.238861 0
M  V30 47 H -3.952989 -0.478708 1.101220 0
M  V30 48 H -1.222232 -2.791110 -1.583858 0
M  V30 49 H -1.536636 -5.172452 -1.549509 0
M  V30 50 H -2.837478 -6.190842 0.325413 0
M  V30 51 H -3.786540 -4.784733 2.114768 0
M  V30 52 H -3.433143 -2.304775 2.037734 0
M  V30 53 H -0.205912 -1.108101 -0.833932 0
M  V30 54 H 2.415395 0.185115 -3.269789 0
M  V30 55 H 0.911982 -0.495359 -2.802662 0
M  V30 56 H 3.724410 -0.691379 -1.748817 0
M  V30 57 H 2.589720 -2.005996 -1.948557 0
M  V30 END ATOM
M  V30 BEGIN BOND
M  V30 1 1 1 2
M  V30 2 1 2 3
M  V30 3 1 2 4
M  V30 4 2 4 5
M  V30 5 2 4 6
M  V30 6 1 4 7
M  V30 7 1 7 8
M  V30 8 1 8 9
M  V30 9 1 9 10
M  V30 10 1 10 11
M  V30 11 2 11 12
M  V30 12 1 12 13
M  V30 13 1 13 14
M  V30 14 2 14 15
M  V30 15 1 15 16
M  V30 16 1 16 17
M  V30 17 2 16 18
M  V30 18 1 15 19
M  V30 19 2 19 20
M  V30 20 1 20 21
M  V30 21 2 21 22
M  V30 22 1 22 23
M  V30 23 2 23 24
M  V30 24 1 24 25
M  V30 25 2 25 26
M  V30 26 1 20 27
M  V30 27 2 27 28
M  V30 28 1 10 29
M  V30 29 1 29 30
M  V30 30 1 30 7
M  V30 31 1 28 11
M  V30 32 1 28 14
M  V30 33 1 26 21
M  V30 34 1 1 31
M  V30 35 1 1 32
M  V30 36 1 1 33
M  V30 37 1 2 34
M  V30 38 1 3 35
M  V30 39 1 3 36
M  V30 40 1 3 37
M  V30 41 1 8 38
M  V30 42 1 8 39
M  V30 43 1 9 40
M  V30 44 1 9 41
M  V30 45 1 10 42
M  V30 46 1 12 43
M  V30 47 1 13 44
M  V30 48 1 17 45
M  V30 49 1 17 46
M  V30 50 1 19 47
M  V30 51 1 22 48
M  V30 52 1 23 49
M  V30 53 1 24 50
M  V30 54 1 25 51
M  V30 55 1 26 52
M  V30 56 1 27 53
M  V30 57 1 29 54
M  V30 58 1 29 55
M  V30 59 1 30 56
M  V30 60 1 30 57
M  V30 END BOND
M  V30 END CTAB
M  END
>  <Dataset>  (82) 
ChEMBL_Kinases

>  <Ligand_Instance>  (82) 
nan

>  <PDB_ID>  (82) 
nan

>  <Standardized_SMILES>  (82) 
CC(C)S(=O)(=O)N1CCC(c2c[nH]c3c(C(N)=O)cc(-c4ccccc4)cc23)CC1

>  <Name>  (82) 
nan

>  <Pocket>  (82) 
nan

>  <ATP_Site>  (82) 
nan

>  <Peripheral>  (82) 
nan

>  <Num_H_Atoms_ProtBoundConf>  (82) 
nan

>  <Num_Resolved_Atoms>  (82) 
nan

>  <Num_Not_Resolved_Atoms>  (82) 
nan

$$$$
CHEMBL1761514
     RDKit          3D

  0  0  0  0  0  0  0  0  0  0999 V3000
M  V30 BEGIN CTAB
M  V30 COUNTS 54 57 0 0 0
M  V30 BEGIN ATOM
M  V30 1 C 0.197278 -4.838033 5.429206 0
M  V30 2 C 0.315690 -3.762772 4.378182 0
M  V30 3 S 1.851618 -3.982100 3.515190 0
M  V30 4 O 1.886387 -5.351162 2.940535 0
M  V30 5 O 2.948331 -3.827623 4.560797 0
M  V30 6 N 2.109995 -2.840739 2.306825 0
M  V30 7 C 2.190685 -1.481444 2.691050 0
M  V30 8 C 2.049973 -0.503430 1.580816 0
M  V30 9 C 1.702653 -1.251268 0.310686 0
M  V30 10 C 1.516895 -0.279588 -0.770043 0
M  V30 11 C 2.464559 0.215152 -1.647574 0
M  V30 12 N 1.849231 1.067694 -2.456335 0
M  V30 13 C 0.547298 1.143569 -2.138118 0
M  V30 14 C -0.512329 1.861511 -2.650429 0
M  V30 15 C -0.347481 2.774508 -3.772187 0
M  V30 16 N 0.779952 3.147682 -4.550962 0
M  V30 17 O -1.274048 3.470832 -4.309565 0
M  V30 18 C -1.800461 1.791609 -2.166052 0
M  V30 19 C -1.998250 0.923751 -1.084939 0
M  V30 20 C -3.339099 0.799848 -0.522138 0
M  V30 21 C -4.231163 1.878208 -0.519423 0
M  V30 22 C -5.492950 1.707312 0.027811 0
M  V30 23 C -5.898604 0.487928 0.576815 0
M  V30 24 C -5.033489 -0.590007 0.584512 0
M  V30 25 C -3.784686 -0.383151 0.030784 0
M  V30 26 C -0.946519 0.181087 -0.541095 0
M  V30 27 C 0.306071 0.304958 -1.077796 0
M  V30 28 C 2.818824 -2.230495 0.049116 0
M  V30 29 C 2.909082 -3.247915 1.187649 0
M  V30 30 H 1.065641 -4.906975 6.088932 0
M  V30 31 H -0.708235 -4.602952 6.062180 0
M  V30 32 H 0.037099 -5.837097 4.947904 0
M  V30 33 H -0.514725 -3.891934 3.656658 0
M  V30 34 H 0.324757 -2.791181 4.902194 0
M  V30 35 H 1.366338 -1.290801 3.436154 0
M  V30 36 H 3.143474 -1.269147 3.234188 0
M  V30 37 H 1.211850 0.199381 1.824756 0
M  V30 38 H 2.972361 0.095509 1.398485 0
M  V30 39 H 0.780541 -1.841330 0.532285 0
M  V30 40 H 3.482947 -0.104855 -1.590280 0
M  V30 41 H 2.329498 1.592226 -3.223081 0
M  V30 42 H 1.238532 3.652714 -3.766229 0
M  V30 43 H 1.672341 3.697014 -4.369951 0
M  V30 44 H -2.630769 2.357721 -2.571612 0
M  V30 45 H -3.907297 2.797999 -0.940606 0
M  V30 46 H -6.201107 2.539838 0.037150 0
M  V30 47 H -6.867837 0.311641 1.011541 0
M  V30 48 H -5.263081 -1.567341 0.987285 0
M  V30 49 H -3.078497 -1.201852 0.017485 0
M  V30 50 H -1.165784 -0.461360 0.282381 0
M  V30 51 H 3.799842 -1.728845 0.008770 0
M  V30 52 H 2.554369 -2.809674 -0.855092 0
M  V30 53 H 2.500646 -4.221616 0.851305 0
M  V30 54 H 3.962613 -3.426460 1.482576 0
M  V30 END ATOM
M  V30 BEGIN BOND
M  V30 1 1 1 2
M  V30 2 1 2 3
M  V30 3 2 3 4
M  V30 4 2 3 5
M  V30 5 1 3 6
M  V30 6 1 6 7
M  V30 7 1 7 8
M  V30 8 1 8 9
M  V30 9 1 9 10
M  V30 10 2 10 11
M  V30 11 1 11 12
M  V30 12 1 12 13
M  V30 13 2 13 14
M  V30 14 1 14 15
M  V30 15 1 15 16
M  V30 16 2 15 17
M  V30 17 1 14 18
M  V30 18 2 18 19
M  V30 19 1 19 20
M  V30 20 2 20 21
M  V30 21 1 21 22
M  V30 22 2 22 23
M  V30 23 1 23 24
M  V30 24 2 24 25
M  V30 25 1 19 26
M  V30 26 2 26 27
M  V30 27 1 9 28
M  V30 28 1 28 29
M  V30 29 1 29 6
M  V30 30 1 27 10
M  V30 31 1 27 13
M  V30 32 1 25 20
M  V30 33 1 1 30
M  V30 34 1 1 31
M  V30 35 1 1 32
M  V30 36 1 2 33
M  V30 37 1 2 34
M  V30 38 1 7 35
M  V30 39 1 7 36
M  V30 40 1 8 37
M  V30 41 1 8 38
M  V30 42 1 9 39
M  V30 43 1 11 40
M  V30 44 1 12 41
M  V30 45 1 16 42
M  V30 46 1 16 43
M  V30 47 1 18 44
M  V30 48 1 21 45
M  V30 49 1 22 46
M  V30 50 1 23 47
M  V30 51 1 24 48
M  V30 52 1 25 49
M  V30 53 1 26 50
M  V30 54 1 28 51
M  V30 55 1 28 52
M  V30 56 1 29 53
M  V30 57 1 29 54
M  V30 END BOND
M  V30 END CTAB
M  END
>  <Dataset>  (83) 
ChEMBL_Kinases

>  <Ligand_Instance>  (83) 
nan

>  <PDB_ID>  (83) 
nan

>  <Standardized_SMILES>  (83) 
CCS(=O)(=O)N1CCC(c2c[nH]c3c(C(N)=O)cc(-c4ccccc4)cc23)CC1

>  <Name>  (83) 
nan

>  <Pocket>  (83) 
nan

>  <ATP_Site>  (83) 
nan

>  <Peripheral>  (83) 
nan

>  <Num_H_Atoms_ProtBoundConf>  (83) 
nan

>  <Num_Resolved_Atoms>  (83) 
nan

>  <Num_Not_Resolved_Atoms>  (83) 
nan

$$$$
CHEMBL1761516
     RDKit          3D

  0  0  0  0  0  0  0  0  0  0999 V3000
M  V30 BEGIN CTAB
M  V30 COUNTS 35 36 0 0 0
M  V30 BEGIN ATOM
M  V30 1 C 0.024703 -5.274500 4.241051 0
M  V30 2 C -0.820767 -5.012857 3.037217 0
M  V30 3 C -0.519280 -3.763085 2.331199 0
M  V30 4 C 0.396496 -3.615328 1.295979 0
M  V30 5 C 0.633471 -2.406415 0.672143 0
M  V30 6 C -0.076031 -1.336077 1.113938 0
M  V30 7 C 0.137068 -0.022949 0.484299 0
M  V30 8 C 0.961174 0.320384 -0.511120 0
M  V30 9 C 1.018382 1.596370 -0.960878 0
M  V30 10 C 1.871033 2.099117 -2.035594 0
M  V30 11 N 2.764439 1.261627 -2.747003 0
M  V30 12 O 1.819848 3.302240 -2.345948 0
M  V30 13 C 0.152241 2.491355 -0.296464 0
M  V30 14 N -0.071652 3.908715 -0.485264 0
M  V30 15 C -1.081269 4.191848 -1.411974 0
M  V30 16 N -1.392441 5.558049 -1.681830 0
M  V30 17 O -1.604100 3.149161 -1.906533 0
M  V30 18 S -0.677398 1.477592 0.908751 0
M  V30 19 C -1.001401 -1.400981 2.134336 0
M  V30 20 C -1.212614 -2.630705 2.736639 0
M  V30 21 H 0.679732 -4.454433 4.540862 0
M  V30 22 H -0.656786 -5.568534 5.081523 0
M  V30 23 H 0.680351 -6.181833 4.104211 0
M  V30 24 H -1.908437 -5.034060 3.282828 0
M  V30 25 H -0.681940 -5.861379 2.328511 0
M  V30 26 H 0.913296 -4.528275 1.014712 0
M  V30 27 H 1.354625 -2.338330 -0.128399 0
M  V30 28 H 1.595738 -0.462874 -0.959119 0
M  V30 29 H 3.005186 1.255218 -3.743878 0
M  V30 30 H 3.387208 0.464360 -2.459015 0
M  V30 31 H 0.476376 4.612388 0.028334 0
M  V30 32 H -2.175275 6.224822 -1.833634 0
M  V30 33 H -0.598417 6.224843 -1.783393 0
M  V30 34 H -1.545089 -0.502560 2.449090 0
M  V30 35 H -1.954306 -2.614366 3.533712 0
M  V30 END ATOM
M  V30 BEGIN BOND
M  V30 1 1 1 2
M  V30 2 1 2 3
M  V30 3 2 3 4
M  V30 4 1 4 5
M  V30 5 2 5 6
M  V30 6 1 6 7
M  V30 7 2 7 8
M  V30 8 1 8 9
M  V30 9 1 9 10
M  V30 10 1 10 11
M  V30 11 2 10 12
M  V30 12 2 9 13
M  V30 13 1 13 14
M  V30 14 1 14 15
M  V30 15 1 15 16
M  V30 16 2 15 17
M  V30 17 1 13 18
M  V30 18 1 6 19
M  V30 19 2 19 20
M  V30 20 1 20 3
M  V30 21 1 18 7
M  V30 22 1 1 21
M  V30 23 1 1 22
M  V30 24 1 1 23
M  V30 25 1 2 24
M  V30 26 1 2 25
M  V30 27 1 4 26
M  V30 28 1 5 27
M  V30 29 1 8 28
M  V30 30 1 11 29
M  V30 31 1 11 30
M  V30 32 1 14 31
M  V30 33 1 16 32
M  V30 34 1 16 33
M  V30 35 1 19 34
M  V30 36 1 20 35
M  V30 END BOND
M  V30 END CTAB
M  END
>  <Dataset>  (84) 
ChEMBL_Kinases

>  <Ligand_Instance>  (84) 
nan

>  <PDB_ID>  (84) 
nan

>  <Standardized_SMILES>  (84) 
CCc1ccc(-c2cc(C(N)=O)c(NC(N)=O)s2)cc1

>  <Name>  (84) 
nan

>  <Pocket>  (84) 
nan

>  <ATP_Site>  (84) 
nan

>  <Peripheral>  (84) 
nan

>  <Num_H_Atoms_ProtBoundConf>  (84) 
nan

>  <Num_Resolved_Atoms>  (84) 
nan

>  <Num_Not_Resolved_Atoms>  (84) 
nan

$$$$
CHEMBL176164
     RDKit          3D

  0  0  0  0  0  0  0  0  0  0999 V3000
M  V30 BEGIN CTAB
M  V30 COUNTS 44 47 0 0 0
M  V30 BEGIN ATOM
M  V30 1 C -2.909279 -7.234049 -1.748585 0
M  V30 2 O -1.819689 -6.937232 -2.575197 0
M  V30 3 C -1.017694 -5.813016 -2.435012 0
M  V30 4 C 0.009991 -5.698093 -3.351286 0
M  V30 5 C 0.878695 -4.626688 -3.320266 0
M  V30 6 C 0.719470 -3.638690 -2.346745 0
M  V30 7 O 1.587191 -2.563491 -2.311755 0
M  V30 8 C 1.480426 -1.546275 -1.358699 0
M  V30 9 C 0.675332 -0.461446 -1.688803 0
M  V30 10 C 0.530016 0.582272 -0.780788 0
M  V30 11 C 1.206060 0.478399 0.417267 0
M  V30 12 C 1.050998 1.576411 1.368119 0
M  V30 13 N 1.600938 1.719745 2.594161 0
M  V30 14 C 1.194642 2.889401 3.139627 0
M  V30 15 C 1.519068 3.420096 4.370314 0
M  V30 16 C 0.963845 4.638025 4.682856 0
M  V30 17 C 1.151295 5.413656 5.926612 0
M  V30 18 N 2.013998 4.760609 6.839343 0
M  V30 19 O 0.686423 6.513919 6.287564 0
M  V30 20 C 0.129388 5.263097 3.781314 0
M  V30 21 C -0.182092 4.700975 2.539721 0
M  V30 22 C 0.369699 3.479865 2.216973 0
M  V30 23 N 0.288341 2.673001 1.141788 0
M  V30 24 C 2.011621 -0.583365 0.774677 0
M  V30 25 C 2.139129 -1.608878 -0.147222 0
M  V30 26 C -0.303951 -3.784263 -1.460094 0
M  V30 27 C -1.195183 -4.837487 -1.453884 0
M  V30 28 H -3.092486 -8.313829 -1.630517 0
M  V30 29 H -2.854695 -6.818603 -0.729663 0
M  V30 30 H -3.850416 -6.800021 -2.197840 0
M  V30 31 H 0.220809 -6.407044 -4.144919 0
M  V30 32 H 1.704718 -4.514302 -4.040455 0
M  V30 33 H 0.151530 -0.397079 -2.635194 0
M  V30 34 H -0.095171 1.425642 -1.036132 0
M  V30 35 H 2.149902 3.003105 5.114868 0
M  V30 36 H 2.652553 4.320471 7.523099 0
M  V30 37 H 2.310748 3.776742 7.009739 0
M  V30 38 H -0.315974 6.219815 4.008713 0
M  V30 39 H -0.836030 5.197820 1.841275 0
M  V30 40 H -0.302350 2.945082 0.309432 0
M  V30 41 H 2.515796 -0.597217 1.741086 0
M  V30 42 H 2.758124 -2.472375 0.073068 0
M  V30 43 H -0.486200 -3.049997 -0.674374 0
M  V30 44 H -2.011653 -4.965526 -0.756600 0
M  V30 END ATOM
M  V30 BEGIN BOND
M  V30 1 1 1 2
M  V30 2 1 2 3
M  V30 3 2 3 4
M  V30 4 1 4 5
M  V30 5 2 5 6
M  V30 6 1 6 7
M  V30 7 1 7 8
M  V30 8 2 8 9
M  V30 9 1 9 10
M  V30 10 2 10 11
M  V30 11 1 11 12
M  V30 12 2 12 13
M  V30 13 1 13 14
M  V30 14 2 14 15
M  V30 15 1 15 16
M  V30 16 1 16 17
M  V30 17 1 17 18
M  V30 18 2 17 19
M  V30 19 2 16 20
M  V30 20 1 20 21
M  V30 21 2 21 22
M  V30 22 1 22 23
M  V30 23 1 11 24
M  V30 24 2 24 25
M  V30 25 1 6 26
M  V30 26 2 26 27
M  V30 27 1 27 3
M  V30 28 1 25 8
M  V30 29 1 23 12
M  V30 30 1 22 14
M  V30 31 1 1 28
M  V30 32 1 1 29
M  V30 33 1 1 30
M  V30 34 1 4 31
M  V30 35 1 5 32
M  V30 36 1 9 33
M  V30 37 1 10 34
M  V30 38 1 15 35
M  V30 39 1 18 36
M  V30 40 1 18 37
M  V30 41 1 20 38
M  V30 42 1 21 39
M  V30 43 1 23 40
M  V30 44 1 24 41
M  V30 45 1 25 42
M  V30 46 1 26 43
M  V30 47 1 27 44
M  V30 END BOND
M  V30 END CTAB
M  END
>  <Dataset>  (85) 
ChEMBL_Kinases

>  <Ligand_Instance>  (85) 
nan

>  <PDB_ID>  (85) 
nan

>  <Standardized_SMILES>  (85) 
COc1ccc(Oc2ccc(-c3nc4cc(C(N)=O)ccc4[nH]3)cc2)cc1

>  <Name>  (85) 
nan

>  <Pocket>  (85) 
nan

>  <ATP_Site>  (85) 
nan

>  <Peripheral>  (85) 
nan

>  <Num_H_Atoms_ProtBoundConf>  (85) 
nan

>  <Num_Resolved_Atoms>  (85) 
nan

>  <Num_Not_Resolved_Atoms>  (85) 
nan

$$$$
CHEMBL176235
     RDKit          3D

  0  0  0  0  0  0  0  0  0  0999 V3000
M  V30 BEGIN CTAB
M  V30 COUNTS 40 43 0 0 0
M  V30 BEGIN ATOM
M  V30 1 N 0.931035 -7.738235 -0.320599 0
M  V30 2 C 2.034719 -6.957521 0.122866 0
M  V30 3 O 3.103084 -7.521852 0.473489 0
M  V30 4 C 1.928833 -5.502050 0.171504 0
M  V30 5 C 3.008585 -4.757114 0.604267 0
M  V30 6 C 2.911546 -3.375798 0.651679 0
M  V30 7 C 1.728078 -2.772837 0.261934 0
M  V30 8 N 1.424575 -1.456612 0.231202 0
M  V30 9 C 0.148100 -1.341059 -0.221045 0
M  V30 10 C -0.615132 -0.099464 -0.421615 0
M  V30 11 C -1.923339 -0.116410 -0.893152 0
M  V30 12 C -2.604524 1.083114 -1.066755 0
M  V30 13 C -1.943001 2.261906 -0.758656 0
M  V30 14 C -0.640118 2.314451 -0.286915 0
M  V30 15 O -0.018204 3.527157 0.008958 0
M  V30 16 C -0.151242 4.015235 1.309591 0
M  V30 17 C 0.793417 3.647718 2.245674 0
M  V30 18 C 0.732178 4.088146 3.552711 0
M  V30 19 C -0.319540 4.921672 3.903737 0
M  V30 20 C -1.275264 5.300720 2.980415 0
M  V30 21 C -1.208397 4.856093 1.672350 0
M  V30 22 C 0.000420 1.099856 -0.128828 0
M  V30 23 N -0.328497 -2.577958 -0.466177 0
M  V30 24 C 0.636623 -3.493889 -0.173616 0
M  V30 25 C 0.755832 -4.886629 -0.213733 0
M  V30 26 H 0.279935 -7.632721 0.509927 0
M  V30 27 H -0.026178 -8.091161 -0.079764 0
M  V30 28 H 3.900431 -5.303868 0.892466 0
M  V30 29 H 3.780552 -2.837243 0.996340 0
M  V30 30 H 2.027767 -0.644456 0.496562 0
M  V30 31 H -2.353903 -1.085903 -1.105729 0
M  V30 32 H -3.611075 1.070657 -1.429531 0
M  V30 33 H -2.447708 3.230000 -0.882562 0
M  V30 34 H 1.635398 3.001081 2.032493 0
M  V30 35 H 1.426854 3.850738 4.348939 0
M  V30 36 H -0.409361 5.297893 4.935146 0
M  V30 37 H -2.116383 5.950586 3.206150 0
M  V30 38 H -1.897056 5.085488 0.863465 0
M  V30 39 H 1.020178 1.180710 0.242772 0
M  V30 40 H -0.115736 -5.438885 -0.560132 0
M  V30 END ATOM
M  V30 BEGIN BOND
M  V30 1 1 1 2
M  V30 2 2 2 3
M  V30 3 1 2 4
M  V30 4 2 4 5
M  V30 5 1 5 6
M  V30 6 2 6 7
M  V30 7 1 7 8
M  V30 8 1 8 9
M  V30 9 1 9 10
M  V30 10 2 10 11
M  V30 11 1 11 12
M  V30 12 2 12 13
M  V30 13 1 13 14
M  V30 14 1 14 15
M  V30 15 1 15 16
M  V30 16 2 16 17
M  V30 17 1 17 18
M  V30 18 2 18 19
M  V30 19 1 19 20
M  V30 20 2 20 21
M  V30 21 2 14 22
M  V30 22 2 9 23
M  V30 23 1 23 24
M  V30 24 2 24 25
M  V30 25 1 25 4
M  V30 26 1 24 7
M  V30 27 1 22 10
M  V30 28 1 21 16
M  V30 29 1 1 26
M  V30 30 1 1 27
M  V30 31 1 5 28
M  V30 32 1 6 29
M  V30 33 1 8 30
M  V30 34 1 11 31
M  V30 35 1 12 32
M  V30 36 1 13 33
M  V30 37 1 17 34
M  V30 38 1 18 35
M  V30 39 1 19 36
M  V30 40 1 20 37
M  V30 41 1 21 38
M  V30 42 1 22 39
M  V30 43 1 25 40
M  V30 END BOND
M  V30 END CTAB
M  END
>  <Dataset>  (86) 
ChEMBL_Kinases

>  <Ligand_Instance>  (86) 
nan

>  <PDB_ID>  (86) 
nan

>  <Standardized_SMILES>  (86) 
NC(=O)c1ccc2[nH]c(-c3cccc(Oc4ccccc4)c3)nc2c1

>  <Name>  (86) 
nan

>  <Pocket>  (86) 
nan

>  <ATP_Site>  (86) 
nan

>  <Peripheral>  (86) 
nan

>  <Num_H_Atoms_ProtBoundConf>  (86) 
nan

>  <Num_Resolved_Atoms>  (86) 
nan

>  <Num_Not_Resolved_Atoms>  (86) 
nan

$$$$
CHEMBL1762546
     RDKit          3D

  0  0  0  0  0  0  0  0  0  0999 V3000
M  V30 BEGIN CTAB
M  V30 COUNTS 63 66 0 0 0
M  V30 BEGIN ATOM
M  V30 1 C 0.647684 2.270129 4.680400 0
M  V30 2 C 1.730111 1.506723 4.008876 0
M  V30 3 C 2.298298 0.415000 4.625989 0
M  V30 4 C 3.302075 -0.302755 4.017040 0
M  V30 5 C 3.743579 0.076575 2.773935 0
M  V30 6 C 4.814971 -0.689619 2.124057 0
M  V30 7 O 4.320015 -1.732931 1.343071 0
M  V30 8 C 3.150812 1.176839 2.184416 0
M  V30 9 C 2.132284 1.931162 2.765799 0
M  V30 10 N 1.596109 3.049568 2.059676 0
M  V30 11 C 1.613197 4.423662 2.535136 0
M  V30 12 C 0.993605 2.818850 0.788319 0
M  V30 13 C 0.442453 3.833217 0.018800 0
M  V30 14 C -0.143381 3.629034 -1.210884 0
M  V30 15 N -0.168947 2.358253 -1.669703 0
M  V30 16 C 0.362046 1.339123 -0.941772 0
M  V30 17 N 0.265362 0.054110 -1.546449 0
M  V30 18 C -0.855023 -0.795646 -1.326662 0
M  V30 19 C -0.910631 -2.034385 -1.931736 0
M  V30 20 C -1.978974 -2.885062 -1.742943 0
M  V30 21 N -2.038417 -4.161972 -2.365401 0
M  V30 22 C -3.126047 -5.110558 -2.216501 0
M  V30 23 C -3.291224 -5.790446 -3.581039 0
M  V30 24 O -2.190466 -6.581206 -3.838799 0
M  V30 25 C -1.029290 -6.122760 -3.257481 0
M  V30 26 C -0.969392 -4.590534 -3.212245 0
M  V30 27 C -2.975141 -2.411143 -0.914596 0
M  V30 28 C -2.950513 -1.182005 -0.296291 0
M  V30 29 S -4.230080 -0.606627 0.750558 0
M  V30 30 C -3.802780 -1.139478 2.410661 0
M  V30 31 O -5.499762 -1.323265 0.390129 0
M  V30 32 O -4.365273 0.883244 0.696645 0
M  V30 33 C -1.869198 -0.346497 -0.500504 0
M  V30 34 N 0.917874 1.596061 0.245220 0
M  V30 35 H 0.838657 3.337278 4.786239 0
M  V30 36 H -0.260875 2.149793 4.030572 0
M  V30 37 H 0.400335 1.775339 5.653685 0
M  V30 38 H 1.923770 0.134733 5.622269 0
M  V30 39 H 3.716009 -1.158938 4.551985 0
M  V30 40 H 5.442927 -1.149045 2.918997 0
M  V30 41 H 5.464445 -0.014448 1.543353 0
M  V30 42 H 5.007480 -2.397920 1.143757 0
M  V30 43 H 3.493250 1.480409 1.207121 0
M  V30 44 H 0.649355 4.790544 2.885736 0
M  V30 45 H 1.962650 5.124677 1.747698 0
M  V30 46 H 2.368455 4.486156 3.337186 0
M  V30 47 H 0.463111 4.848597 0.385863 0
M  V30 48 H -0.565005 4.445940 -1.786432 0
M  V30 49 H 1.049425 -0.260481 -2.168242 0
M  V30 50 H -0.076137 -2.306579 -2.561399 0
M  V30 51 H -2.889853 -5.883363 -1.446912 0
M  V30 52 H -4.053301 -4.602698 -1.952811 0
M  V30 53 H -3.340047 -4.972586 -4.333262 0
M  V30 54 H -4.245682 -6.345953 -3.543678 0
M  V30 55 H -0.185693 -6.526084 -3.855375 0
M  V30 56 H -0.921685 -6.570675 -2.248430 0
M  V30 57 H 0.028695 -4.320109 -2.871011 0
M  V30 58 H -1.113916 -4.282454 -4.277645 0
M  V30 59 H -3.838727 -2.999034 -0.710622 0
M  V30 60 H -4.053350 -2.237314 2.446093 0
M  V30 61 H -2.709557 -1.092502 2.511721 0
M  V30 62 H -4.347947 -0.567183 3.179285 0
M  V30 63 H -1.798188 0.626670 -0.041172 0
M  V30 END ATOM
M  V30 BEGIN BOND
M  V30 1 1 1 2
M  V30 2 2 2 3
M  V30 3 1 3 4
M  V30 4 2 4 5
M  V30 5 1 5 6
M  V30 6 1 6 7
M  V30 7 1 5 8
M  V30 8 2 8 9
M  V30 9 1 9 10
M  V30 10 1 10 11
M  V30 11 1 10 12
M  V30 12 2 12 13
M  V30 13 1 13 14
M  V30 14 2 14 15
M  V30 15 1 15 16
M  V30 16 1 16 17
M  V30 17 1 17 18
M  V30 18 2 18 19
M  V30 19 1 19 20
M  V30 20 1 20 21
M  V30 21 1 21 22
M  V30 22 1 22 23
M  V30 23 1 23 24
M  V30 24 1 24 25
M  V30 25 1 25 26
M  V30 26 2 20 27
M  V30 27 1 27 28
M  V30 28 1 28 29
M  V30 29 1 29 30
M  V30 30 2 29 31
M  V30 31 2 29 32
M  V30 32 2 28 33
M  V30 33 2 16 34
M  V30 34 1 9 2
M  V30 35 1 34 12
M  V30 36 1 33 18
M  V30 37 1 26 21
M  V30 38 1 1 35
M  V30 39 1 1 36
M  V30 40 1 1 37
M  V30 41 1 3 38
M  V30 42 1 4 39
M  V30 43 1 6 40
M  V30 44 1 6 41
M  V30 45 1 7 42
M  V30 46 1 8 43
M  V30 47 1 11 44
M  V30 48 1 11 45
M  V30 49 1 11 46
M  V30 50 1 13 47
M  V30 51 1 14 48
M  V30 52 1 17 49
M  V30 53 1 19 50
M  V30 54 1 22 51
M  V30 55 1 22 52
M  V30 56 1 23 53
M  V30 57 1 23 54
M  V30 58 1 25 55
M  V30 59 1 25 56
M  V30 60 1 26 57
M  V30 61 1 26 58
M  V30 62 1 27 59
M  V30 63 1 30 60
M  V30 64 1 30 61
M  V30 65 1 30 62
M  V30 66 1 33 63
M  V30 END BOND
M  V30 END CTAB
M  END
>  <Dataset>  (87) 
ChEMBL_Kinases

>  <Ligand_Instance>  (87) 
nan

>  <PDB_ID>  (87) 
nan

>  <Standardized_SMILES>  (87) 
Cc1ccc(CO)cc1N(C)c1ccnc(Nc2cc(N3CCOCC3)cc(S(C)(=O)=O)c2)n1

>  <Name>  (87) 
nan

>  <Pocket>  (87) 
nan

>  <ATP_Site>  (87) 
nan

>  <Peripheral>  (87) 
nan

>  <Num_H_Atoms_ProtBoundConf>  (87) 
nan

>  <Num_Resolved_Atoms>  (87) 
nan

>  <Num_Not_Resolved_Atoms>  (87) 
nan

$$$$
CHEMBL1765743
     RDKit          3D

  0  0  0  0  0  0  0  0  0  0999 V3000
M  V30 BEGIN CTAB
M  V30 COUNTS 66 70 0 0 0
M  V30 BEGIN ATOM
M  V30 1 C 1.867586 -1.652426 5.014379 0
M  V30 2 N 0.776510 -1.682750 4.079508 0
M  V30 3 C 0.627801 -0.612060 3.158705 0
M  V30 4 N 1.494836 0.430411 3.131275 0
M  V30 5 C 1.377771 1.459151 2.269814 0
M  V30 6 C 2.358823 2.537230 2.299004 0
M  V30 7 C 3.362688 2.421910 3.233336 0
M  V30 8 C 4.369249 3.386833 3.347842 0
M  V30 9 C 4.261915 4.431564 2.459632 0
M  V30 10 C 5.026734 5.559455 2.240385 0
M  V30 11 N 6.195608 5.978550 2.909741 0
M  V30 12 N 4.530796 6.322713 1.235081 0
M  V30 13 N 3.428066 5.712367 0.769186 0
M  V30 14 C 3.283882 4.597508 1.504497 0
M  V30 15 C 2.285975 3.605225 1.422984 0
M  V30 16 C 0.312468 1.416719 1.392900 0
M  V30 17 C -0.589367 0.375041 1.391028 0
M  V30 18 N -1.697137 0.316148 0.509854 0
M  V30 19 C -2.458006 -0.900748 0.196250 0
M  V30 20 C -2.275495 -0.999427 -1.327666 0 CFG=1
M  V30 21 C -2.491477 -2.345406 -1.849126 0
M  V30 22 O -3.480087 -2.249641 -2.646680 0
M  V30 23 N -1.730899 -3.491272 -1.504847 0
M  V30 24 C -2.004646 -4.802250 -2.066678 0
M  V30 25 C -2.400948 -5.838143 -1.074969 0
M  V30 26 C -2.967960 -7.007832 -1.875856 0
M  V30 27 C -2.271166 -7.198223 -3.186201 0
M  V30 28 C -0.839713 -6.713883 -3.122040 0
M  V30 29 C -0.833377 -5.230678 -2.928921 0
M  V30 30 O -3.180523 -0.086737 -1.869195 0
M  V30 31 C -3.461708 0.969774 -1.044503 0
M  V30 32 C -2.265000 1.447736 -0.215007 0 CFG=1
M  V30 33 C -2.820750 2.401474 0.826254 0
M  V30 34 N -0.402093 -0.605535 2.270821 0
M  V30 35 H 1.698511 -0.761512 5.658438 0
M  V30 36 H 2.872963 -1.644508 4.546867 0
M  V30 37 H 1.800947 -2.523043 5.669046 0
M  V30 38 H 0.089197 -2.463003 4.058013 0
M  V30 39 H 3.428777 1.589143 3.924547 0
M  V30 40 H 5.183350 3.360557 4.057390 0
M  V30 41 H 7.021407 6.277683 3.386891 0
M  V30 42 H 7.173091 5.738695 2.646774 0
M  V30 43 H 2.837089 6.069858 -0.010159 0
M  V30 44 H 1.516475 3.708876 0.689484 0
M  V30 45 H 0.161543 2.205218 0.690361 0
M  V30 46 H -3.513137 -0.841853 0.477876 0
M  V30 47 H -2.010976 -1.776108 0.698986 0
M  V30 48 H -1.268297 -0.585920 -1.636438 0
M  V30 49 H -0.941934 -3.377763 -0.819660 0
M  V30 50 H -2.880084 -4.667355 -2.750350 0
M  V30 51 H -3.256511 -5.458457 -0.470022 0
M  V30 52 H -1.582904 -6.258245 -0.464364 0
M  V30 53 H -4.049345 -6.810685 -2.128824 0
M  V30 54 H -2.945231 -7.947993 -1.315437 0
M  V30 55 H -2.835893 -6.769410 -4.044345 0
M  V30 56 H -2.218367 -8.290439 -3.394437 0
M  V30 57 H -0.336235 -7.045427 -4.057694 0
M  V30 58 H -0.354091 -7.282541 -2.284650 0
M  V30 59 H -0.975090 -4.774770 -3.928548 0
M  V30 60 H 0.129126 -4.827703 -2.530297 0
M  V30 61 H -4.328639 0.820894 -0.371582 0
M  V30 62 H -3.738249 1.843968 -1.699831 0
M  V30 63 H -1.573664 1.938871 -0.901634 0
M  V30 64 H -2.898638 1.944662 1.838090 0
M  V30 65 H -2.197111 3.338625 0.870705 0
M  V30 66 H -3.841653 2.742582 0.561255 0
M  V30 END ATOM
M  V30 BEGIN BOND
M  V30 1 1 1 2
M  V30 2 1 2 3
M  V30 3 2 3 4
M  V30 4 1 4 5
M  V30 5 1 5 6
M  V30 6 2 6 7
M  V30 7 1 7 8
M  V30 8 2 8 9
M  V30 9 1 9 10
M  V30 10 1 10 11
M  V30 11 2 10 12
M  V30 12 1 12 13
M  V30 13 1 13 14
M  V30 14 2 14 15
M  V30 15 2 5 16
M  V30 16 1 16 17
M  V30 17 1 17 18
M  V30 18 1 18 19
M  V30 19 1 19 20
M  V30 20 1 20 21
M  V30 21 2 21 22
M  V30 22 1 21 23
M  V30 23 1 23 24
M  V30 24 1 24 25
M  V30 25 1 25 26
M  V30 26 1 26 27
M  V30 27 1 27 28
M  V30 28 1 28 29
M  V30 29 1 20 30
M  V30 30 1 30 31
M  V30 31 1 31 32
M  V30 32 1 32 33
M  V30 33 2 17 34
M  V30 34 1 34 3
M  V30 35 1 15 6
M  V30 36 1 32 18
M  V30 37 1 14 9
M  V30 38 1 29 24
M  V30 39 1 1 35
M  V30 40 1 1 36
M  V30 41 1 1 37
M  V30 42 1 2 38
M  V30 43 1 7 39
M  V30 44 1 8 40
M  V30 45 1 11 41
M  V30 46 1 11 42
M  V30 47 1 13 43
M  V30 48 1 15 44
M  V30 49 1 16 45
M  V30 50 1 19 46
M  V30 51 1 19 47
M  V30 52 1 20 48 CFG=1
M  V30 53 1 23 49
M  V30 54 1 24 50
M  V30 55 1 25 51
M  V30 56 1 25 52
M  V30 57 1 26 53
M  V30 58 1 26 54
M  V30 59 1 27 55
M  V30 60 1 27 56
M  V30 61 1 28 57
M  V30 62 1 28 58
M  V30 63 1 29 59
M  V30 64 1 29 60
M  V30 65 1 31 61
M  V30 66 1 31 62
M  V30 67 1 32 63 CFG=3
M  V30 68 1 33 64
M  V30 69 1 33 65
M  V30 70 1 33 66
M  V30 END BOND
M  V30 END CTAB
M  END
>  <Dataset>  (88) 
ChEMBL_Kinases

>  <Ligand_Instance>  (88) 
nan

>  <PDB_ID>  (88) 
nan

>  <Standardized_SMILES>  (88) 
CNc1nc(-c2ccc3c(N)n[nH]c3c2)cc(N2C[C@@H](C(=O)NC3CCCCC3)OC[C@H]2C)n1

>  <Name>  (88) 
nan

>  <Pocket>  (88) 
nan

>  <ATP_Site>  (88) 
nan

>  <Peripheral>  (88) 
nan

>  <Num_H_Atoms_ProtBoundConf>  (88) 
nan

>  <Num_Resolved_Atoms>  (88) 
nan

>  <Num_Not_Resolved_Atoms>  (88) 
nan

$$$$
CHEMBL176326
     RDKit          3D

  0  0  0  0  0  0  0  0  0  0999 V3000
M  V30 BEGIN CTAB
M  V30 COUNTS 35 38 0 0 0
M  V30 BEGIN ATOM
M  V30 1 N 3.482189 -5.357069 3.691915 0
M  V30 2 C 2.186741 -5.553209 3.162802 0
M  V30 3 O 1.673534 -6.692205 3.293308 0
M  V30 4 C 1.410142 -4.542504 2.484010 0
M  V30 5 C 0.157966 -4.888113 2.022262 0
M  V30 6 C -0.662209 -3.971020 1.353564 0
M  V30 7 C -0.192083 -2.668243 1.151206 0
M  V30 8 N -0.746228 -1.575430 0.547856 0
M  V30 9 C 0.132805 -0.560982 0.624795 0
M  V30 10 C -0.005389 0.809512 0.122645 0
M  V30 11 C 0.996993 1.761222 0.276257 0
M  V30 12 C 0.874879 3.053853 -0.193643 0
M  V30 13 C -0.309296 3.364894 -0.834882 0
M  V30 14 C -0.439994 4.656004 -1.308235 0
M  V30 15 C -1.599433 5.026766 -1.957302 0
M  V30 16 C -2.639099 4.122545 -2.143178 0
M  V30 17 C -2.487620 2.834780 -1.661393 0
M  V30 18 C -1.329749 2.453240 -1.009591 0
M  V30 19 C -1.184169 1.154653 -0.527048 0
M  V30 20 N 1.233729 -1.006540 1.270798 0
M  V30 21 C 1.067936 -2.303539 1.610422 0
M  V30 22 C 1.842354 -3.250484 2.267764 0
M  V30 23 H 4.168987 -6.133988 3.632521 0
M  V30 24 H 3.613263 -4.404626 4.105295 0
M  V30 25 H -0.289735 -5.881449 2.135760 0
M  V30 26 H -1.649987 -4.238060 0.987525 0
M  V30 27 H -1.692883 -1.526978 0.099573 0
M  V30 28 H 1.889338 1.410111 0.796861 0
M  V30 29 H 1.696029 3.707672 -0.027500 0
M  V30 30 H 0.352613 5.372312 -1.175165 0
M  V30 31 H -1.707419 6.035700 -2.329885 0
M  V30 32 H -3.566150 4.382903 -2.650594 0
M  V30 33 H -3.239165 2.064316 -1.758346 0
M  V30 34 H -1.983356 0.443234 -0.664699 0
M  V30 35 H 2.838632 -2.970728 2.633612 0
M  V30 END ATOM
M  V30 BEGIN BOND
M  V30 1 1 1 2
M  V30 2 2 2 3
M  V30 3 1 2 4
M  V30 4 2 4 5
M  V30 5 1 5 6
M  V30 6 2 6 7
M  V30 7 1 7 8
M  V30 8 1 8 9
M  V30 9 1 9 10
M  V30 10 2 10 11
M  V30 11 1 11 12
M  V30 12 2 12 13
M  V30 13 1 13 14
M  V30 14 2 14 15
M  V30 15 1 15 16
M  V30 16 2 16 17
M  V30 17 1 17 18
M  V30 18 2 18 19
M  V30 19 2 9 20
M  V30 20 1 20 21
M  V30 21 2 21 22
M  V30 22 1 22 4
M  V30 23 1 21 7
M  V30 24 1 19 10
M  V30 25 1 18 13
M  V30 26 1 1 23
M  V30 27 1 1 24
M  V30 28 1 5 25
M  V30 29 1 6 26
M  V30 30 1 8 27
M  V30 31 1 11 28
M  V30 32 1 12 29
M  V30 33 1 14 30
M  V30 34 1 15 31
M  V30 35 1 16 32
M  V30 36 1 17 33
M  V30 37 1 19 34
M  V30 38 1 22 35
M  V30 END BOND
M  V30 END CTAB
M  END
>  <Dataset>  (89) 
ChEMBL_Kinases

>  <Ligand_Instance>  (89) 
nan

>  <PDB_ID>  (89) 
nan

>  <Standardized_SMILES>  (89) 
NC(=O)c1ccc2[nH]c(-c3ccc4ccccc4c3)nc2c1

>  <Name>  (89) 
nan

>  <Pocket>  (89) 
nan

>  <ATP_Site>  (89) 
nan

>  <Peripheral>  (89) 
nan

>  <Num_H_Atoms_ProtBoundConf>  (89) 
nan

>  <Num_Resolved_Atoms>  (89) 
nan

>  <Num_Not_Resolved_Atoms>  (89) 
nan

$$$$
CHEMBL176554
     RDKit          3D

  0  0  0  0  0  0  0  0  0  0999 V3000
M  V30 BEGIN CTAB
M  V30 COUNTS 37 40 0 0 0
M  V30 BEGIN ATOM
M  V30 1 N 2.676884 -7.999248 4.679931 0
M  V30 2 C 2.408287 -7.211774 3.869592 0
M  V30 3 C 2.080578 -6.252920 2.851735 0
M  V30 4 C 1.788242 -6.619708 1.552974 0
M  V30 5 C 1.469994 -5.720335 0.554335 0
M  V30 6 C 1.459847 -4.393552 0.937561 0
M  V30 7 N 1.186656 -3.290755 0.186077 0
M  V30 8 C 1.286543 -2.183142 0.943939 0
M  V30 9 C 1.067594 -0.805262 0.499622 0
M  V30 10 C 0.723750 -0.583706 -0.819408 0
M  V30 11 C 0.522192 0.732280 -1.213150 0
M  V30 12 C 0.668602 1.758051 -0.293153 0
M  V30 13 O 0.456023 3.073220 -0.731699 0
M  V30 14 C -0.814096 3.637653 -0.662720 0
M  V30 15 C -1.107572 4.921786 -1.072179 0
M  V30 16 C -2.369468 5.474210 -1.000565 0
M  V30 17 C -3.415956 4.708305 -0.489848 0
M  V30 18 C -3.160964 3.416900 -0.069309 0
M  V30 19 C -1.880621 2.888631 -0.153857 0
M  V30 20 C 1.014180 1.534697 1.032311 0
M  V30 21 C 1.212389 0.221695 1.413469 0
M  V30 22 N 1.624567 -2.595160 2.178333 0
M  V30 23 C 1.740040 -3.936238 2.216196 0
M  V30 24 C 2.049815 -4.907234 3.157691 0
M  V30 25 H 1.819379 -7.686479 1.337742 0
M  V30 26 H 1.242407 -6.017988 -0.460633 0
M  V30 27 H 0.937143 -3.257088 -0.811547 0
M  V30 28 H 0.606945 -1.375836 -1.545000 0
M  V30 29 H 0.249196 0.946488 -2.248136 0
M  V30 30 H -0.265273 5.482603 -1.462729 0
M  V30 31 H -2.486369 6.491616 -1.350202 0
M  V30 32 H -4.408035 5.146895 -0.435126 0
M  V30 33 H -3.981730 2.816563 0.331109 0
M  V30 34 H -1.684012 1.863235 0.181339 0
M  V30 35 H 1.131559 2.319180 1.757764 0
M  V30 36 H 1.485644 -0.038329 2.434868 0
M  V30 37 H 2.263288 -4.515679 4.145643 0
M  V30 END ATOM
M  V30 BEGIN BOND
M  V30 1 3 1 2
M  V30 2 1 2 3
M  V30 3 2 3 4
M  V30 4 1 4 5
M  V30 5 2 5 6
M  V30 6 1 6 7
M  V30 7 1 7 8
M  V30 8 1 8 9
M  V30 9 2 9 10
M  V30 10 1 10 11
M  V30 11 2 11 12
M  V30 12 1 12 13
M  V30 13 1 13 14
M  V30 14 2 14 15
M  V30 15 1 15 16
M  V30 16 2 16 17
M  V30 17 1 17 18
M  V30 18 2 18 19
M  V30 19 1 12 20
M  V30 20 2 20 21
M  V30 21 2 8 22
M  V30 22 1 22 23
M  V30 23 2 23 24
M  V30 24 1 24 3
M  V30 25 1 23 6
M  V30 26 1 21 9
M  V30 27 1 19 14
M  V30 28 1 4 25
M  V30 29 1 5 26
M  V30 30 1 7 27
M  V30 31 1 10 28
M  V30 32 1 11 29
M  V30 33 1 15 30
M  V30 34 1 16 31
M  V30 35 1 17 32
M  V30 36 1 18 33
M  V30 37 1 19 34
M  V30 38 1 20 35
M  V30 39 1 21 36
M  V30 40 1 24 37
M  V30 END BOND
M  V30 END CTAB
M  END
>  <Dataset>  (90) 
ChEMBL_Kinases

>  <Ligand_Instance>  (90) 
nan

>  <PDB_ID>  (90) 
nan

>  <Standardized_SMILES>  (90) 
N#Cc1ccc2[nH]c(-c3ccc(Oc4ccccc4)cc3)nc2c1

>  <Name>  (90) 
nan

>  <Pocket>  (90) 
nan

>  <ATP_Site>  (90) 
nan

>  <Peripheral>  (90) 
nan

>  <Num_H_Atoms_ProtBoundConf>  (90) 
nan

>  <Num_Resolved_Atoms>  (90) 
nan

>  <Num_Not_Resolved_Atoms>  (90) 
nan

$$$$
CHEMBL1765602
     RDKit          3D

  0  0  0  0  0  0  0  0  0  0999 V3000
M  V30 BEGIN CTAB
M  V30 COUNTS 47 51 0 0 0
M  V30 BEGIN ATOM
M  V30 1 N -0.877046 -5.393276 4.390891 0
M  V30 2 C -0.225315 -4.276293 3.798306 0
M  V30 3 C 0.632901 -3.530940 4.580545 0
M  V30 4 C 1.258499 -2.437840 3.966853 0
M  V30 5 C 0.960128 -2.207197 2.639928 0
M  V30 6 C 1.586949 -1.080671 1.952968 0
M  V30 7 C 2.878750 -0.757754 2.390844 0
M  V30 8 C 3.651857 0.264341 1.886005 0
M  V30 9 C 3.099289 1.017373 0.874049 0
M  V30 10 N 3.901138 2.015895 0.406784 0
M  V30 11 C 3.398048 2.772997 -0.581325 0
M  V30 12 C 2.139342 2.538358 -1.082122 0
M  V30 13 C 1.662064 3.331073 -2.088898 0
M  V30 14 C 0.394613 3.043012 -2.545478 0
M  V30 15 C -0.375716 1.996220 -2.015446 0
M  V30 16 O -1.489785 1.990894 -2.646455 0
M  V30 17 N 0.151771 1.232897 -1.007275 0
M  V30 18 C -0.887523 0.331017 -0.764947 0
M  V30 19 C -0.905315 -0.851659 -1.548994 0
M  V30 20 C -1.965963 -1.715718 -1.394938 0
M  V30 21 C -2.975076 -1.419244 -0.495189 0
M  V30 22 C -2.985657 -0.276282 0.281824 0
M  V30 23 C -4.107712 -0.031658 1.224717 0
M  V30 24 F -5.321127 0.077886 0.573201 0
M  V30 25 F -3.806586 1.106746 1.943168 0
M  V30 26 F -4.117183 -1.103937 2.115232 0
M  V30 27 C -1.936919 0.607695 0.149466 0
M  V30 28 C 1.364809 1.529441 -0.589653 0
M  V30 29 C 1.852992 0.758092 0.403147 0
M  V30 30 C 1.150566 -0.257256 0.942130 0
M  V30 31 C 0.100298 -2.958401 1.865921 0
M  V30 32 N -0.495984 -4.017280 2.487596 0
M  V30 33 H -1.644707 -5.084203 5.026566 0
M  V30 34 H -0.974433 -6.423419 4.512590 0
M  V30 35 H 0.785370 -3.814151 5.614640 0
M  V30 36 H 1.932901 -1.837785 4.553881 0
M  V30 37 H 3.351954 -1.330823 3.189540 0
M  V30 38 H 4.633020 0.465577 2.259296 0
M  V30 39 H 3.995836 3.573871 -0.981943 0
M  V30 40 H 2.292414 4.123332 -2.462966 0
M  V30 41 H 0.096586 3.725980 -3.348370 0
M  V30 42 H -0.089290 -1.029917 -2.235185 0
M  V30 43 H -1.950880 -2.608195 -2.006432 0
M  V30 44 H -3.764581 -2.142614 -0.434616 0
M  V30 45 H -1.892393 1.515968 0.730170 0
M  V30 46 H 0.203075 -0.645438 0.761106 0
M  V30 47 H -0.095893 -2.730983 0.830464 0
M  V30 END ATOM
M  V30 BEGIN BOND
M  V30 1 1 1 2
M  V30 2 2 2 3
M  V30 3 1 3 4
M  V30 4 2 4 5
M  V30 5 1 5 6
M  V30 6 2 6 7
M  V30 7 1 7 8
M  V30 8 2 8 9
M  V30 9 1 9 10
M  V30 10 2 10 11
M  V30 11 1 11 12
M  V30 12 1 12 13
M  V30 13 2 13 14
M  V30 14 1 14 15
M  V30 15 2 15 16
M  V30 16 1 15 17
M  V30 17 1 17 18
M  V30 18 2 18 19
M  V30 19 1 19 20
M  V30 20 2 20 21
M  V30 21 1 21 22
M  V30 22 1 22 23
M  V30 23 1 23 24
M  V30 24 1 23 25
M  V30 25 1 23 26
M  V30 26 2 22 27
M  V30 27 1 17 28
M  V30 28 1 28 29
M  V30 29 2 29 30
M  V30 30 1 5 31
M  V30 31 2 31 32
M  V30 32 1 32 2
M  V30 33 1 30 6
M  V30 34 1 29 9
M  V30 35 2 28 12
M  V30 36 1 27 18
M  V30 37 1 1 33
M  V30 38 1 1 34
M  V30 39 1 3 35
M  V30 40 1 4 36
M  V30 41 1 7 37
M  V30 42 1 8 38
M  V30 43 1 11 39
M  V30 44 1 13 40
M  V30 45 1 14 41
M  V30 46 1 19 42
M  V30 47 1 20 43
M  V30 48 1 21 44
M  V30 49 1 27 45
M  V30 50 1 30 46
M  V30 51 1 31 47
M  V30 END BOND
M  V30 END CTAB
M  END
>  <Dataset>  (91) 
ChEMBL_Kinases

>  <Ligand_Instance>  (91) 
nan

>  <PDB_ID>  (91) 
nan

>  <Standardized_SMILES>  (91) 
Nc1ccc(-c2ccc3ncc4ccc(=O)n(-c5cccc(C(F)(F)F)c5)c4c3c2)cn1

>  <Name>  (91) 
nan

>  <Pocket>  (91) 
nan

>  <ATP_Site>  (91) 
nan

>  <Peripheral>  (91) 
nan

>  <Num_H_Atoms_ProtBoundConf>  (91) 
nan

>  <Num_Resolved_Atoms>  (91) 
nan

>  <Num_Not_Resolved_Atoms>  (91) 
nan

$$$$
CHEMBL1765714
     RDKit          3D

  0  0  0  0  0  0  0  0  0  0999 V3000
M  V30 BEGIN CTAB
M  V30 COUNTS 43 47 0 0 0
M  V30 BEGIN ATOM
M  V30 1 O -2.014215 -3.658769 0.026325 0
M  V30 2 C -1.235416 -2.847343 -0.588507 0
M  V30 3 C -1.331577 -3.145590 -1.957930 0
M  V30 4 C -0.614003 -2.452556 -2.912984 0
M  V30 5 C 0.202723 -1.450392 -2.442470 0
M  V30 6 C 0.941595 -0.736977 -3.358762 0
M  V30 7 N 1.742658 0.237129 -2.893820 0
M  V30 8 C 1.813138 0.501439 -1.555216 0
M  V30 9 C 2.663433 1.516446 -1.184026 0
M  V30 10 C 2.732728 1.779318 0.164108 0
M  V30 11 C 2.012395 1.097952 1.153570 0
M  V30 12 C 2.246771 1.551381 2.517636 0
M  V30 13 C 2.545428 2.852460 2.862123 0
M  V30 14 N 2.683964 2.851211 4.200499 0
M  V30 15 N 2.487859 1.627965 4.693550 0
M  V30 16 C 2.214904 0.804906 3.664495 0
M  V30 17 C 1.208365 0.115413 0.636508 0
M  V30 18 C 1.070210 -0.219068 -0.661095 0
M  V30 19 C 0.273063 -1.186289 -1.107643 0
M  V30 20 N -0.403321 -1.835517 -0.180871 0
M  V30 21 C -0.588546 -1.862179 1.203132 0
M  V30 22 C 0.234339 -2.691569 2.004724 0
M  V30 23 C 0.003744 -2.789796 3.347494 0
M  V30 24 C -1.015794 -2.092413 3.920214 0
M  V30 25 F -1.226567 -2.203020 5.252895 0
M  V30 26 C -1.812706 -1.287596 3.135492 0
M  V30 27 C -1.657996 -1.120798 1.754478 0
M  V30 28 C -2.556292 -0.251623 0.998834 0
M  V30 29 F -1.869526 0.765611 0.371135 0
M  V30 30 F -3.341410 -0.936948 0.091007 0
M  V30 31 F -3.407275 0.398521 1.905557 0
M  V30 32 H -1.949926 -3.917994 -2.406776 0
M  V30 33 H -0.652435 -2.640543 -3.961022 0
M  V30 34 H 0.867784 -0.966393 -4.413023 0
M  V30 35 H 3.221415 2.048198 -1.922355 0
M  V30 36 H 3.412650 2.587382 0.429382 0
M  V30 37 H 2.657800 3.738534 2.218490 0
M  V30 38 H 2.540795 1.364998 5.716039 0
M  V30 39 H 2.004692 -0.240754 3.673335 0
M  V30 40 H 0.763091 -0.262133 1.497341 0
M  V30 41 H 1.028610 -3.219342 1.487703 0
M  V30 42 H 0.685068 -3.446950 3.868171 0
M  V30 43 H -2.607252 -0.755693 3.641051 0
M  V30 END ATOM
M  V30 BEGIN BOND
M  V30 1 2 1 2
M  V30 2 1 2 3
M  V30 3 2 3 4
M  V30 4 1 4 5
M  V30 5 2 5 6
M  V30 6 1 6 7
M  V30 7 2 7 8
M  V30 8 1 8 9
M  V30 9 2 9 10
M  V30 10 1 10 11
M  V30 11 1 11 12
M  V30 12 1 12 13
M  V30 13 2 13 14
M  V30 14 1 14 15
M  V30 15 1 15 16
M  V30 16 2 11 17
M  V30 17 1 17 18
M  V30 18 2 18 19
M  V30 19 1 19 20
M  V30 20 1 20 21
M  V30 21 2 21 22
M  V30 22 1 22 23
M  V30 23 2 23 24
M  V30 24 1 24 25
M  V30 25 1 24 26
M  V30 26 2 26 27
M  V30 27 1 27 28
M  V30 28 1 28 29
M  V30 29 1 28 30
M  V30 30 1 28 31
M  V30 31 1 20 2
M  V30 32 1 27 21
M  V30 33 1 19 5
M  V30 34 1 18 8
M  V30 35 2 16 12
M  V30 36 1 3 32
M  V30 37 1 4 33
M  V30 38 1 6 34
M  V30 39 1 9 35
M  V30 40 1 10 36
M  V30 41 1 13 37
M  V30 42 1 15 38
M  V30 43 1 16 39
M  V30 44 1 17 40
M  V30 45 1 22 41
M  V30 46 1 23 42
M  V30 47 1 26 43
M  V30 END BOND
M  V30 END CTAB
M  END
>  <Dataset>  (92) 
ChEMBL_Kinases

>  <Ligand_Instance>  (92) 
nan

>  <PDB_ID>  (92) 
nan

>  <Standardized_SMILES>  (92) 
O=c1ccc2cnc3ccc(-c4cn[nH]c4)cc3c2n1-c1ccc(F)cc1C(F)(F)F

>  <Name>  (92) 
nan

>  <Pocket>  (92) 
nan

>  <ATP_Site>  (92) 
nan

>  <Peripheral>  (92) 
nan

>  <Num_H_Atoms_ProtBoundConf>  (92) 
nan

>  <Num_Resolved_Atoms>  (92) 
nan

>  <Num_Not_Resolved_Atoms>  (92) 
nan

$$$$
CHEMBL1765738
     RDKit          3D

  0  0  0  0  0  0  0  0  0  0999 V3000
M  V30 BEGIN CTAB
M  V30 COUNTS 62 66 0 0 0
M  V30 BEGIN ATOM
M  V30 1 C 2.906140 -1.232316 4.665209 0
M  V30 2 N 1.667683 -1.487726 3.971449 0
M  V30 3 C 1.264486 -0.609642 2.927692 0
M  V30 4 N 2.041587 0.456556 2.596833 0
M  V30 5 C 1.692069 1.306907 1.615782 0
M  V30 6 C 2.592238 2.422176 1.336048 0
M  V30 7 C 3.738077 2.527736 2.095830 0
M  V30 8 C 4.652616 3.563350 1.895189 0
M  V30 9 C 4.402345 4.487140 0.925911 0
M  V30 10 C 5.066349 5.603448 0.471164 0
M  V30 11 N 6.294830 6.128903 0.936531 0
M  V30 12 N 4.334227 6.143413 -0.529738 0
M  V30 13 N 3.254986 5.436472 -0.730109 0
M  V30 14 C 3.266617 4.407885 0.151145 0
M  V30 15 C 2.355005 3.365077 0.360096 0
M  V30 16 C 0.518942 1.102258 0.921561 0
M  V30 17 C -0.272985 0.038888 1.238827 0
M  V30 18 N -1.505074 -0.283654 0.600099 0
M  V30 19 C -2.313676 -1.444236 1.005871 0
M  V30 20 C -2.313990 -2.342824 -0.214268 0 CFG=1
M  V30 21 C -2.770724 -3.715566 0.116191 0
M  V30 22 O -3.168744 -4.392390 1.099924 0
M  V30 23 N -2.749003 -4.516663 -1.059648 0
M  V30 24 C -3.122352 -5.891359 -1.128804 0
M  V30 25 C -4.404281 -6.290258 -1.394512 0
M  V30 26 C -4.740171 -7.624428 -1.456628 0
M  V30 27 C -3.791749 -8.608136 -1.252102 0
M  V30 28 C -2.487144 -8.231885 -0.981480 0
M  V30 29 C -2.194548 -6.886259 -0.928537 0
M  V30 30 C -3.230381 -1.645775 -1.209334 0
M  V30 31 C -2.523716 -0.401911 -1.648624 0
M  V30 32 C -2.083882 0.475672 -0.492201 0 CFG=1
M  V30 33 C -3.359004 1.179789 -0.014380 0
M  V30 34 N 0.127570 -0.778040 2.229420 0
M  V30 35 H 3.670209 -2.011250 4.464280 0
M  V30 36 H 3.347295 -0.269896 4.337579 0
M  V30 37 H 2.694336 -1.112868 5.746442 0
M  V30 38 H 1.068624 -2.296999 4.219461 0
M  V30 39 H 4.034984 1.851062 2.889941 0
M  V30 40 H 5.572971 3.684310 2.475242 0
M  V30 41 H 7.163022 5.924010 0.359942 0
M  V30 42 H 7.057126 5.850456 0.275360 0
M  V30 43 H 2.477052 5.566855 -1.417369 0
M  V30 44 H 1.474636 3.304566 -0.241622 0
M  V30 45 H 0.221313 1.754925 0.146463 0
M  V30 46 H -1.824013 -1.928678 1.875168 0
M  V30 47 H -3.346550 -1.129655 1.201875 0
M  V30 48 H -1.307843 -2.386808 -0.676480 0
M  V30 49 H -2.500505 -4.384862 -2.064061 0
M  V30 50 H -5.196607 -5.555367 -1.564897 0
M  V30 51 H -5.771902 -7.944474 -1.670365 0
M  V30 52 H -3.994503 -9.670910 -1.287944 0
M  V30 53 H -1.683702 -8.929691 -0.809346 0
M  V30 54 H -1.169292 -6.577542 -0.715951 0
M  V30 55 H -4.164017 -1.433312 -0.642275 0
M  V30 56 H -3.388603 -2.286158 -2.074500 0
M  V30 57 H -3.226617 0.200739 -2.256973 0
M  V30 58 H -1.657512 -0.728044 -2.273748 0
M  V30 59 H -1.460850 1.273186 -0.886351 0
M  V30 60 H -3.196244 1.749612 0.913953 0
M  V30 61 H -3.617418 1.914178 -0.805006 0
M  V30 62 H -4.220917 0.487770 0.044483 0
M  V30 END ATOM
M  V30 BEGIN BOND
M  V30 1 1 1 2
M  V30 2 1 2 3
M  V30 3 2 3 4
M  V30 4 1 4 5
M  V30 5 1 5 6
M  V30 6 2 6 7
M  V30 7 1 7 8
M  V30 8 2 8 9
M  V30 9 1 9 10
M  V30 10 1 10 11
M  V30 11 2 10 12
M  V30 12 1 12 13
M  V30 13 1 13 14
M  V30 14 2 14 15
M  V30 15 2 5 16
M  V30 16 1 16 17
M  V30 17 1 17 18
M  V30 18 1 18 19
M  V30 19 1 19 20
M  V30 20 1 20 21
M  V30 21 2 21 22
M  V30 22 1 21 23
M  V30 23 1 23 24
M  V30 24 2 24 25
M  V30 25 1 25 26
M  V30 26 2 26 27
M  V30 27 1 27 28
M  V30 28 2 28 29
M  V30 29 1 20 30
M  V30 30 1 30 31
M  V30 31 1 31 32
M  V30 32 1 32 33
M  V30 33 2 17 34
M  V30 34 1 34 3
M  V30 35 1 15 6
M  V30 36 1 32 18
M  V30 37 1 14 9
M  V30 38 1 29 24
M  V30 39 1 1 35
M  V30 40 1 1 36
M  V30 41 1 1 37
M  V30 42 1 2 38
M  V30 43 1 7 39
M  V30 44 1 8 40
M  V30 45 1 11 41
M  V30 46 1 11 42
M  V30 47 1 13 43
M  V30 48 1 15 44
M  V30 49 1 16 45
M  V30 50 1 19 46
M  V30 51 1 19 47
M  V30 52 1 20 48 CFG=3
M  V30 53 1 23 49
M  V30 54 1 25 50
M  V30 55 1 26 51
M  V30 56 1 27 52
M  V30 57 1 28 53
M  V30 58 1 29 54
M  V30 59 1 30 55
M  V30 60 1 30 56
M  V30 61 1 31 57
M  V30 62 1 31 58
M  V30 63 1 32 59 CFG=3
M  V30 64 1 33 60
M  V30 65 1 33 61
M  V30 66 1 33 62
M  V30 END BOND
M  V30 END CTAB
M  END
>  <Dataset>  (93) 
ChEMBL_Kinases

>  <Ligand_Instance>  (93) 
nan

>  <PDB_ID>  (93) 
nan

>  <Standardized_SMILES>  (93) 
CNc1nc(-c2ccc3c(N)n[nH]c3c2)cc(N2C[C@@H](C(=O)Nc3ccccc3)CC[C@H]2C)n1

>  <Name>  (93) 
nan

>  <Pocket>  (93) 
nan

>  <ATP_Site>  (93) 
nan

>  <Peripheral>  (93) 
nan

>  <Num_H_Atoms_ProtBoundConf>  (93) 
nan

>  <Num_Resolved_Atoms>  (93) 
nan

>  <Num_Not_Resolved_Atoms>  (93) 
nan

$$$$
CHEMBL1765739
     RDKit          3D

  0  0  0  0  0  0  0  0  0  0999 V3000
M  V30 BEGIN CTAB
M  V30 COUNTS 65 69 0 0 0
M  V30 BEGIN ATOM
M  V30 1 C 2.453993 2.101089 2.300688 0
M  V30 2 C 3.048172 0.733613 2.359360 0 CFG=2
M  V30 3 C 4.192211 0.550753 1.386212 0
M  V30 4 C 3.696635 0.275894 -0.016422 0
M  V30 5 C 2.832342 -0.967108 -0.064352 0 CFG=2
M  V30 6 C 1.563927 -0.622892 -0.708519 0
M  V30 7 O 0.308473 -0.580447 -0.550513 0
M  V30 8 N 1.787353 -0.138283 -2.050141 0
M  V30 9 C 0.768707 0.299940 -3.000255 0
M  V30 10 C 0.826673 -0.582491 -4.205576 0
M  V30 11 C -0.233289 -0.134484 -5.177298 0
M  V30 12 C -0.136251 1.338897 -5.493691 0
M  V30 13 C -0.298957 2.112022 -4.188038 0
M  V30 14 C 0.934007 1.759314 -3.359990 0
M  V30 15 C 2.518575 -1.408023 1.368864 0
M  V30 16 N 2.052207 -0.300122 2.175277 0
M  V30 17 C 0.771435 -0.174172 2.753797 0
M  V30 18 C -0.225538 -1.114440 2.605828 0
M  V30 19 C -1.472425 -0.976257 3.178099 0
M  V30 20 C -2.556705 -1.939949 3.047821 0
M  V30 21 C -3.737007 -1.642333 3.683550 0
M  V30 22 C -4.850401 -2.488636 3.632732 0
M  V30 23 C -4.693889 -3.641883 2.905635 0
M  V30 24 C -5.513413 -4.706206 2.612838 0
M  V30 25 N -6.844096 -4.931906 3.007880 0
M  V30 26 N -4.893103 -5.610751 1.846612 0
M  V30 27 N -3.659184 -5.191819 1.604024 0
M  V30 28 C -3.539124 -3.994471 2.248384 0
M  V30 29 C -2.454914 -3.112917 2.331079 0
M  V30 30 N -1.691045 0.134256 3.904606 0
M  V30 31 C -0.711769 1.073869 4.059361 0
M  V30 32 N -1.027287 2.220672 4.845453 0
M  V30 33 N 0.494494 0.913386 3.490061 0
M  V30 34 H 2.281860 2.473270 3.318234 0
M  V30 35 H 3.234302 2.761474 1.839053 0
M  V30 36 H 1.525790 2.120904 1.691892 0
M  V30 37 H 3.465901 0.568067 3.378352 0
M  V30 38 H 4.745290 1.501508 1.350897 0
M  V30 39 H 4.889444 -0.233447 1.693258 0
M  V30 40 H 4.569876 0.099161 -0.644947 0
M  V30 41 H 3.168493 1.163461 -0.417884 0
M  V30 42 H 3.355175 -1.796104 -0.548171 0
M  V30 43 H 2.691041 -0.007745 -2.592405 0
M  V30 44 H -0.235260 0.207647 -2.543016 0
M  V30 45 H 0.593241 -1.613425 -3.886937 0
M  V30 46 H 1.837373 -0.618203 -4.665615 0
M  V30 47 H -0.069368 -0.693649 -6.125934 0
M  V30 48 H -1.220807 -0.427167 -4.792871 0
M  V30 49 H 0.879419 1.530694 -5.880405 0
M  V30 50 H -0.905521 1.588052 -6.222281 0
M  V30 51 H -0.445480 3.180882 -4.329517 0
M  V30 52 H -1.163559 1.634355 -3.663478 0
M  V30 53 H 1.857734 1.886051 -3.955269 0
M  V30 54 H 0.912945 2.333149 -2.430273 0
M  V30 55 H 1.836711 -2.270849 1.365942 0
M  V30 56 H 3.494529 -1.724299 1.829966 0
M  V30 57 H -0.055827 -1.991547 2.033325 0
M  V30 58 H -3.889420 -0.741409 4.262798 0
M  V30 59 H -5.793880 -2.313031 4.104293 0
M  V30 60 H -7.490502 -4.570783 2.249621 0
M  V30 61 H -7.733649 -5.156849 3.421898 0
M  V30 62 H -2.959332 -5.700020 1.035744 0
M  V30 63 H -1.543992 -3.356465 1.832394 0
M  V30 64 H -1.774102 2.911113 4.661028 0
M  V30 65 H -0.450296 2.393288 5.701732 0
M  V30 END ATOM
M  V30 BEGIN BOND
M  V30 1 1 1 2
M  V30 2 1 2 3
M  V30 3 1 3 4
M  V30 4 1 4 5
M  V30 5 1 5 6
M  V30 6 2 6 7
M  V30 7 1 6 8
M  V30 8 1 8 9
M  V30 9 1 9 10
M  V30 10 1 10 11
M  V30 11 1 11 12
M  V30 12 1 12 13
M  V30 13 1 13 14
M  V30 14 1 5 15
M  V30 15 1 15 16
M  V30 16 1 16 17
M  V30 17 2 17 18
M  V30 18 1 18 19
M  V30 19 1 19 20
M  V30 20 2 20 21
M  V30 21 1 21 22
M  V30 22 2 22 23
M  V30 23 1 23 24
M  V30 24 1 24 25
M  V30 25 2 24 26
M  V30 26 1 26 27
M  V30 27 1 27 28
M  V30 28 2 28 29
M  V30 29 2 19 30
M  V30 30 1 30 31
M  V30 31 1 31 32
M  V30 32 2 31 33
M  V30 33 1 16 2
M  V30 34 1 33 17
M  V30 35 1 14 9
M  V30 36 1 29 20
M  V30 37 1 28 23
M  V30 38 1 1 34
M  V30 39 1 1 35
M  V30 40 1 1 36
M  V30 41 1 2 37 CFG=1
M  V30 42 1 3 38
M  V30 43 1 3 39
M  V30 44 1 4 40
M  V30 45 1 4 41
M  V30 46 1 5 42 CFG=3
M  V30 47 1 8 43
M  V30 48 1 9 44
M  V30 49 1 10 45
M  V30 50 1 10 46
M  V30 51 1 11 47
M  V30 52 1 11 48
M  V30 53 1 12 49
M  V30 54 1 12 50
M  V30 55 1 13 51
M  V30 56 1 13 52
M  V30 57 1 14 53
M  V30 58 1 14 54
M  V30 59 1 15 55
M  V30 60 1 15 56
M  V30 61 1 18 57
M  V30 62 1 21 58
M  V30 63 1 22 59
M  V30 64 1 25 60
M  V30 65 1 25 61
M  V30 66 1 27 62
M  V30 67 1 29 63
M  V30 68 1 32 64
M  V30 69 1 32 65
M  V30 END BOND
M  V30 END CTAB
M  END
>  <Dataset>  (94) 
ChEMBL_Kinases

>  <Ligand_Instance>  (94) 
nan

>  <PDB_ID>  (94) 
nan

>  <Standardized_SMILES>  (94) 
C[C@@H]1CC[C@H](C(=O)NC2CCCCC2)CN1c1cc(-c2ccc3c(N)n[nH]c3c2)nc(N)n1

>  <Name>  (94) 
nan

>  <Pocket>  (94) 
nan

>  <ATP_Site>  (94) 
nan

>  <Peripheral>  (94) 
nan

>  <Num_H_Atoms_ProtBoundConf>  (94) 
nan

>  <Num_Resolved_Atoms>  (94) 
nan

>  <Num_Not_Resolved_Atoms>  (94) 
nan

$$$$
CHEMBL1765741
     RDKit          3D

  0  0  0  0  0  0  0  0  0  0999 V3000
M  V30 BEGIN CTAB
M  V30 COUNTS 57 61 0 0 0
M  V30 BEGIN ATOM
M  V30 1 C 1.492274 -1.139834 2.363062 0
M  V30 2 C 1.420568 -1.178074 0.843742 0 CFG=2
M  V30 3 C 2.727793 -0.657999 0.252445 0
M  V30 4 O 2.426422 0.013706 -0.941057 0
M  V30 5 C 1.847573 1.267024 -0.665946 0 CFG=2
M  V30 6 C 2.874523 2.195878 -0.120765 0
M  V30 7 O 4.112329 2.178641 0.164203 0
M  V30 8 N 2.376508 3.489017 0.185901 0
M  V30 9 C 3.318625 4.443519 0.721400 0
M  V30 10 C 3.336435 4.359465 2.093275 0
M  V30 11 C 4.179413 5.195425 2.826332 0
M  V30 12 C 4.982330 6.094065 2.156115 0
M  V30 13 C 4.945497 6.158017 0.777961 0
M  V30 14 C 4.115578 5.336415 0.037873 0
M  V30 15 C 0.675011 1.118836 0.278163 0
M  V30 16 N 0.375803 -0.300367 0.349799 0
M  V30 17 C -0.915770 -0.788591 -0.060070 0
M  V30 18 C -1.304502 -2.087041 0.024972 0
M  V30 19 C -2.535180 -2.568144 -0.364673 0
M  V30 20 C -2.929356 -3.965306 -0.263151 0
M  V30 21 C -2.161147 -4.997438 0.223482 0
M  V30 22 C -2.582261 -6.305813 0.298683 0
M  V30 23 C -3.864901 -6.641002 -0.138054 0
M  V30 24 C -4.601606 -7.811015 -0.210620 0
M  V30 25 N -4.039010 -9.041294 0.233195 0
M  V30 26 N -5.802469 -7.474564 -0.738423 0
M  V30 27 N -5.820469 -6.163871 -0.984733 0
M  V30 28 C -4.642406 -5.612839 -0.627749 0
M  V30 29 C -4.204676 -4.307327 -0.696132 0
M  V30 30 N -3.389636 -1.626902 -0.866759 0
M  V30 31 C -3.001730 -0.342895 -0.949601 0
M  V30 32 N -4.016284 0.506883 -1.497103 0
M  V30 33 N -1.793389 0.099138 -0.561342 0
M  V30 34 H 2.549702 -1.324621 2.626777 0
M  V30 35 H 0.782875 -1.882191 2.749969 0
M  V30 36 H 1.225148 -0.146775 2.760624 0
M  V30 37 H 1.308700 -2.227084 0.569351 0
M  V30 38 H 3.362134 -1.506242 -0.000329 0
M  V30 39 H 3.293324 -0.039913 0.971680 0
M  V30 40 H 1.433621 1.613712 -1.635493 0
M  V30 41 H 1.405186 3.881436 0.085706 0
M  V30 42 H 2.761358 3.704137 2.733642 0
M  V30 43 H 4.240049 5.178669 3.916296 0
M  V30 44 H 5.641799 6.749601 2.706078 0
M  V30 45 H 5.542183 6.832779 0.185465 0
M  V30 46 H 3.996132 5.290272 -1.034408 0
M  V30 47 H 0.939838 1.493342 1.304645 0
M  V30 48 H -0.194453 1.709379 -0.063930 0
M  V30 49 H -0.622492 -2.816613 0.422721 0
M  V30 50 H -1.179667 -4.759564 0.561511 0
M  V30 51 H -1.939338 -7.074340 0.688405 0
M  V30 52 H -4.475998 -9.460936 1.077760 0
M  V30 53 H -3.246328 -9.588247 -0.168192 0
M  V30 54 H -6.671197 -5.743087 -1.392288 0
M  V30 55 H -4.854267 -3.531152 -1.090287 0
M  V30 56 H -4.472768 0.317396 -2.400878 0
M  V30 57 H -4.365413 1.370582 -1.028161 0
M  V30 END ATOM
M  V30 BEGIN BOND
M  V30 1 1 1 2
M  V30 2 1 2 3
M  V30 3 1 3 4
M  V30 4 1 4 5
M  V30 5 1 5 6
M  V30 6 2 6 7
M  V30 7 1 6 8
M  V30 8 1 8 9
M  V30 9 2 9 10
M  V30 10 1 10 11
M  V30 11 2 11 12
M  V30 12 1 12 13
M  V30 13 2 13 14
M  V30 14 1 5 15
M  V30 15 1 15 16
M  V30 16 1 16 17
M  V30 17 2 17 18
M  V30 18 1 18 19
M  V30 19 1 19 20
M  V30 20 2 20 21
M  V30 21 1 21 22
M  V30 22 2 22 23
M  V30 23 1 23 24
M  V30 24 1 24 25
M  V30 25 2 24 26
M  V30 26 1 26 27
M  V30 27 1 27 28
M  V30 28 2 28 29
M  V30 29 2 19 30
M  V30 30 1 30 31
M  V30 31 1 31 32
M  V30 32 2 31 33
M  V30 33 1 16 2
M  V30 34 1 33 17
M  V30 35 1 14 9
M  V30 36 1 29 20
M  V30 37 1 28 23
M  V30 38 1 1 34
M  V30 39 1 1 35
M  V30 40 1 1 36
M  V30 41 1 2 37 CFG=1
M  V30 42 1 3 38
M  V30 43 1 3 39
M  V30 44 1 5 40 CFG=3
M  V30 45 1 8 41
M  V30 46 1 10 42
M  V30 47 1 11 43
M  V30 48 1 12 44
M  V30 49 1 13 45
M  V30 50 1 14 46
M  V30 51 1 15 47
M  V30 52 1 15 48
M  V30 53 1 18 49
M  V30 54 1 21 50
M  V30 55 1 22 51
M  V30 56 1 25 52
M  V30 57 1 25 53
M  V30 58 1 27 54
M  V30 59 1 29 55
M  V30 60 1 32 56
M  V30 61 1 32 57
M  V30 END BOND
M  V30 END CTAB
M  END
>  <Dataset>  (95) 
ChEMBL_Kinases

>  <Ligand_Instance>  (95) 
nan

>  <PDB_ID>  (95) 
nan

>  <Standardized_SMILES>  (95) 
C[C@@H]1CO[C@H](C(=O)Nc2ccccc2)CN1c1cc(-c2ccc3c(N)n[nH]c3c2)nc(N)n1

>  <Name>  (95) 
nan

>  <Pocket>  (95) 
nan

>  <ATP_Site>  (95) 
nan

>  <Peripheral>  (95) 
nan

>  <Num_H_Atoms_ProtBoundConf>  (95) 
nan

>  <Num_Resolved_Atoms>  (95) 
nan

>  <Num_Not_Resolved_Atoms>  (95) 
nan

$$$$
CHEMBL1765742
     RDKit          3D

  0  0  0  0  0  0  0  0  0  0999 V3000
M  V30 BEGIN CTAB
M  V30 COUNTS 63 67 0 0 0
M  V30 BEGIN ATOM
M  V30 1 C -1.806794 -2.111829 -3.399627 0
M  V30 2 C -0.432150 -1.577178 -3.145326 0
M  V30 3 C 0.235772 -2.085731 -1.907282 0 CFG=2
M  V30 4 C 0.375069 -3.571378 -1.975262 0
M  V30 5 O 0.790077 -4.127755 -0.789842 0
M  V30 6 C 0.056781 -3.743950 0.302555 0 CFG=2
M  V30 7 C -0.480839 -4.956371 0.968087 0
M  V30 8 O -0.228663 -6.086128 0.493291 0
M  V30 9 N -1.240829 -4.653672 2.102865 0
M  V30 10 C -1.951388 -5.421158 3.063537 0
M  V30 11 C -1.269033 -5.849073 4.208079 0
M  V30 12 C -1.785553 -6.597788 5.246849 0
M  V30 13 C -3.111983 -6.949074 5.123210 0
M  V30 14 C -3.842819 -6.558705 4.018012 0
M  V30 15 C -3.279684 -5.813025 3.011112 0
M  V30 16 C -1.024701 -2.732643 -0.040004 0
M  V30 17 N -0.303986 -1.617296 -0.671249 0
M  V30 18 C -0.200271 -0.336628 -0.104238 0
M  V30 19 C 0.473738 0.749747 -0.615517 0
M  V30 20 C 0.489130 1.949303 0.052432 0
M  V30 21 C 1.205890 3.092081 -0.496660 0
M  V30 22 C 1.908179 3.094498 -1.682473 0
M  V30 23 C 2.579523 4.189038 -2.181461 0
M  V30 24 C 2.574207 5.376693 -1.482518 0
M  V30 25 C 3.107804 6.646653 -1.646608 0
M  V30 26 N 3.905034 7.033362 -2.769456 0
M  V30 27 N 2.729578 7.379660 -0.581210 0
M  V30 28 N 1.987464 6.655341 0.252244 0
M  V30 29 C 1.881660 5.414291 -0.290085 0
M  V30 30 C 1.219237 4.300620 0.182862 0
M  V30 31 N -0.152892 2.071738 1.208831 0
M  V30 32 C -0.816791 1.023316 1.724911 0
M  V30 33 N -1.525661 1.113034 2.975121 0
M  V30 34 C -1.160109 0.878641 4.377382 0
M  V30 35 N -0.843654 -0.158393 1.086801 0
M  V30 36 H -2.188168 -1.525067 -4.286684 0
M  V30 37 H -1.817077 -3.154426 -3.726325 0
M  V30 38 H -2.544269 -1.949693 -2.614634 0
M  V30 39 H 0.202607 -1.948733 -3.999808 0
M  V30 40 H -0.374301 -0.476863 -3.232460 0
M  V30 41 H 1.287231 -1.673694 -1.951844 0
M  V30 42 H -0.610615 -4.005771 -2.248515 0
M  V30 43 H 1.109466 -3.768492 -2.810952 0
M  V30 44 H 0.690095 -3.238715 1.082035 0
M  V30 45 H -1.443010 -3.720958 2.486781 0
M  V30 46 H -0.222538 -5.567364 4.296737 0
M  V30 47 H -1.172330 -6.868865 6.074127 0
M  V30 48 H -3.553794 -7.540851 5.925917 0
M  V30 49 H -4.886799 -6.829493 3.910446 0
M  V30 50 H -3.816559 -5.481674 2.120260 0
M  V30 51 H -1.732134 -3.213084 -0.745094 0
M  V30 52 H -1.530860 -2.429190 0.887400 0
M  V30 53 H 0.960616 0.571785 -1.540732 0
M  V30 54 H 1.940633 2.189979 -2.262832 0
M  V30 55 H 3.120478 4.159447 -3.113275 0
M  V30 56 H 3.665997 7.950845 -3.244041 0
M  V30 57 H 4.684673 6.388786 -3.065068 0
M  V30 58 H 1.590071 7.033990 1.144342 0
M  V30 59 H 0.683443 4.355883 1.120390 0
M  V30 60 H -2.541919 1.410386 2.930210 0
M  V30 61 H -1.809480 0.101125 4.824672 0
M  V30 62 H -1.289262 1.792615 4.990556 0
M  V30 63 H -0.119003 0.485286 4.449325 0
M  V30 END ATOM
M  V30 BEGIN BOND
M  V30 1 1 1 2
M  V30 2 1 2 3
M  V30 3 1 3 4
M  V30 4 1 4 5
M  V30 5 1 5 6
M  V30 6 1 6 7
M  V30 7 2 7 8
M  V30 8 1 7 9
M  V30 9 1 9 10
M  V30 10 2 10 11
M  V30 11 1 11 12
M  V30 12 2 12 13
M  V30 13 1 13 14
M  V30 14 2 14 15
M  V30 15 1 6 16
M  V30 16 1 16 17
M  V30 17 1 17 18
M  V30 18 2 18 19
M  V30 19 1 19 20
M  V30 20 1 20 21
M  V30 21 2 21 22
M  V30 22 1 22 23
M  V30 23 2 23 24
M  V30 24 1 24 25
M  V30 25 1 25 26
M  V30 26 2 25 27
M  V30 27 1 27 28
M  V30 28 1 28 29
M  V30 29 2 29 30
M  V30 30 2 20 31
M  V30 31 1 31 32
M  V30 32 1 32 33
M  V30 33 1 33 34
M  V30 34 2 32 35
M  V30 35 1 17 3
M  V30 36 1 35 18
M  V30 37 1 15 10
M  V30 38 1 30 21
M  V30 39 1 29 24
M  V30 40 1 1 36
M  V30 41 1 1 37
M  V30 42 1 1 38
M  V30 43 1 2 39
M  V30 44 1 2 40
M  V30 45 1 3 41 CFG=3
M  V30 46 1 4 42
M  V30 47 1 4 43
M  V30 48 1 6 44 CFG=1
M  V30 49 1 9 45
M  V30 50 1 11 46
M  V30 51 1 12 47
M  V30 52 1 13 48
M  V30 53 1 14 49
M  V30 54 1 15 50
M  V30 55 1 16 51
M  V30 56 1 16 52
M  V30 57 1 19 53
M  V30 58 1 22 54
M  V30 59 1 23 55
M  V30 60 1 26 56
M  V30 61 1 26 57
M  V30 62 1 28 58
M  V30 63 1 30 59
M  V30 64 1 33 60
M  V30 65 1 34 61
M  V30 66 1 34 62
M  V30 67 1 34 63
M  V30 END BOND
M  V30 END CTAB
M  END
>  <Dataset>  (96) 
ChEMBL_Kinases

>  <Ligand_Instance>  (96) 
nan

>  <PDB_ID>  (96) 
nan

>  <Standardized_SMILES>  (96) 
CC[C@@H]1CO[C@H](C(=O)Nc2ccccc2)CN1c1cc(-c2ccc3c(N)n[nH]c3c2)nc(NC)n1

>  <Name>  (96) 
nan

>  <Pocket>  (96) 
nan

>  <ATP_Site>  (96) 
nan

>  <Peripheral>  (96) 
nan

>  <Num_H_Atoms_ProtBoundConf>  (96) 
nan

>  <Num_Resolved_Atoms>  (96) 
nan

>  <Num_Not_Resolved_Atoms>  (96) 
nan

$$$$
CHEMBL176276
     RDKit          3D

  0  0  0  0  0  0  0  0  0  0999 V3000
M  V30 BEGIN CTAB
M  V30 COUNTS 40 43 0 0 0
M  V30 BEGIN ATOM
M  V30 1 N -0.368261 -4.942783 -1.546919 0
M  V30 2 C 0.702187 -5.743624 -1.061522 0
M  V30 3 O 0.685376 -6.969956 -1.336961 0
M  V30 4 C 1.778210 -5.156077 -0.272569 0
M  V30 5 C 2.798297 -5.965760 0.179909 0
M  V30 6 C 3.831440 -5.469214 0.922812 0
M  V30 7 C 3.809651 -4.104885 1.204361 0
M  V30 8 C 2.804215 -3.297652 0.760367 0
M  V30 9 N 2.555506 -1.997490 0.888453 0
M  V30 10 C 1.398495 -1.650283 0.251763 0
M  V30 11 C 0.791049 -0.311649 0.167482 0
M  V30 12 C -0.392800 -0.117787 -0.518869 0
M  V30 13 C -0.943104 1.148866 -0.583556 0
M  V30 14 C -0.325477 2.222951 0.028595 0
M  V30 15 O -0.796588 3.530496 0.021463 0
M  V30 16 C -1.649865 3.913518 1.050171 0
M  V30 17 C -1.002990 4.438534 2.175689 0
M  V30 18 C -1.734687 4.859316 3.273585 0
M  V30 19 C -3.104381 4.768457 3.275828 0
M  V30 20 C -3.724455 4.254326 2.171547 0
M  V30 21 C -3.033533 3.821075 1.050902 0
M  V30 22 C 0.872904 2.006957 0.719101 0
M  V30 23 C 1.447776 0.745123 0.799943 0
M  V30 24 N 0.936691 -2.776460 -0.275792 0
M  V30 25 C 1.750041 -3.807635 0.001623 0
M  V30 26 H -1.319959 -5.130033 -1.117417 0
M  V30 27 H -0.679571 -4.199592 -2.176694 0
M  V30 28 H 2.760260 -7.001910 -0.067493 0
M  V30 29 H 4.618907 -6.138037 1.262634 0
M  V30 30 H 4.629139 -3.676519 1.801086 0
M  V30 31 H 3.163431 -1.326090 1.407581 0
M  V30 32 H -0.887569 -0.946067 -1.002296 0
M  V30 33 H -1.868709 1.346052 -1.110324 0
M  V30 34 H 0.063486 4.539785 2.245231 0
M  V30 35 H -1.239401 5.266334 4.147095 0
M  V30 36 H -3.667631 5.099627 4.137931 0
M  V30 37 H -4.796878 4.154259 2.105707 0
M  V30 38 H -3.470917 3.409498 0.157655 0
M  V30 39 H 1.438528 2.794085 1.237230 0
M  V30 40 H 2.374667 0.561797 1.330494 0
M  V30 END ATOM
M  V30 BEGIN BOND
M  V30 1 1 1 2
M  V30 2 2 2 3
M  V30 3 1 2 4
M  V30 4 2 4 5
M  V30 5 1 5 6
M  V30 6 2 6 7
M  V30 7 1 7 8
M  V30 8 1 8 9
M  V30 9 1 9 10
M  V30 10 1 10 11
M  V30 11 2 11 12
M  V30 12 1 12 13
M  V30 13 2 13 14
M  V30 14 1 14 15
M  V30 15 1 15 16
M  V30 16 2 16 17
M  V30 17 1 17 18
M  V30 18 2 18 19
M  V30 19 1 19 20
M  V30 20 2 20 21
M  V30 21 1 14 22
M  V30 22 2 22 23
M  V30 23 2 10 24
M  V30 24 1 24 25
M  V30 25 1 25 4
M  V30 26 2 25 8
M  V30 27 1 23 11
M  V30 28 1 21 16
M  V30 29 1 1 26
M  V30 30 1 1 27
M  V30 31 1 5 28
M  V30 32 1 6 29
M  V30 33 1 7 30
M  V30 34 1 9 31
M  V30 35 1 12 32
M  V30 36 1 13 33
M  V30 37 1 17 34
M  V30 38 1 18 35
M  V30 39 1 19 36
M  V30 40 1 20 37
M  V30 41 1 21 38
M  V30 42 1 22 39
M  V30 43 1 23 40
M  V30 END BOND
M  V30 END CTAB
M  END
>  <Dataset>  (97) 
ChEMBL_Kinases

>  <Ligand_Instance>  (97) 
nan

>  <PDB_ID>  (97) 
nan

>  <Standardized_SMILES>  (97) 
NC(=O)c1cccc2[nH]c(-c3ccc(Oc4ccccc4)cc3)nc12

>  <Name>  (97) 
nan

>  <Pocket>  (97) 
nan

>  <ATP_Site>  (97) 
nan

>  <Peripheral>  (97) 
nan

>  <Num_H_Atoms_ProtBoundConf>  (97) 
nan

>  <Num_Resolved_Atoms>  (97) 
nan

>  <Num_Not_Resolved_Atoms>  (97) 
nan

$$$$
CHEMBL1800220
     RDKit          3D

  0  0  0  0  0  0  0  0  0  0999 V3000
M  V30 BEGIN CTAB
M  V30 COUNTS 54 58 0 0 0
M  V30 BEGIN ATOM
M  V30 1 C -0.492076 -2.811468 3.341087 0
M  V30 2 C 0.464817 -1.795878 2.829657 0
M  V30 3 C 1.624389 -1.530554 3.543679 0
M  V30 4 C 2.504179 -0.585579 3.057601 0
M  V30 5 C 2.264054 0.101500 1.884199 0
M  V30 6 C 3.138279 1.113520 1.300323 0
M  V30 7 O 2.848233 1.705951 0.211144 0
M  V30 8 N 4.361152 1.488612 1.921760 0
M  V30 9 C 5.315094 2.465920 1.460230 0
M  V30 10 C 6.759162 1.991339 1.521122 0
M  V30 11 C 6.789264 2.457872 2.964932 0
M  V30 12 C 5.673244 3.423231 2.604360 0
M  V30 13 C 1.091680 -0.206081 1.216655 0
M  V30 14 C 0.163260 -1.145795 1.650140 0
M  V30 15 C -1.040172 -1.386266 0.861156 0
M  V30 16 C -0.849801 -1.512806 -0.520174 0
M  V30 17 C -1.881381 -1.743063 -1.417953 0
M  V30 18 C -3.177541 -1.856055 -0.932293 0
M  V30 19 C -3.369940 -1.732029 0.428307 0
M  V30 20 C -2.326056 -1.502890 1.301377 0
M  V30 21 N -4.743423 -1.869918 0.776700 0
M  V30 22 C -5.413145 -2.090691 -0.458576 0
M  V30 23 O -6.614905 -2.278611 -0.770288 0
M  V30 24 C -4.470545 -2.098304 -1.632044 0
M  V30 25 C -4.823228 -1.041530 -2.625652 0
M  V30 26 C -4.800465 -1.679207 -3.977943 0
M  V30 27 C -4.809908 -3.157153 -3.771532 0
M  V30 28 C -4.485328 -3.434376 -2.325580 0
M  V30 29 H -1.151844 -2.377010 4.131835 0
M  V30 30 H 0.124837 -3.579004 3.894694 0
M  V30 31 H -1.043728 -3.333863 2.541396 0
M  V30 32 H 1.841631 -2.054622 4.470464 0
M  V30 33 H 3.405246 -0.358084 3.582948 0
M  V30 34 H 4.667795 1.048508 2.815785 0
M  V30 35 H 5.067867 2.980943 0.517978 0
M  V30 36 H 7.427293 2.645693 0.920581 0
M  V30 37 H 6.904141 0.910169 1.373039 0
M  V30 38 H 6.437947 1.661806 3.664213 0
M  V30 39 H 7.752003 2.939780 3.266274 0
M  V30 40 H 6.130717 4.366038 2.256429 0
M  V30 41 H 4.878350 3.526860 3.371774 0
M  V30 42 H 0.868007 0.305798 0.300744 0
M  V30 43 H 0.157481 -1.430937 -0.951920 0
M  V30 44 H -1.695156 -1.833560 -2.464550 0
M  V30 45 H -2.457466 -1.402809 2.369913 0
M  V30 46 H -5.247078 -1.835800 1.679490 0
M  V30 47 H -5.797475 -0.570175 -2.453177 0
M  V30 48 H -3.980538 -0.299741 -2.600368 0
M  V30 49 H -3.920686 -1.371227 -4.585417 0
M  V30 50 H -5.728180 -1.426180 -4.569718 0
M  V30 51 H -4.009417 -3.643336 -4.401246 0
M  V30 52 H -5.759530 -3.660001 -4.078977 0
M  V30 53 H -5.215268 -4.144882 -1.864430 0
M  V30 54 H -3.464886 -3.877507 -2.221450 0
M  V30 END ATOM
M  V30 BEGIN BOND
M  V30 1 1 1 2
M  V30 2 2 2 3
M  V30 3 1 3 4
M  V30 4 2 4 5
M  V30 5 1 5 6
M  V30 6 2 6 7
M  V30 7 1 6 8
M  V30 8 1 8 9
M  V30 9 1 9 10
M  V30 10 1 10 11
M  V30 11 1 11 12
M  V30 12 1 5 13
M  V30 13 2 13 14
M  V30 14 1 14 15
M  V30 15 2 15 16
M  V30 16 1 16 17
M  V30 17 2 17 18
M  V30 18 1 18 19
M  V30 19 2 19 20
M  V30 20 1 19 21
M  V30 21 1 21 22
M  V30 22 2 22 23
M  V30 23 1 22 24
M  V30 24 1 24 25
M  V30 25 1 25 26
M  V30 26 1 26 27
M  V30 27 1 27 28
M  V30 28 1 14 2
M  V30 29 1 20 15
M  V30 30 1 28 24
M  V30 31 1 12 9
M  V30 32 1 24 18
M  V30 33 1 1 29
M  V30 34 1 1 30
M  V30 35 1 1 31
M  V30 36 1 3 32
M  V30 37 1 4 33
M  V30 38 1 8 34
M  V30 39 1 9 35
M  V30 40 1 10 36
M  V30 41 1 10 37
M  V30 42 1 11 38
M  V30 43 1 11 39
M  V30 44 1 12 40
M  V30 45 1 12 41
M  V30 46 1 13 42
M  V30 47 1 16 43
M  V30 48 1 17 44
M  V30 49 1 20 45
M  V30 50 1 21 46
M  V30 51 1 25 47
M  V30 52 1 25 48
M  V30 53 1 26 49
M  V30 54 1 26 50
M  V30 55 1 27 51
M  V30 56 1 27 52
M  V30 57 1 28 53
M  V30 58 1 28 54
M  V30 END BOND
M  V30 END CTAB
M  END
>  <Dataset>  (98) 
ChEMBL_Kinases

>  <Ligand_Instance>  (98) 
nan

>  <PDB_ID>  (98) 
nan

>  <Standardized_SMILES>  (98) 
Cc1ccc(C(=O)NC2CCC2)cc1-c1ccc2c(c1)NC(=O)C21CCCC1

>  <Name>  (98) 
nan

>  <Pocket>  (98) 
nan

>  <ATP_Site>  (98) 
nan

>  <Peripheral>  (98) 
nan

>  <Num_H_Atoms_ProtBoundConf>  (98) 
nan

>  <Num_Resolved_Atoms>  (98) 
nan

>  <Num_Not_Resolved_Atoms>  (98) 
nan

$$$$
CHEMBL179997
     RDKit          3D

  0  0  0  0  0  0  0  0  0  0999 V3000
M  V30 BEGIN CTAB
M  V30 COUNTS 33 34 0 0 0
M  V30 BEGIN ATOM
M  V30 1 C -2.006994 -0.755850 3.760185 0
M  V30 2 C -2.149998 -1.477753 2.455831 0
M  V30 3 N -1.454444 -2.744967 2.599754 0
M  V30 4 C -1.506070 -0.769536 1.316688 0
M  V30 5 C -0.176345 -0.997220 0.960542 0
M  V30 6 C 0.464702 -0.374951 -0.075691 0
M  V30 7 C 1.859065 -0.651909 -0.404015 0
M  V30 8 C 2.688477 -1.537597 0.252176 0
M  V30 9 C 3.997744 -1.728527 -0.137774 0
M  V30 10 C 4.518426 -1.034290 -1.202483 0
M  V30 11 C 3.745962 -0.141256 -1.894112 0
M  V30 12 C 2.433734 0.021959 -1.470037 0
M  V30 13 O 1.683353 0.941194 -2.202977 0
M  V30 14 N -0.257548 0.516479 -0.788990 0
M  V30 15 C -1.541444 0.757200 -0.469786 0
M  V30 16 N -2.251114 1.705637 -1.256317 0
M  V30 17 C -2.225279 0.151307 0.567222 0
M  V30 18 C -3.603629 0.454414 0.857131 0
M  V30 19 N -4.718915 0.691718 1.088709 0
M  V30 20 H -1.007014 -0.265836 3.743470 0
M  V30 21 H -2.796881 -0.019279 3.965376 0
M  V30 22 H -2.088372 -1.522207 4.564638 0
M  V30 23 H -3.202980 -1.702704 2.192416 0
M  V30 24 H -1.846800 -3.262167 3.431658 0
M  V30 25 H -1.482192 -3.336293 1.765627 0
M  V30 26 H 0.313492 -1.715583 1.578677 0
M  V30 27 H 2.259693 -2.072538 1.085571 0
M  V30 28 H 4.559822 -2.447740 0.447483 0
M  V30 29 H 5.554189 -1.230507 -1.457612 0
M  V30 30 H 4.139311 0.411998 -2.732468 0
M  V30 31 H 1.123326 0.688561 -3.005149 0
M  V30 32 H -2.872624 1.758524 -2.105631 0
M  V30 33 H -2.211673 2.707647 -0.995003 0
M  V30 END ATOM
M  V30 BEGIN BOND
M  V30 1 1 1 2
M  V30 2 1 2 3
M  V30 3 1 2 4
M  V30 4 2 4 5
M  V30 5 1 5 6
M  V30 6 1 6 7
M  V30 7 2 7 8
M  V30 8 1 8 9
M  V30 9 2 9 10
M  V30 10 1 10 11
M  V30 11 2 11 12
M  V30 12 1 12 13
M  V30 13 2 6 14
M  V30 14 1 14 15
M  V30 15 1 15 16
M  V30 16 2 15 17
M  V30 17 1 17 18
M  V30 18 3 18 19
M  V30 19 1 17 4
M  V30 20 1 12 7
M  V30 21 1 1 20
M  V30 22 1 1 21
M  V30 23 1 1 22
M  V30 24 1 2 23
M  V30 25 1 3 24
M  V30 26 1 3 25
M  V30 27 1 5 26
M  V30 28 1 8 27
M  V30 29 1 9 28
M  V30 30 1 10 29
M  V30 31 1 11 30
M  V30 32 1 13 31
M  V30 33 1 16 32
M  V30 34 1 16 33
M  V30 END BOND
M  V30 END CTAB
M  END
>  <Dataset>  (99) 
ChEMBL_Kinases

>  <Ligand_Instance>  (99) 
nan

>  <PDB_ID>  (99) 
nan

>  <Standardized_SMILES>  (99) 
CC(N)c1cc(-c2ccccc2O)nc(N)c1C#N

>  <Name>  (99) 
nan

>  <Pocket>  (99) 
nan

>  <ATP_Site>  (99) 
nan

>  <Peripheral>  (99) 
nan

>  <Num_H_Atoms_ProtBoundConf>  (99) 
nan

>  <Num_Resolved_Atoms>  (99) 
nan

>  <Num_Not_Resolved_Atoms>  (99) 
nan

$$$$
CHEMBL179725
     RDKit          3D

  0  0  0  0  0  0  0  0  0  0999 V3000
M  V30 BEGIN CTAB
M  V30 COUNTS 58 63 0 0 0
M  V30 BEGIN ATOM
M  V30 1 C 4.510348 1.472609 3.991594 0
M  V30 2 C 3.134548 1.665575 3.445496 0
M  V30 3 C 2.287280 0.457901 3.794997 0
M  V30 4 C 3.093864 1.945362 1.983825 0
M  V30 5 O 2.612820 3.072897 1.603923 0
M  V30 6 N 3.563181 1.022427 0.972879 0
M  V30 7 C 4.125345 -0.276223 1.141037 0
M  V30 8 C 3.229486 -1.439818 0.963333 0
M  V30 9 N 2.093202 -1.250853 0.124845 0
M  V30 10 C 1.224291 -2.303710 0.070561 0
M  V30 11 C 0.150123 -2.005988 -0.778613 0
M  V30 12 C -0.919911 -2.896472 -1.120468 0
M  V30 13 C -2.228459 -2.895606 -1.019982 0
M  V30 14 C -3.098342 -1.896139 -0.471484 0
M  V30 15 C -2.722175 -0.748766 0.049213 0
M  V30 16 N -3.856029 -0.026876 0.488736 0
M  V30 17 N -4.949436 -0.667409 0.261067 0 CHG=1 VAL=4
M  V30 18 C -6.189958 -0.106814 0.664322 0
M  V30 19 C -7.025877 -1.166258 0.890220 0
M  V30 20 C -6.503079 -2.531452 0.594552 0
M  V30 21 C -5.343884 -2.990977 0.051098 0
M  V30 22 C -4.515908 -1.853533 -0.360538 0
M  V30 23 C -2.700411 -4.139307 -1.613157 0
M  V30 24 O -3.846301 -4.664143 -1.795356 0
M  V30 25 N -1.612934 -4.951664 -2.104436 0
M  V30 26 C -0.463934 -4.143261 -1.783050 0
M  V30 27 O 0.698701 -4.562012 -2.081152 0
M  V30 28 C 0.482578 -0.711236 -1.195189 0
M  V30 29 C -0.206329 0.130704 -2.069507 0
M  V30 30 C 0.297882 1.381006 -2.360167 0
M  V30 31 C 1.476024 1.850402 -1.816841 0
M  V30 32 C 2.152857 0.993319 -0.943521 0
M  V30 33 C 1.657768 -0.258241 -0.646703 0
M  V30 34 C 3.412479 1.555936 -0.392336 0
M  V30 35 H 5.296130 1.684652 3.216685 0
M  V30 36 H 4.596805 0.464077 4.429857 0
M  V30 37 H 4.650211 2.170357 4.869657 0
M  V30 38 H 2.661744 2.522372 3.963998 0
M  V30 39 H 1.847468 0.627717 4.808951 0
M  V30 40 H 1.448674 0.435276 3.078591 0
M  V30 41 H 2.866736 -0.467219 3.880773 0
M  V30 42 H 5.057015 -0.355984 0.503653 0
M  V30 43 H 4.553210 -0.334331 2.188218 0
M  V30 44 H 2.907962 -1.879029 1.944701 0
M  V30 45 H 3.862606 -2.264517 0.516444 0
M  V30 46 H 1.273628 -3.275379 0.578155 0
M  V30 47 H -1.809054 -0.244627 0.233666 0
M  V30 48 H -6.448185 0.918031 0.776143 0
M  V30 49 H -8.023215 -0.948518 1.267732 0
M  V30 50 H -7.316839 -3.210892 0.933973 0
M  V30 51 H -5.468375 -4.039045 0.135928 0
M  V30 52 H -4.898585 -1.708488 -1.531601 0
M  V30 53 H -1.593263 -5.883412 -2.575608 0
M  V30 54 H -1.128666 -0.205643 -2.510469 0
M  V30 55 H -0.194451 2.076742 -3.031827 0
M  V30 56 H 1.936776 2.807765 -1.989732 0
M  V30 57 H 3.353058 2.663022 -0.320331 0
M  V30 58 H 4.293409 1.347842 -1.019489 0
M  V30 END ATOM
M  V30 BEGIN BOND
M  V30 1 1 1 2
M  V30 2 1 2 3
M  V30 3 1 2 4
M  V30 4 2 4 5
M  V30 5 1 4 6
M  V30 6 1 6 7
M  V30 7 1 7 8
M  V30 8 1 8 9
M  V30 9 1 9 10
M  V30 10 2 10 11
M  V30 11 1 11 12
M  V30 12 2 12 13
M  V30 13 1 13 14
M  V30 14 2 14 15
M  V30 15 1 15 16
M  V30 16 2 16 17
M  V30 17 1 17 18
M  V30 18 2 18 19
M  V30 19 1 19 20
M  V30 20 2 20 21
M  V30 21 1 21 22
M  V30 22 1 13 23
M  V30 23 2 23 24
M  V30 24 1 23 25
M  V30 25 1 25 26
M  V30 26 2 26 27
M  V30 27 1 11 28
M  V30 28 2 28 29
M  V30 29 1 29 30
M  V30 30 2 30 31
M  V30 31 1 31 32
M  V30 32 2 32 33
M  V30 33 1 32 34
M  V30 34 1 34 6
M  V30 35 1 33 9
M  V30 36 1 26 12
M  V30 37 1 33 28
M  V30 38 1 22 14
M  V30 39 1 22 17
M  V30 40 1 1 35
M  V30 41 1 1 36
M  V30 42 1 1 37
M  V30 43 1 2 38
M  V30 44 1 3 39
M  V30 45 1 3 40
M  V30 46 1 3 41
M  V30 47 1 7 42
M  V30 48 1 7 43
M  V30 49 1 8 44
M  V30 50 1 8 45
M  V30 51 1 10 46
M  V30 52 1 15 47
M  V30 53 1 18 48
M  V30 54 1 19 49
M  V30 55 1 20 50
M  V30 56 1 21 51
M  V30 57 1 22 52
M  V30 58 1 25 53
M  V30 59 1 29 54
M  V30 60 1 30 55
M  V30 61 1 31 56
M  V30 62 1 34 57
M  V30 63 1 34 58
M  V30 END BOND
M  V30 END CTAB
M  END
>  <Dataset>  (100) 
ChEMBL_Kinases

>  <Ligand_Instance>  (100) 
nan

>  <PDB_ID>  (100) 
nan

>  <Standardized_SMILES>  (100) 
CC(C)C(=O)N1CCn2cc(C3=C(C4=CN=[N+]5C=CC=CC45)C(=O)NC3=O)c3cccc(c32)C1

>  <Name>  (100) 
nan

>  <Pocket>  (100) 
nan

>  <ATP_Site>  (100) 
nan

>  <Peripheral>  (100) 
nan

>  <Num_H_Atoms_ProtBoundConf>  (100) 
nan

>  <Num_Resolved_Atoms>  (100) 
nan

>  <Num_Not_Resolved_Atoms>  (100) 
nan

$$$$
CHEMBL179717
     RDKit          3D

  0  0  0  0  0  0  0  0  0  0999 V3000
M  V30 BEGIN CTAB
M  V30 COUNTS 43 46 0 0 0
M  V30 BEGIN ATOM
M  V30 1 N 2.153310 -5.970249 6.351185 0
M  V30 2 C 2.939101 -4.788518 6.446968 0
M  V30 3 O 3.695396 -4.699682 7.462796 0
M  V30 4 C 2.926018 -3.703675 5.472418 0
M  V30 5 C 3.758377 -2.638390 5.738424 0
M  V30 6 C 3.769628 -1.586263 4.827907 0
M  V30 7 C 2.950033 -1.654669 3.702242 0
M  V30 8 N 2.747770 -0.802811 2.659195 0
M  V30 9 C 1.843365 -1.319934 1.806071 0
M  V30 10 C 1.366939 -0.700530 0.571122 0
M  V30 11 C 1.875507 0.536275 0.217835 0
M  V30 12 C 1.403524 1.097599 -0.959629 0
M  V30 13 C 0.457506 0.439154 -1.748830 0
M  V30 14 O 0.050413 1.101537 -2.921388 0
M  V30 15 C -1.043022 1.966696 -2.866476 0
M  V30 16 C -1.038460 3.319517 -2.596915 0
M  V30 17 C -2.231482 4.017006 -2.586023 0
M  V30 18 C -3.393144 3.356515 -2.841870 0
M  V30 19 Cl -4.865627 4.335672 -2.804899 0
M  V30 20 C -3.426601 2.007747 -3.113722 0
M  V30 21 C -4.754325 1.376863 -3.381488 0
M  V30 22 F -5.609904 1.515015 -2.304725 0
M  V30 23 F -5.352595 1.944747 -4.478407 0
M  V30 24 F -4.582124 0.031755 -3.689694 0
M  V30 25 C -2.235231 1.301415 -3.126549 0
M  V30 26 C -0.035168 -0.800057 -1.370418 0
M  V30 27 C 0.431139 -1.366446 -0.196715 0
M  V30 28 N 1.463322 -2.513292 2.307365 0
M  V30 29 C 2.134004 -2.736969 3.474852 0
M  V30 30 C 2.106088 -3.798845 4.369843 0
M  V30 31 H 2.531819 -6.808918 5.858776 0
M  V30 32 H 1.312619 -5.601400 6.873410 0
M  V30 33 H 4.402713 -2.537886 6.582211 0
M  V30 34 H 4.382216 -0.695576 4.929704 0
M  V30 35 H 3.217499 0.122170 2.524075 0
M  V30 36 H 2.607892 1.060696 0.815904 0
M  V30 37 H 1.778785 2.069175 -1.272242 0
M  V30 38 H -0.039794 3.693165 -2.415586 0
M  V30 39 H -2.110646 5.082442 -2.361159 0
M  V30 40 H -2.345610 0.248124 -3.347878 0
M  V30 41 H -0.767418 -1.273924 -2.012820 0
M  V30 42 H 0.034890 -2.344609 0.091324 0
M  V30 43 H 1.466243 -4.660022 4.202595 0
M  V30 END ATOM
M  V30 BEGIN BOND
M  V30 1 1 1 2
M  V30 2 2 2 3
M  V30 3 1 2 4
M  V30 4 2 4 5
M  V30 5 1 5 6
M  V30 6 2 6 7
M  V30 7 1 7 8
M  V30 8 1 8 9
M  V30 9 1 9 10
M  V30 10 2 10 11
M  V30 11 1 11 12
M  V30 12 2 12 13
M  V30 13 1 13 14
M  V30 14 1 14 15
M  V30 15 2 15 16
M  V30 16 1 16 17
M  V30 17 2 17 18
M  V30 18 1 18 19
M  V30 19 1 18 20
M  V30 20 1 20 21
M  V30 21 1 21 22
M  V30 22 1 21 23
M  V30 23 1 21 24
M  V30 24 2 20 25
M  V30 25 1 13 26
M  V30 26 2 26 27
M  V30 27 2 9 28
M  V30 28 1 28 29
M  V30 29 2 29 30
M  V30 30 1 30 4
M  V30 31 1 29 7
M  V30 32 1 27 10
M  V30 33 1 25 15
M  V30 34 1 1 31
M  V30 35 1 1 32
M  V30 36 1 5 33
M  V30 37 1 6 34
M  V30 38 1 8 35
M  V30 39 1 11 36
M  V30 40 1 12 37
M  V30 41 1 16 38
M  V30 42 1 17 39
M  V30 43 1 25 40
M  V30 44 1 26 41
M  V30 45 1 27 42
M  V30 46 1 30 43
M  V30 END BOND
M  V30 END CTAB
M  END
>  <Dataset>  (101) 
ChEMBL_Kinases

>  <Ligand_Instance>  (101) 
nan

>  <PDB_ID>  (101) 
nan

>  <Standardized_SMILES>  (101) 
NC(=O)c1ccc2[nH]c(-c3ccc(Oc4ccc(Cl)c(C(F)(F)F)c4)cc3)nc2c1

>  <Name>  (101) 
nan

>  <Pocket>  (101) 
nan

>  <ATP_Site>  (101) 
nan

>  <Peripheral>  (101) 
nan

>  <Num_H_Atoms_ProtBoundConf>  (101) 
nan

>  <Num_Resolved_Atoms>  (101) 
nan

>  <Num_Not_Resolved_Atoms>  (101) 
nan

$$$$
CHEMBL179636
     RDKit          3D

  0  0  0  0  0  0  0  0  0  0999 V3000
M  V30 BEGIN CTAB
M  V30 COUNTS 43 46 0 0 0
M  V30 BEGIN ATOM
M  V30 1 C -1.801764 -8.473379 -0.759000 0
M  V30 2 N -1.181716 -7.194583 -0.527368 0
M  V30 3 C 0.169101 -7.001728 -0.125438 0
M  V30 4 O 0.929729 -7.984708 0.057632 0
M  V30 5 C 0.741609 -5.677074 0.094154 0
M  V30 6 C 2.064345 -5.600846 0.483243 0
M  V30 7 C 2.665446 -4.355885 0.708034 0
M  V30 8 C 1.967357 -3.174425 0.551112 0
M  V30 9 N 2.272980 -1.869612 0.692025 0
M  V30 10 C 1.181439 -1.141860 0.402279 0
M  V30 11 C 0.993805 0.310298 0.405058 0
M  V30 12 C -0.218105 0.913734 0.075204 0
M  V30 13 C -0.351821 2.299453 0.091074 0
M  V30 14 C 0.743332 3.064070 0.441048 0
M  V30 15 O 0.550857 4.440293 0.439381 0
M  V30 16 C 0.120164 5.165696 1.545194 0
M  V30 17 C -0.189923 4.696701 2.808369 0
M  V30 18 C -0.602924 5.574681 3.782833 0
M  V30 19 C -0.701271 6.918432 3.480279 0
M  V30 20 C -0.401014 7.421806 2.233937 0
M  V30 21 C 0.010711 6.532997 1.268881 0
M  V30 22 C 1.967843 2.520974 0.776974 0
M  V30 23 C 2.045082 1.142581 0.744907 0
M  V30 24 N 0.171450 -2.000579 0.073462 0
M  V30 25 C 0.644427 -3.273171 0.161072 0
M  V30 26 C 0.041103 -4.497569 -0.063550 0
M  V30 27 H -2.685309 -8.551343 -0.094976 0
M  V30 28 H -1.052042 -9.270491 -0.594334 0
M  V30 29 H -2.157568 -8.604406 -1.797860 0
M  V30 30 H -1.812707 -6.377375 -0.679189 0
M  V30 31 H 2.686999 -6.473819 0.630380 0
M  V30 32 H 3.701150 -4.315074 1.011951 0
M  V30 33 H 3.178029 -1.472222 0.971936 0
M  V30 34 H -1.023627 0.220595 -0.187389 0
M  V30 35 H -1.320514 2.699652 -0.175846 0
M  V30 36 H -0.072185 3.618092 2.920808 0
M  V30 37 H -0.820901 5.111945 4.733456 0
M  V30 38 H -1.030622 7.553646 4.287943 0
M  V30 39 H -0.491361 8.494362 2.032307 0
M  V30 40 H 0.233689 6.984565 0.306651 0
M  V30 41 H 2.807906 3.146127 1.046974 0
M  V30 42 H 2.990793 0.640054 1.001046 0
M  V30 43 H -0.989004 -4.539985 -0.365864 0
M  V30 END ATOM
M  V30 BEGIN BOND
M  V30 1 1 1 2
M  V30 2 1 2 3
M  V30 3 2 3 4
M  V30 4 1 3 5
M  V30 5 2 5 6
M  V30 6 1 6 7
M  V30 7 2 7 8
M  V30 8 1 8 9
M  V30 9 1 9 10
M  V30 10 1 10 11
M  V30 11 2 11 12
M  V30 12 1 12 13
M  V30 13 2 13 14
M  V30 14 1 14 15
M  V30 15 1 15 16
M  V30 16 2 16 17
M  V30 17 1 17 18
M  V30 18 2 18 19
M  V30 19 1 19 20
M  V30 20 2 20 21
M  V30 21 1 14 22
M  V30 22 2 22 23
M  V30 23 2 10 24
M  V30 24 1 24 25
M  V30 25 2 25 26
M  V30 26 1 26 5
M  V30 27 1 25 8
M  V30 28 1 23 11
M  V30 29 1 21 16
M  V30 30 1 1 27
M  V30 31 1 1 28
M  V30 32 1 1 29
M  V30 33 1 2 30
M  V30 34 1 6 31
M  V30 35 1 7 32
M  V30 36 1 9 33
M  V30 37 1 12 34
M  V30 38 1 13 35
M  V30 39 1 17 36
M  V30 40 1 18 37
M  V30 41 1 19 38
M  V30 42 1 20 39
M  V30 43 1 21 40
M  V30 44 1 22 41
M  V30 45 1 23 42
M  V30 46 1 26 43
M  V30 END BOND
M  V30 END CTAB
M  END
>  <Dataset>  (102) 
ChEMBL_Kinases

>  <Ligand_Instance>  (102) 
nan

>  <PDB_ID>  (102) 
nan

>  <Standardized_SMILES>  (102) 
CNC(=O)c1ccc2[nH]c(-c3ccc(Oc4ccccc4)cc3)nc2c1

>  <Name>  (102) 
nan

>  <Pocket>  (102) 
nan

>  <ATP_Site>  (102) 
nan

>  <Peripheral>  (102) 
nan

>  <Num_H_Atoms_ProtBoundConf>  (102) 
nan

>  <Num_Resolved_Atoms>  (102) 
nan

>  <Num_Not_Resolved_Atoms>  (102) 
nan

$$$$
CHEMBL1796293
     RDKit          3D

  0  0  0  0  0  0  0  0  0  0999 V3000
M  V30 BEGIN CTAB
M  V30 COUNTS 40 42 0 0 0
M  V30 BEGIN ATOM
M  V30 1 N 2.592066 -7.338930 0.876151 0
M  V30 2 C 3.147930 -6.317286 0.897795 0
M  V30 3 C 3.837730 -5.069931 0.905187 0
M  V30 4 C 5.194978 -5.084143 0.823804 0
M  V30 5 C 5.883943 -3.912679 0.828165 0
M  V30 6 C 5.210404 -2.698093 0.915379 0
M  V30 7 C 3.816630 -2.718209 0.997612 0
M  V30 8 C 3.108060 -3.899214 0.994072 0
M  V30 9 O 1.723555 -3.859766 1.077962 0
M  V30 10 C 1.146958 -2.592721 1.163133 0
M  V30 11 C 0.829818 -2.005440 -0.043613 0
M  V30 12 C 0.255214 -0.750845 -0.053118 0
M  V30 13 C -0.029348 -0.029084 1.085887 0
M  V30 14 C -0.634102 1.299767 1.106812 0
M  V30 15 O -0.844329 1.860025 2.222798 0
M  V30 16 N -0.990603 1.977373 -0.083994 0
M  V30 17 C -1.597621 3.304731 -0.169518 0
M  V30 18 C -3.043396 3.266694 0.169459 0
M  V30 19 C -3.867648 3.027649 -0.923826 0
M  V30 20 C -5.236745 2.965509 -0.762784 0
M  V30 21 N -5.806469 3.133394 0.447693 0
M  V30 22 C -5.007303 3.366903 1.517611 0
M  V30 23 C -3.622165 3.440148 1.415915 0
M  V30 24 C 0.305761 -0.658028 2.266321 0
M  V30 25 C 0.881506 -1.910296 2.332335 0
M  V30 26 H 5.793692 -5.963744 0.753797 0
M  V30 27 H 6.955898 -3.846980 0.766732 0
M  V30 28 H 5.743170 -1.760265 0.919907 0
M  V30 29 H 3.337071 -1.742791 1.064039 0
M  V30 30 H 1.020979 -2.506615 -0.989689 0
M  V30 31 H 0.019183 -0.318913 -1.008782 0
M  V30 32 H -0.822673 1.524187 -1.010396 0
M  V30 33 H -1.443109 3.769413 -1.139344 0
M  V30 34 H -1.079846 3.939474 0.594325 0
M  V30 35 H -3.562396 2.875961 -1.938604 0
M  V30 36 H -5.987849 2.787279 -1.526501 0
M  V30 37 H -5.334450 3.518845 2.542265 0
M  V30 38 H -2.941326 3.621680 2.214769 0
M  V30 39 H 0.106032 -0.140137 3.197231 0
M  V30 40 H 1.144279 -2.403367 3.258839 0
M  V30 END ATOM
M  V30 BEGIN BOND
M  V30 1 3 1 2
M  V30 2 1 2 3
M  V30 3 2 3 4
M  V30 4 1 4 5
M  V30 5 2 5 6
M  V30 6 1 6 7
M  V30 7 2 7 8
M  V30 8 1 8 9
M  V30 9 1 9 10
M  V30 10 2 10 11
M  V30 11 1 11 12
M  V30 12 2 12 13
M  V30 13 1 13 14
M  V30 14 2 14 15
M  V30 15 1 14 16
M  V30 16 1 16 17
M  V30 17 1 17 18
M  V30 18 2 18 19
M  V30 19 1 19 20
M  V30 20 2 20 21
M  V30 21 1 21 22
M  V30 22 2 22 23
M  V30 23 1 13 24
M  V30 24 2 24 25
M  V30 25 1 8 3
M  V30 26 1 25 10
M  V30 27 1 23 18
M  V30 28 1 4 26
M  V30 29 1 5 27
M  V30 30 1 6 28
M  V30 31 1 7 29
M  V30 32 1 11 30
M  V30 33 1 12 31
M  V30 34 1 16 32
M  V30 35 1 17 33
M  V30 36 1 17 34
M  V30 37 1 19 35
M  V30 38 1 20 36
M  V30 39 1 22 37
M  V30 40 1 23 38
M  V30 41 1 24 39
M  V30 42 1 25 40
M  V30 END BOND
M  V30 END CTAB
M  END
>  <Dataset>  (103) 
ChEMBL_Kinases

>  <Ligand_Instance>  (103) 
nan

>  <PDB_ID>  (103) 
nan

>  <Standardized_SMILES>  (103) 
N#Cc1ccccc1Oc1ccc(C(=O)NCc2ccncc2)cc1

>  <Name>  (103) 
nan

>  <Pocket>  (103) 
nan

>  <ATP_Site>  (103) 
nan

>  <Peripheral>  (103) 
nan

>  <Num_H_Atoms_ProtBoundConf>  (103) 
nan

>  <Num_Resolved_Atoms>  (103) 
nan

>  <Num_Not_Resolved_Atoms>  (103) 
nan

$$$$
CHEMBL179583
     RDKit          3D

  0  0  0  0  0  0  0  0  0  0999 V3000
M  V30 BEGIN CTAB
M  V30 COUNTS 40 43 0 0 0
M  V30 BEGIN ATOM
M  V30 1 N 1.544245 -8.382724 -0.936313 0
M  V30 2 C 1.623121 -7.070802 -1.480014 0
M  V30 3 O 2.214924 -7.100057 -2.606438 0
M  V30 4 C 1.059735 -5.951598 -0.734104 0
M  V30 5 C 0.452008 -6.136513 0.486796 0
M  V30 6 C -0.047998 -5.037009 1.117045 0
M  V30 7 C 0.021647 -3.753789 0.599783 0
M  V30 8 N -0.400545 -2.550075 1.049649 0
M  V30 9 C -0.047113 -1.646783 0.101703 0
M  V30 10 C -0.343370 -0.224449 0.244682 0
M  V30 11 C -1.003808 0.225565 1.376850 0
M  V30 12 C -1.289234 1.583822 1.518226 0
M  V30 13 C -0.914104 2.497978 0.525445 0
M  V30 14 O -1.234577 3.832514 0.741144 0
M  V30 15 C -0.382403 4.714219 1.392420 0
M  V30 16 C 0.606385 5.538216 0.903398 0
M  V30 17 C 1.321513 6.328217 1.763139 0
M  V30 18 C 1.076489 6.320961 3.115746 0
M  V30 19 Cl 2.055561 7.378330 4.141368 0
M  V30 20 C 0.084172 5.500354 3.646109 0
M  V30 21 C -0.635445 4.702627 2.763660 0
M  V30 22 C -0.257838 2.011659 -0.587867 0
M  V30 23 C 0.035318 0.672757 -0.749857 0
M  V30 24 N 0.574531 -2.246325 -0.911349 0
M  V30 25 C 0.632535 -3.578272 -0.624369 0
M  V30 26 C 1.150093 -4.679922 -1.287644 0
M  V30 27 H 2.186241 -9.191060 -0.788721 0
M  V30 28 H 0.759166 -8.927816 -0.506258 0
M  V30 29 H 0.384067 -7.132382 0.914871 0
M  V30 30 H -0.528018 -5.198482 2.085994 0
M  V30 31 H -0.896685 -2.427989 1.964725 0
M  V30 32 H -1.320614 -0.444327 2.184746 0
M  V30 33 H -1.806450 1.914441 2.411392 0
M  V30 34 H 0.696944 5.448254 -0.175853 0
M  V30 35 H 2.081433 6.943889 1.277218 0
M  V30 36 H -0.063688 5.534684 4.704378 0
M  V30 37 H -1.379547 4.107975 3.290695 0
M  V30 38 H 0.010433 2.773690 -1.330214 0
M  V30 39 H 0.547256 0.349610 -1.635136 0
M  V30 40 H 1.637098 -4.547835 -2.261218 0
M  V30 END ATOM
M  V30 BEGIN BOND
M  V30 1 1 1 2
M  V30 2 2 2 3
M  V30 3 1 2 4
M  V30 4 2 4 5
M  V30 5 1 5 6
M  V30 6 2 6 7
M  V30 7 1 7 8
M  V30 8 1 8 9
M  V30 9 1 9 10
M  V30 10 2 10 11
M  V30 11 1 11 12
M  V30 12 2 12 13
M  V30 13 1 13 14
M  V30 14 1 14 15
M  V30 15 2 15 16
M  V30 16 1 16 17
M  V30 17 2 17 18
M  V30 18 1 18 19
M  V30 19 1 18 20
M  V30 20 2 20 21
M  V30 21 1 13 22
M  V30 22 2 22 23
M  V30 23 2 9 24
M  V30 24 1 24 25
M  V30 25 2 25 26
M  V30 26 1 26 4
M  V30 27 1 25 7
M  V30 28 1 23 10
M  V30 29 1 21 15
M  V30 30 1 1 27
M  V30 31 1 1 28
M  V30 32 1 5 29
M  V30 33 1 6 30
M  V30 34 1 8 31
M  V30 35 1 11 32
M  V30 36 1 12 33
M  V30 37 1 16 34
M  V30 38 1 17 35
M  V30 39 1 20 36
M  V30 40 1 21 37
M  V30 41 1 22 38
M  V30 42 1 23 39
M  V30 43 1 26 40
M  V30 END BOND
M  V30 END CTAB
M  END
>  <Dataset>  (104) 
ChEMBL_Kinases

>  <Ligand_Instance>  (104) 
nan

>  <PDB_ID>  (104) 
nan

>  <Standardized_SMILES>  (104) 
NC(=O)c1ccc2[nH]c(-c3ccc(Oc4ccc(Cl)cc4)cc3)nc2c1

>  <Name>  (104) 
nan

>  <Pocket>  (104) 
nan

>  <ATP_Site>  (104) 
nan

>  <Peripheral>  (104) 
nan

>  <Num_H_Atoms_ProtBoundConf>  (104) 
nan

>  <Num_Resolved_Atoms>  (104) 
nan

>  <Num_Not_Resolved_Atoms>  (104) 
nan

$$$$
CHEMBL1794052
     RDKit          3D

  0  0  0  0  0  0  0  0  0  0999 V3000
M  V30 BEGIN CTAB
M  V30 COUNTS 35 37 0 0 0
M  V30 BEGIN ATOM
M  V30 1 C -2.334050 -4.119094 1.212867 0
M  V30 2 O -1.249546 -3.228483 1.277251 0
M  V30 3 C -0.056587 -3.393784 1.892839 0
M  V30 4 O 0.199473 -4.478354 2.529858 0
M  V30 5 C 1.045715 -2.449126 1.934394 0
M  V30 6 C 2.210111 -2.721175 2.610167 0
M  V30 7 C 3.267792 -1.806356 2.633144 0
M  V30 8 C 3.054227 -0.634114 1.937736 0
M  V30 9 C 1.890307 -0.297704 1.230220 0
M  V30 10 C 0.913650 -1.253698 1.265498 0
M  V30 11 C 2.063170 1.016116 0.628682 0
M  V30 12 C 1.197651 1.707605 -0.078243 0
M  V30 13 C -0.152192 1.605455 -0.570215 0
M  V30 14 C -0.513475 1.815297 -1.909882 0
M  V30 15 C -1.831701 1.739325 -2.324946 0
M  V30 16 Br -2.285970 2.027579 -4.149489 0
M  V30 17 C -2.807675 1.451865 -1.404338 0
M  V30 18 O -4.121757 1.377580 -1.841300 0
M  V30 19 C -2.572838 1.228590 -0.065772 0
M  V30 20 Br -3.905281 0.833622 1.230749 0
M  V30 21 C -1.237559 1.325185 0.249600 0
M  V30 22 C 3.389533 1.503411 0.979093 0
M  V30 23 O 3.927275 2.595401 0.656043 0
M  V30 24 N 3.935396 0.459834 1.770283 0
M  V30 25 H -2.587077 -4.544300 2.203290 0
M  V30 26 H -3.224726 -3.479491 0.940214 0
M  V30 27 H -2.248135 -4.885940 0.416819 0
M  V30 28 H 2.351990 -3.633810 3.140724 0
M  V30 29 H 4.200368 -1.970707 3.151063 0
M  V30 30 H 0.023079 -1.063220 0.740718 0
M  V30 31 H 1.512755 2.691784 -0.456827 0
M  V30 32 H 0.259513 2.042582 -2.626275 0
M  V30 33 H -4.379711 1.943219 -2.637297 0
M  V30 34 H -0.955753 1.161068 1.296564 0
M  V30 35 H 4.916188 0.562383 2.166062 0
M  V30 END ATOM
M  V30 BEGIN BOND
M  V30 1 1 1 2
M  V30 2 1 2 3
M  V30 3 2 3 4
M  V30 4 1 3 5
M  V30 5 2 5 6
M  V30 6 1 6 7
M  V30 7 2 7 8
M  V30 8 1 8 9
M  V30 9 2 9 10
M  V30 10 1 9 11
M  V30 11 2 11 12 CFG=2
M  V30 12 1 12 13
M  V30 13 2 13 14
M  V30 14 1 14 15
M  V30 15 1 15 16
M  V30 16 2 15 17
M  V30 17 1 17 18
M  V30 18 1 17 19
M  V30 19 1 19 20
M  V30 20 2 19 21
M  V30 21 1 11 22
M  V30 22 2 22 23
M  V30 23 1 22 24
M  V30 24 1 10 5
M  V30 25 1 21 13
M  V30 26 1 24 8
M  V30 27 1 1 25
M  V30 28 1 1 26
M  V30 29 1 1 27
M  V30 30 1 6 28
M  V30 31 1 7 29
M  V30 32 1 10 30
M  V30 33 1 12 31
M  V30 34 1 14 32
M  V30 35 1 18 33
M  V30 36 1 21 34
M  V30 37 1 24 35
M  V30 END BOND
M  V30 END CTAB
M  END
>  <Dataset>  (105) 
ChEMBL_Kinases

>  <Ligand_Instance>  (105) 
nan

>  <PDB_ID>  (105) 
nan

>  <Standardized_SMILES>  (105) 
COC(=O)c1ccc2c(c1)C(=Cc1cc(Br)c(O)c(Br)c1)C(=O)N2

>  <Name>  (105) 
GW405841X

>  <Pocket>  (105) 
nan

>  <ATP_Site>  (105) 
nan

>  <Peripheral>  (105) 
nan

>  <Num_H_Atoms_ProtBoundConf>  (105) 
nan

>  <Num_Resolved_Atoms>  (105) 
nan

>  <Num_Not_Resolved_Atoms>  (105) 
nan

$$$$
CHEMBL1793896
     RDKit          3D

  0  0  0  0  0  0  0  0  0  0999 V3000
M  V30 BEGIN CTAB
M  V30 COUNTS 62 66 0 0 0
M  V30 BEGIN ATOM
M  V30 1 C 3.061007 -3.709524 2.372504 0
M  V30 2 C 2.672587 -2.465744 2.145643 0
M  V30 3 N 3.591986 -1.588974 1.534488 0
M  V30 4 N 4.807665 -1.909976 1.172427 0
M  V30 5 C 5.415865 -0.822030 0.615469 0
M  V30 6 C 6.787086 -0.800853 0.090373 0
M  V30 7 N 7.576190 -1.981289 0.146123 0
M  V30 8 O 7.310912 0.232401 -0.418042 0
M  V30 9 C 4.501321 0.222894 0.646051 0
M  V30 10 C 3.376326 -0.317144 1.232990 0
M  V30 11 C 2.235966 0.573847 1.394897 0
M  V30 12 N 1.104744 0.112508 1.955416 0
M  V30 13 C 0.054356 0.939753 2.097403 0
M  V30 14 N -1.220564 0.652990 2.660436 0
M  V30 15 C -2.408365 0.161155 2.090303 0
M  V30 16 C -2.441233 -0.157364 0.752332 0
M  V30 17 C -3.567476 -0.650773 0.143998 0
M  V30 18 N -3.639413 -0.995700 -1.233047 0
M  V30 19 C -4.821050 -1.421312 -1.957749 0
M  V30 20 C -4.637202 -2.883586 -2.241453 0
M  V30 21 N -3.382207 -3.215832 -2.815913 0
M  V30 22 C -2.921925 -4.542648 -2.534049 0
M  V30 23 C -2.422061 -2.213859 -3.005267 0
M  V30 24 C -2.518690 -0.982227 -2.152879 0
M  V30 25 C -4.695944 -0.826746 0.916396 0
M  V30 26 C -4.656928 -0.500932 2.276423 0
M  V30 27 C -3.515317 0.002482 2.906348 0
M  V30 28 O -3.562369 0.301639 4.260760 0
M  V30 29 C -3.946097 1.550311 4.782602 0
M  V30 30 F -5.249105 1.770705 4.354627 0
M  V30 31 F -3.087156 2.505796 4.279462 0
M  V30 32 F -3.871770 1.482063 6.161549 0
M  V30 33 N 0.173530 2.219574 1.667397 0
M  V30 34 C 1.298606 2.703969 1.102359 0
M  V30 35 C 2.394841 1.852662 0.950604 0
M  V30 36 C 3.559881 2.493284 0.325364 0
M  V30 37 C 4.750515 1.604622 0.134839 0
M  V30 38 H 3.996852 -4.208129 2.168543 0
M  V30 39 H 2.464428 -4.483716 2.832132 0
M  V30 40 H 1.674559 -2.242928 2.456648 0
M  V30 41 H 8.222043 -1.985487 0.989581 0
M  V30 42 H 7.845382 -2.896723 -0.259438 0
M  V30 43 H -1.040344 0.905216 3.632078 0
M  V30 44 H -1.552425 -0.006143 0.195944 0
M  V30 45 H -4.906704 -0.923124 -2.970198 0
M  V30 46 H -5.762645 -1.283145 -1.404131 0
M  V30 47 H -4.862826 -3.426124 -1.297595 0
M  V30 48 H -5.438660 -3.177017 -2.952758 0
M  V30 49 H -2.725663 -5.040353 -3.503772 0
M  V30 50 H -2.023602 -4.606807 -1.918889 0
M  V30 51 H -3.723294 -5.116366 -2.009509 0
M  V30 52 H -1.409856 -2.668942 -2.792774 0
M  V30 53 H -2.369469 -1.962302 -4.085547 0
M  V30 54 H -1.554000 -0.718560 -1.690457 0
M  V30 55 H -2.735785 -0.116599 -2.847245 0
M  V30 56 H -5.638249 -1.196487 0.601273 0
M  V30 57 H -5.522662 -0.625654 2.914329 0
M  V30 58 H 1.304582 3.753634 0.783611 0
M  V30 59 H 3.913948 3.366025 0.953583 0
M  V30 60 H 3.291380 2.925122 -0.678791 0
M  V30 61 H 5.001377 1.553775 -0.946406 0
M  V30 62 H 5.641937 1.962451 0.702310 0
M  V30 END ATOM
M  V30 BEGIN BOND
M  V30 1 2 1 2
M  V30 2 1 2 3
M  V30 3 1 3 4
M  V30 4 2 4 5
M  V30 5 1 5 6
M  V30 6 1 6 7
M  V30 7 2 6 8
M  V30 8 1 5 9
M  V30 9 2 9 10
M  V30 10 1 10 11
M  V30 11 2 11 12
M  V30 12 1 12 13
M  V30 13 1 13 14
M  V30 14 1 14 15
M  V30 15 2 15 16
M  V30 16 1 16 17
M  V30 17 1 17 18
M  V30 18 1 18 19
M  V30 19 1 19 20
M  V30 20 1 20 21
M  V30 21 1 21 22
M  V30 22 1 21 23
M  V30 23 1 23 24
M  V30 24 2 17 25
M  V30 25 1 25 26
M  V30 26 2 26 27
M  V30 27 1 27 28
M  V30 28 1 28 29
M  V30 29 1 29 30
M  V30 30 1 29 31
M  V30 31 1 29 32
M  V30 32 2 13 33
M  V30 33 1 33 34
M  V30 34 2 34 35
M  V30 35 1 35 36
M  V30 36 1 36 37
M  V30 37 1 10 3
M  V30 38 1 35 11
M  V30 39 1 37 9
M  V30 40 1 27 15
M  V30 41 1 24 18
M  V30 42 1 1 38
M  V30 43 1 1 39
M  V30 44 1 2 40
M  V30 45 1 7 41
M  V30 46 1 7 42
M  V30 47 1 14 43
M  V30 48 1 16 44
M  V30 49 1 19 45
M  V30 50 1 19 46
M  V30 51 1 20 47
M  V30 52 1 20 48
M  V30 53 1 22 49
M  V30 54 1 22 50
M  V30 55 1 22 51
M  V30 56 1 23 52
M  V30 57 1 23 53
M  V30 58 1 24 54
M  V30 59 1 24 55
M  V30 60 1 25 56
M  V30 61 1 26 57
M  V30 62 1 34 58
M  V30 63 1 36 59
M  V30 64 1 36 60
M  V30 65 1 37 61
M  V30 66 1 37 62
M  V30 END BOND
M  V30 END CTAB
M  END
>  <Dataset>  (106) 
ChEMBL_Kinases

>  <Ligand_Instance>  (106) 
nan

>  <PDB_ID>  (106) 
nan

>  <Standardized_SMILES>  (106) 
C=Cn1nc(C(N)=O)c2c1-c1nc(Nc3cc(N4CCN(C)CC4)ccc3OC(F)(F)F)ncc1CC2

>  <Name>  (106) 
nan

>  <Pocket>  (106) 
nan

>  <ATP_Site>  (106) 
nan

>  <Peripheral>  (106) 
nan

>  <Num_H_Atoms_ProtBoundConf>  (106) 
nan

>  <Num_Resolved_Atoms>  (106) 
nan

>  <Num_Not_Resolved_Atoms>  (106) 
nan

$$$$
CHEMBL1793895
     RDKit          3D

  0  0  0  0  0  0  0  0  0  0999 V3000
M  V30 BEGIN CTAB
M  V30 COUNTS 64 68 0 0 0
M  V30 BEGIN ATOM
M  V30 1 C 2.994085 0.043253 5.872470 0
M  V30 2 N 1.640172 0.390057 5.460025 0
M  V30 3 C 1.547474 0.035284 4.054673 0
M  V30 4 C 1.925374 1.250051 3.196414 0
M  V30 5 N 0.842923 2.184974 3.304888 0
M  V30 6 C 0.344572 2.759581 2.109603 0
M  V30 7 C -0.038054 4.050127 1.894622 0
M  V30 8 C -0.535240 4.464125 0.665742 0
M  V30 9 C -0.649576 3.555488 -0.371812 0
M  V30 10 O -1.142823 3.972994 -1.593096 0
M  V30 11 C -0.213013 4.470376 -2.564602 0
M  V30 12 F 0.464754 5.577670 -2.091250 0
M  V30 13 F -0.866047 4.814168 -3.722529 0
M  V30 14 F 0.754896 3.533153 -2.882291 0
M  V30 15 C -0.286567 2.244617 -0.227576 0
M  V30 16 N -0.415245 1.236334 -1.247334 0
M  V30 17 C 0.001300 -0.130882 -1.078348 0
M  V30 18 N 1.134500 -0.581455 -0.512885 0
M  V30 19 C 1.410936 -1.884238 -0.356276 0
M  V30 20 C 0.494183 -2.817962 -0.793403 0
M  V30 21 C -0.669473 -2.358832 -1.374730 0
M  V30 22 N -0.913196 -1.044904 -1.515698 0
M  V30 23 C -1.617670 -3.380826 -1.804759 0
M  V30 24 C -1.236236 -4.681025 -1.579466 0
M  V30 25 C -2.272313 -5.431443 -2.035992 0
M  V30 26 C -2.607008 -6.844789 -2.123867 0
M  V30 27 N -1.716862 -7.861107 -1.614138 0
M  V30 28 O -3.519367 -7.596940 -2.542085 0
M  V30 29 N -3.239209 -4.600676 -2.518238 0
M  V30 30 N -2.833840 -3.333068 -2.375321 0
M  V30 31 C -3.504136 -2.104343 -2.728325 0
M  V30 32 C -3.160803 -1.689261 -4.125930 0
M  V30 33 Cl -3.704234 -3.018608 -5.208953 0
M  V30 34 C -0.013063 -5.251105 -1.001583 0
M  V30 35 C 0.949466 -4.208328 -0.535114 0
M  V30 36 C 0.200097 1.897392 1.017155 0
M  V30 37 C 0.393892 2.384084 4.667864 0
M  V30 38 C 1.382440 1.804459 5.648576 0
M  V30 39 H 2.988657 -0.172571 6.941199 0
M  V30 40 H 3.695461 0.873876 5.598280 0
M  V30 41 H 3.282663 -0.870508 5.309927 0
M  V30 42 H 0.551362 -0.323110 3.795287 0
M  V30 43 H 2.261852 -0.775563 3.838843 0
M  V30 44 H 2.164112 0.878312 2.211683 0
M  V30 45 H 2.865729 1.643561 3.646846 0
M  V30 46 H 0.068047 4.719681 2.729125 0
M  V30 47 H -0.832197 5.499448 0.521678 0
M  V30 48 H -0.827743 1.500175 -2.157556 0
M  V30 49 H 2.371445 -2.012782 0.115679 0
M  V30 50 H -0.822785 -7.843571 -2.143063 0
M  V30 51 H -0.910306 -8.504434 -1.426549 0
M  V30 52 H -4.587558 -2.296074 -2.588113 0
M  V30 53 H -3.248741 -1.280414 -2.022790 0
M  V30 54 H -2.067342 -1.590653 -4.238763 0
M  V30 55 H -3.709874 -0.793171 -4.459673 0
M  V30 56 H 0.514146 -5.920225 -1.746022 0
M  V30 57 H -0.258248 -5.946887 -0.167802 0
M  V30 58 H 1.993950 -4.373935 -0.877241 0
M  V30 59 H 1.022623 -4.268658 0.592427 0
M  V30 60 H 0.479879 0.869737 1.147446 0
M  V30 61 H -0.565686 1.820865 4.804396 0
M  V30 62 H 0.239578 3.432962 4.955491 0
M  V30 63 H 2.321486 2.379445 5.725844 0
M  V30 64 H 0.892868 1.920719 6.660707 0
M  V30 END ATOM
M  V30 BEGIN BOND
M  V30 1 1 1 2
M  V30 2 1 2 3
M  V30 3 1 3 4
M  V30 4 1 4 5
M  V30 5 1 5 6
M  V30 6 2 6 7
M  V30 7 1 7 8
M  V30 8 2 8 9
M  V30 9 1 9 10
M  V30 10 1 10 11
M  V30 11 1 11 12
M  V30 12 1 11 13
M  V30 13 1 11 14
M  V30 14 1 9 15
M  V30 15 1 15 16
M  V30 16 1 16 17
M  V30 17 2 17 18
M  V30 18 1 18 19
M  V30 19 2 19 20
M  V30 20 1 20 21
M  V30 21 2 21 22
M  V30 22 1 21 23
M  V30 23 2 23 24
M  V30 24 1 24 25
M  V30 25 1 25 26
M  V30 26 1 26 27
M  V30 27 2 26 28
M  V30 28 2 25 29
M  V30 29 1 29 30
M  V30 30 1 30 31
M  V30 31 1 31 32
M  V30 32 1 32 33
M  V30 33 1 24 34
M  V30 34 1 34 35
M  V30 35 2 15 36
M  V30 36 1 5 37
M  V30 37 1 37 38
M  V30 38 1 38 2
M  V30 39 1 36 6
M  V30 40 1 22 17
M  V30 41 1 30 23
M  V30 42 1 35 20
M  V30 43 1 1 39
M  V30 44 1 1 40
M  V30 45 1 1 41
M  V30 46 1 3 42
M  V30 47 1 3 43
M  V30 48 1 4 44
M  V30 49 1 4 45
M  V30 50 1 7 46
M  V30 51 1 8 47
M  V30 52 1 16 48
M  V30 53 1 19 49
M  V30 54 1 27 50
M  V30 55 1 27 51
M  V30 56 1 31 52
M  V30 57 1 31 53
M  V30 58 1 32 54
M  V30 59 1 32 55
M  V30 60 1 34 56
M  V30 61 1 34 57
M  V30 62 1 35 58
M  V30 63 1 35 59
M  V30 64 1 36 60
M  V30 65 1 37 61
M  V30 66 1 37 62
M  V30 67 1 38 63
M  V30 68 1 38 64
M  V30 END BOND
M  V30 END CTAB
M  END
>  <Dataset>  (107) 
ChEMBL_Kinases

>  <Ligand_Instance>  (107) 
nan

>  <PDB_ID>  (107) 
nan

>  <Standardized_SMILES>  (107) 
CN1CCN(c2ccc(OC(F)(F)F)c(Nc3ncc4c(n3)-c3c(c(C(N)=O)nn3CCCl)CC4)c2)CC1

>  <Name>  (107) 
nan

>  <Pocket>  (107) 
nan

>  <ATP_Site>  (107) 
nan

>  <Peripheral>  (107) 
nan

>  <Num_H_Atoms_ProtBoundConf>  (107) 
nan

>  <Num_Resolved_Atoms>  (107) 
nan

>  <Num_Not_Resolved_Atoms>  (107) 
nan

$$$$
CHEMBL1793892
     RDKit          3D

  0  0  0  0  0  0  0  0  0  0999 V3000
M  V30 BEGIN CTAB
M  V30 COUNTS 64 68 0 0 0
M  V30 BEGIN ATOM
M  V30 1 C 3.053597 1.223148 7.044211 0
M  V30 2 N 2.136235 1.692096 6.026792 0
M  V30 3 C 1.919671 0.646605 5.077327 0
M  V30 4 C 2.220705 1.123978 3.654326 0
M  V30 5 N 1.452950 2.299696 3.410383 0
M  V30 6 C 0.437458 2.542922 2.414224 0
M  V30 7 C -0.188877 3.775067 2.298627 0
M  V30 8 C -1.151847 3.940208 1.326980 0
M  V30 9 C -1.492953 2.908094 0.482006 0
M  V30 10 O -2.477059 3.256329 -0.429878 0
M  V30 11 C -2.076562 3.830131 -1.657813 0
M  V30 12 F -1.383450 5.023955 -1.438005 0
M  V30 13 F -1.176525 2.985823 -2.268688 0
M  V30 14 F -3.126937 3.984789 -2.527435 0
M  V30 15 C -0.906063 1.664462 0.550753 0
M  V30 16 N -1.316378 0.635640 -0.328218 0
M  V30 17 C -0.794547 -0.677997 -0.424133 0
M  V30 18 N 0.203725 -1.199946 0.298064 0
M  V30 19 C 0.651410 -2.450048 0.160693 0
M  V30 20 C 0.090479 -3.300230 -0.764201 0
M  V30 21 C -0.938098 -2.787128 -1.519497 0
M  V30 22 N -1.322558 -1.529525 -1.317985 0
M  V30 23 C -1.576793 -3.635542 -2.517264 0
M  V30 24 C -1.065734 -4.913111 -2.605365 0
M  V30 25 C -1.815367 -5.524399 -3.601916 0
M  V30 26 C -1.743457 -6.893357 -4.153243 0
M  V30 27 N -0.762893 -7.772447 -3.610578 0
M  V30 28 O -2.511521 -7.311290 -5.079700 0
M  V30 29 N -2.702690 -4.612968 -4.040962 0
M  V30 30 N -2.575838 -3.461088 -3.397360 0
M  V30 31 C -3.293448 -2.216163 -3.522218 0
M  V30 32 C -2.601727 -1.321755 -4.555776 0
M  V30 33 F -2.589101 -1.974111 -5.769566 0
M  V30 34 C 0.021933 -5.551614 -1.850322 0
M  V30 35 C 0.656618 -4.659204 -0.838014 0
M  V30 36 C 0.046965 1.555259 1.536614 0
M  V30 37 C 1.757420 3.405705 4.316853 0
M  V30 38 C 2.630024 2.911775 5.426012 0
M  V30 39 H 2.685041 1.489957 8.072919 0
M  V30 40 H 4.091845 1.542677 6.901958 0
M  V30 41 H 3.065073 0.104203 7.052393 0
M  V30 42 H 0.842006 0.311740 5.035817 0
M  V30 43 H 2.512890 -0.242707 5.323102 0
M  V30 44 H 3.289028 1.387789 3.514718 0
M  V30 45 H 2.023287 0.262700 3.012758 0
M  V30 46 H 0.076735 4.587363 2.958929 0
M  V30 47 H -1.600986 4.923473 1.289798 0
M  V30 48 H -2.107353 0.869369 -0.981767 0
M  V30 49 H 1.464243 -2.691516 0.832199 0
M  V30 50 H -0.296557 -8.543794 -3.086283 0
M  V30 51 H -0.743724 -8.610790 -2.981133 0
M  V30 52 H -4.342497 -2.413970 -3.819380 0
M  V30 53 H -3.358241 -1.683765 -2.553103 0
M  V30 54 H -1.596963 -1.027525 -4.199915 0
M  V30 55 H -3.228906 -0.411813 -4.709323 0
M  V30 56 H 0.788240 -5.994523 -2.541579 0
M  V30 57 H -0.449441 -6.417824 -1.310052 0
M  V30 58 H 1.758195 -4.588108 -1.076447 0
M  V30 59 H 0.636296 -5.129152 0.177748 0
M  V30 60 H 0.559288 0.624912 1.668260 0
M  V30 61 H 2.297323 4.202868 3.777813 0
M  V30 62 H 0.817623 3.871060 4.704450 0
M  V30 63 H 3.638416 2.698118 5.024338 0
M  V30 64 H 2.700835 3.680114 6.239770 0
M  V30 END ATOM
M  V30 BEGIN BOND
M  V30 1 1 1 2
M  V30 2 1 2 3
M  V30 3 1 3 4
M  V30 4 1 4 5
M  V30 5 1 5 6
M  V30 6 2 6 7
M  V30 7 1 7 8
M  V30 8 2 8 9
M  V30 9 1 9 10
M  V30 10 1 10 11
M  V30 11 1 11 12
M  V30 12 1 11 13
M  V30 13 1 11 14
M  V30 14 1 9 15
M  V30 15 1 15 16
M  V30 16 1 16 17
M  V30 17 2 17 18
M  V30 18 1 18 19
M  V30 19 2 19 20
M  V30 20 1 20 21
M  V30 21 2 21 22
M  V30 22 1 21 23
M  V30 23 2 23 24
M  V30 24 1 24 25
M  V30 25 1 25 26
M  V30 26 1 26 27
M  V30 27 2 26 28
M  V30 28 2 25 29
M  V30 29 1 29 30
M  V30 30 1 30 31
M  V30 31 1 31 32
M  V30 32 1 32 33
M  V30 33 1 24 34
M  V30 34 1 34 35
M  V30 35 2 15 36
M  V30 36 1 5 37
M  V30 37 1 37 38
M  V30 38 1 38 2
M  V30 39 1 36 6
M  V30 40 1 22 17
M  V30 41 1 30 23
M  V30 42 1 35 20
M  V30 43 1 1 39
M  V30 44 1 1 40
M  V30 45 1 1 41
M  V30 46 1 3 42
M  V30 47 1 3 43
M  V30 48 1 4 44
M  V30 49 1 4 45
M  V30 50 1 7 46
M  V30 51 1 8 47
M  V30 52 1 16 48
M  V30 53 1 19 49
M  V30 54 1 27 50
M  V30 55 1 27 51
M  V30 56 1 31 52
M  V30 57 1 31 53
M  V30 58 1 32 54
M  V30 59 1 32 55
M  V30 60 1 34 56
M  V30 61 1 34 57
M  V30 62 1 35 58
M  V30 63 1 35 59
M  V30 64 1 36 60
M  V30 65 1 37 61
M  V30 66 1 37 62
M  V30 67 1 38 63
M  V30 68 1 38 64
M  V30 END BOND
M  V30 END CTAB
M  END
>  <Dataset>  (108) 
ChEMBL_Kinases

>  <Ligand_Instance>  (108) 
nan

>  <PDB_ID>  (108) 
nan

>  <Standardized_SMILES>  (108) 
CN1CCN(c2ccc(OC(F)(F)F)c(Nc3ncc4c(n3)-c3c(c(C(N)=O)nn3CCF)CC4)c2)CC1

>  <Name>  (108) 
nan

>  <Pocket>  (108) 
nan

>  <ATP_Site>  (108) 
nan

>  <Peripheral>  (108) 
nan

>  <Num_H_Atoms_ProtBoundConf>  (108) 
nan

>  <Num_Resolved_Atoms>  (108) 
nan

>  <Num_Not_Resolved_Atoms>  (108) 
nan

$$$$
CHEMBL179383
     RDKit          3D

  0  0  0  0  0  0  0  0  0  0999 V3000
M  V30 BEGIN CTAB
M  V30 COUNTS 38 41 0 0 0
M  V30 BEGIN ATOM
M  V30 1 N 0.490824 -5.424071 6.303030 0
M  V30 2 C 0.596794 -4.900040 4.970604 0
M  V30 3 C 0.698231 -5.781935 3.905043 0
M  V30 4 C 0.803082 -5.343144 2.598795 0
M  V30 5 C 0.807108 -3.983482 2.344948 0
M  V30 6 N 0.893905 -3.238374 1.205689 0
M  V30 7 C 0.850589 -1.942994 1.521322 0
M  V30 8 C 0.908372 -0.756252 0.658100 0
M  V30 9 C 0.846194 0.528383 1.198476 0
M  V30 10 C 0.901780 1.642763 0.372227 0
M  V30 11 C 1.019673 1.485713 -0.997931 0
M  V30 12 O 1.068606 2.636452 -1.751025 0
M  V30 13 C -0.022165 3.291367 -2.283675 0
M  V30 14 C -0.615344 3.105791 -3.513218 0
M  V30 15 C -1.710961 3.849326 -3.899538 0
M  V30 16 C -2.233143 4.807928 -3.035353 0
M  V30 17 C -1.647623 5.003282 -1.800563 0
M  V30 18 C -0.537193 4.243891 -1.419091 0
M  V30 19 C 1.078790 0.202284 -1.502285 0
M  V30 20 C 1.027526 -0.935996 -0.723508 0
M  V30 21 N 0.736766 -1.894927 2.859812 0
M  V30 22 C 0.705630 -3.104556 3.411442 0
M  V30 23 C 0.599803 -3.549215 4.730127 0
M  V30 24 H 1.017545 -5.198614 7.177938 0
M  V30 25 H -0.147565 -6.160350 6.701762 0
M  V30 26 H 0.700729 -6.860122 4.039031 0
M  V30 27 H 0.882477 -6.048110 1.767019 0
M  V30 28 H 0.981558 -3.615355 0.226496 0
M  V30 29 H 0.753404 0.625758 2.280877 0
M  V30 30 H 0.847247 2.581972 0.874579 0
M  V30 31 H -0.141830 2.341531 -4.114689 0
M  V30 32 H -2.129426 3.651305 -4.883368 0
M  V30 33 H -3.085506 5.342495 -3.412026 0
M  V30 34 H -2.080493 5.764610 -1.141983 0
M  V30 35 H -0.157470 4.478158 -0.431668 0
M  V30 36 H 1.170868 0.128608 -2.579853 0
M  V30 37 H 1.074995 -1.929758 -1.134091 0
M  V30 38 H 0.520945 -2.865452 5.558727 0
M  V30 END ATOM
M  V30 BEGIN BOND
M  V30 1 1 1 2
M  V30 2 2 2 3
M  V30 3 1 3 4
M  V30 4 2 4 5
M  V30 5 1 5 6
M  V30 6 1 6 7
M  V30 7 1 7 8
M  V30 8 2 8 9
M  V30 9 1 9 10
M  V30 10 2 10 11
M  V30 11 1 11 12
M  V30 12 1 12 13
M  V30 13 2 13 14
M  V30 14 1 14 15
M  V30 15 2 15 16
M  V30 16 1 16 17
M  V30 17 2 17 18
M  V30 18 1 11 19
M  V30 19 2 19 20
M  V30 20 2 7 21
M  V30 21 1 21 22
M  V30 22 2 22 23
M  V30 23 1 23 2
M  V30 24 1 22 5
M  V30 25 1 20 8
M  V30 26 1 18 13
M  V30 27 1 1 24
M  V30 28 1 1 25
M  V30 29 1 3 26
M  V30 30 1 4 27
M  V30 31 1 6 28
M  V30 32 1 9 29
M  V30 33 1 10 30
M  V30 34 1 14 31
M  V30 35 1 15 32
M  V30 36 1 16 33
M  V30 37 1 17 34
M  V30 38 1 18 35
M  V30 39 1 19 36
M  V30 40 1 20 37
M  V30 41 1 23 38
M  V30 END BOND
M  V30 END CTAB
M  END
>  <Dataset>  (109) 
ChEMBL_Kinases

>  <Ligand_Instance>  (109) 
nan

>  <PDB_ID>  (109) 
nan

>  <Standardized_SMILES>  (109) 
Nc1ccc2[nH]c(-c3ccc(Oc4ccccc4)cc3)nc2c1

>  <Name>  (109) 
nan

>  <Pocket>  (109) 
nan

>  <ATP_Site>  (109) 
nan

>  <Peripheral>  (109) 
nan

>  <Num_H_Atoms_ProtBoundConf>  (109) 
nan

>  <Num_Resolved_Atoms>  (109) 
nan

>  <Num_Not_Resolved_Atoms>  (109) 
nan

$$$$
CHEMBL179267
     RDKit          3D

  0  0  0  0  0  0  0  0  0  0999 V3000
M  V30 BEGIN CTAB
M  V30 COUNTS 48 51 0 0 0
M  V30 BEGIN ATOM
M  V30 1 C -2.612911 -7.953674 1.963493 0
M  V30 2 O -2.452122 -7.180671 0.816423 0
M  V30 3 C -1.436944 -6.268181 0.608039 0
M  V30 4 C -0.530610 -6.140779 1.639506 0
M  V30 5 C 0.500007 -5.218234 1.435175 0
M  V30 6 C 0.589103 -4.488527 0.266495 0
M  V30 7 O 1.608116 -3.570926 0.055013 0
M  V30 8 C 1.533712 -2.228297 0.403951 0
M  V30 9 C 1.899253 -1.631996 1.594457 0
M  V30 10 C 1.749464 -0.267661 1.755846 0
M  V30 11 C 1.233006 0.481342 0.716309 0
M  V30 12 C 1.072163 1.926005 0.879236 0
M  V30 13 N 1.382314 2.655243 1.971130 0
M  V30 14 C 1.101984 3.951356 1.764912 0
M  V30 15 C 1.224454 5.102136 2.540013 0
M  V30 16 C 0.817474 6.286176 1.961820 0
M  V30 17 C 0.960980 7.468613 2.802872 0
M  V30 18 N 0.656893 8.815041 2.559700 0
M  V30 19 O 1.423002 7.425559 3.972625 0
M  V30 20 C 0.301340 6.448166 0.694296 0
M  V30 21 C 0.196722 5.285604 -0.039489 0
M  V30 22 C 0.585667 4.047830 0.470583 0
M  V30 23 N 0.578835 2.801026 -0.044891 0
M  V30 24 C 0.860476 -0.093074 -0.483489 0
M  V30 25 C 1.014744 -1.472726 -0.639513 0
M  V30 26 C -0.354231 -4.669898 -0.720834 0
M  V30 27 C -1.401746 -5.569028 -0.581388 0
M  V30 28 O -2.390964 -5.814976 -1.517945 0
M  V30 29 C -2.448892 -5.158925 -2.760334 0
M  V30 30 H -1.663595 -8.489159 2.246153 0
M  V30 31 H -3.081582 -7.466909 2.818694 0
M  V30 32 H -3.300807 -8.803872 1.681458 0
M  V30 33 H -0.609694 -6.713707 2.544327 0
M  V30 34 H 1.242846 -5.080558 2.221590 0
M  V30 35 H 2.290018 -2.317478 2.332938 0
M  V30 36 H 2.047215 0.163462 2.703228 0
M  V30 37 H 1.620449 5.057757 3.544718 0
M  V30 38 H 1.364303 9.583905 2.363607 0
M  V30 39 H -0.382105 8.994256 2.592480 0
M  V30 40 H 0.007208 7.415433 0.320608 0
M  V30 41 H -0.205268 5.352887 -1.049864 0
M  V30 42 H 0.245096 2.577603 -0.995677 0
M  V30 43 H 0.460050 0.534804 -1.270286 0
M  V30 44 H 0.698163 -1.841275 -1.610725 0
M  V30 45 H -0.308813 -4.117001 -1.637563 0
M  V30 46 H -1.806327 -5.683505 -3.516509 0
M  V30 47 H -3.480416 -5.175609 -3.188425 0
M  V30 48 H -2.054004 -4.124774 -2.690036 0
M  V30 END ATOM
M  V30 BEGIN BOND
M  V30 1 1 1 2
M  V30 2 1 2 3
M  V30 3 2 3 4
M  V30 4 1 4 5
M  V30 5 2 5 6
M  V30 6 1 6 7
M  V30 7 1 7 8
M  V30 8 2 8 9
M  V30 9 1 9 10
M  V30 10 2 10 11
M  V30 11 1 11 12
M  V30 12 2 12 13
M  V30 13 1 13 14
M  V30 14 2 14 15
M  V30 15 1 15 16
M  V30 16 1 16 17
M  V30 17 1 17 18
M  V30 18 2 17 19
M  V30 19 2 16 20
M  V30 20 1 20 21
M  V30 21 2 21 22
M  V30 22 1 22 23
M  V30 23 1 11 24
M  V30 24 2 24 25
M  V30 25 1 6 26
M  V30 26 2 26 27
M  V30 27 1 27 28
M  V30 28 1 28 29
M  V30 29 1 27 3
M  V30 30 1 25 8
M  V30 31 1 23 12
M  V30 32 1 22 14
M  V30 33 1 1 30
M  V30 34 1 1 31
M  V30 35 1 1 32
M  V30 36 1 4 33
M  V30 37 1 5 34
M  V30 38 1 9 35
M  V30 39 1 10 36
M  V30 40 1 15 37
M  V30 41 1 18 38
M  V30 42 1 18 39
M  V30 43 1 20 40
M  V30 44 1 21 41
M  V30 45 1 23 42
M  V30 46 1 24 43
M  V30 47 1 25 44
M  V30 48 1 26 45
M  V30 49 1 29 46
M  V30 50 1 29 47
M  V30 51 1 29 48
M  V30 END BOND
M  V30 END CTAB
M  END
>  <Dataset>  (110) 
ChEMBL_Kinases

>  <Ligand_Instance>  (110) 
nan

>  <PDB_ID>  (110) 
nan

>  <Standardized_SMILES>  (110) 
COc1ccc(Oc2ccc(-c3nc4cc(C(N)=O)ccc4[nH]3)cc2)cc1OC

>  <Name>  (110) 
nan

>  <Pocket>  (110) 
nan

>  <ATP_Site>  (110) 
nan

>  <Peripheral>  (110) 
nan

>  <Num_H_Atoms_ProtBoundConf>  (110) 
nan

>  <Num_Resolved_Atoms>  (110) 
nan

>  <Num_Not_Resolved_Atoms>  (110) 
nan

$$$$
CHEMBL1790006
     RDKit          3D

  0  0  0  0  0  0  0  0  0  0999 V3000
M  V30 BEGIN CTAB
M  V30 COUNTS 35 37 0 0 0
M  V30 BEGIN ATOM
M  V30 1 C -1.893724 -0.838078 5.933479 0
M  V30 2 C -1.654431 -0.453002 4.520927 0
M  V30 3 C -0.681407 -1.029678 3.731732 0
M  V30 4 C -0.494572 -0.630626 2.401261 0
M  V30 5 N 0.469700 -1.244181 1.716564 0
M  V30 6 C 0.828544 -1.038940 0.459128 0
M  V30 7 C 1.879382 -1.805721 -0.060038 0
M  V30 8 C 2.294681 -1.632943 -1.365541 0
M  V30 9 C 1.710990 -0.715106 -2.214752 0
M  V30 10 N 2.168433 -0.570319 -3.547433 0
M  V30 11 C 3.263874 -1.414676 -3.984159 0
M  V30 12 C 1.585370 0.370709 -4.452069 0
M  V30 13 C 0.674707 0.044074 -1.709739 0
M  V30 14 C 0.258436 -0.127268 -0.405439 0
M  V30 15 S -1.023722 0.778562 0.296848 0 CHG=1 VAL=3
M  V30 16 C -1.333443 0.363827 1.931599 0
M  V30 17 C -2.309810 0.946887 2.713339 0
M  V30 18 C -2.487253 0.545647 4.028393 0
M  V30 19 N -3.514951 1.194915 4.769123 0
M  V30 20 H -0.998602 -1.401970 6.271309 0
M  V30 21 H -1.980923 0.021858 6.619407 0
M  V30 22 H -2.758305 -1.524216 5.949631 0
M  V30 23 H -0.093398 -1.798666 4.227259 0
M  V30 24 H 2.351701 -2.534733 0.595451 0
M  V30 25 H 3.115903 -2.275137 -1.671844 0
M  V30 26 H 3.362093 -1.379832 -5.099980 0
M  V30 27 H 4.204109 -1.075578 -3.510952 0
M  V30 28 H 3.058051 -2.473055 -3.701379 0
M  V30 29 H 0.768569 -0.181664 -4.999090 0
M  V30 30 H 1.206696 1.291422 -3.986210 0
M  V30 31 H 2.370005 0.637298 -5.214474 0
M  V30 32 H 0.173763 0.773749 -2.304311 0
M  V30 33 H -2.885551 1.707994 2.209206 0
M  V30 34 H -3.441893 2.058234 5.350164 0
M  V30 35 H -4.298859 0.538758 4.531879 0
M  V30 END ATOM
M  V30 BEGIN BOND
M  V30 1 1 1 2
M  V30 2 2 2 3
M  V30 3 1 3 4
M  V30 4 2 4 5
M  V30 5 1 5 6
M  V30 6 2 6 7
M  V30 7 1 7 8
M  V30 8 2 8 9
M  V30 9 1 9 10
M  V30 10 1 10 11
M  V30 11 1 10 12
M  V30 12 1 9 13
M  V30 13 2 13 14
M  V30 14 1 14 15
M  V30 15 2 15 16
M  V30 16 1 16 17
M  V30 17 2 17 18
M  V30 18 1 18 19
M  V30 19 1 18 2
M  V30 20 1 16 4
M  V30 21 1 14 6
M  V30 22 1 1 20
M  V30 23 1 1 21
M  V30 24 1 1 22
M  V30 25 1 3 23
M  V30 26 1 7 24
M  V30 27 1 8 25
M  V30 28 1 11 26
M  V30 29 1 11 27
M  V30 30 1 11 28
M  V30 31 1 12 29
M  V30 32 1 12 30
M  V30 33 1 12 31
M  V30 34 1 13 32
M  V30 35 1 17 33
M  V30 36 1 19 34
M  V30 37 1 19 35
M  V30 END BOND
M  V30 END CTAB
M  END
>  <Dataset>  (111) 
ChEMBL_Kinases

>  <Ligand_Instance>  (111) 
nan

>  <PDB_ID>  (111) 
nan

>  <Standardized_SMILES>  (111) 
Cc1cc2nc3ccc(N(C)C)cc3[s+]c2cc1N

>  <Name>  (111) 
TOLONIUM CHLORIDE

>  <Pocket>  (111) 
nan

>  <ATP_Site>  (111) 
nan

>  <Peripheral>  (111) 
nan

>  <Num_H_Atoms_ProtBoundConf>  (111) 
nan

>  <Num_Resolved_Atoms>  (111) 
nan

>  <Num_Not_Resolved_Atoms>  (111) 
nan

$$$$
CHEMBL1789985
     RDKit          3D

  0  0  0  0  0  0  0  0  0  0999 V3000
M  V30 BEGIN CTAB
M  V30 COUNTS 50 52 0 0 0
M  V30 BEGIN ATOM
M  V30 1 C 1.049727 -6.393772 0.218112 0
M  V30 2 N -0.225254 -5.772435 0.523041 0
M  V30 3 C -1.344749 -6.590644 0.948183 0
M  V30 4 C -0.399022 -4.366240 0.412656 0
M  V30 5 C 0.676353 -3.573399 0.003948 0
M  V30 6 C 0.455524 -2.233498 -0.084325 0
M  V30 7 C -0.742323 -1.556134 0.192512 0
M  V30 8 C -0.760722 -0.112440 0.062324 0
M  V30 9 C 0.109110 0.650478 0.712109 0
M  V30 10 C 0.151274 2.110499 0.630394 0
M  V30 11 C 1.007803 2.878269 1.282755 0
M  V30 12 C 1.996685 2.258925 2.157807 0
M  V30 13 N 2.830197 3.009963 2.792023 0 CHG=1 VAL=4
M  V30 14 C 2.762909 4.440924 2.619705 0
M  V30 15 C 3.806436 2.364950 3.659743 0
M  V30 16 C 2.009878 0.806938 2.286822 0
M  V30 17 C 1.123379 0.102544 1.604098 0
M  V30 18 C -1.698481 0.493092 -0.870407 0
M  V30 19 C -1.116788 1.310586 -1.852309 0
M  V30 20 C -1.829866 1.989239 -2.818574 0
M  V30 21 C -3.201746 1.882970 -2.855164 0
M  V30 22 C -3.794319 1.087875 -1.903677 0
M  V30 23 C -3.064202 0.422272 -0.951650 0
M  V30 24 C -1.735389 -2.415456 0.584549 0
M  V30 25 C -1.589930 -3.776185 0.697078 0
M  V30 26 H 1.042745 -7.442506 0.602410 0
M  V30 27 H 1.354732 -6.315866 -0.825767 0
M  V30 28 H 1.801080 -5.821878 0.834836 0
M  V30 29 H -0.996539 -7.624732 1.216811 0
M  V30 30 H -1.721390 -6.165044 1.900714 0
M  V30 31 H -2.147414 -6.638034 0.187157 0
M  V30 32 H 1.608240 -4.065832 -0.214573 0
M  V30 33 H 1.360530 -1.700369 -0.426088 0
M  V30 34 H -0.540004 2.645580 0.031852 0
M  V30 35 H 1.005995 3.956022 1.194066 0
M  V30 36 H 3.489822 4.980947 3.249977 0
M  V30 37 H 1.765976 4.861298 2.910565 0
M  V30 38 H 3.015308 4.720414 1.558281 0
M  V30 39 H 4.476561 3.136273 4.116427 0
M  V30 40 H 3.309002 1.747242 4.434323 0
M  V30 41 H 4.436355 1.720739 3.011047 0
M  V30 42 H 2.755995 0.384806 2.944400 0
M  V30 43 H 1.213675 -0.939099 1.786757 0
M  V30 44 H -0.037251 1.498256 -1.970427 0
M  V30 45 H -1.396552 2.620093 -3.579273 0
M  V30 46 H -3.828664 2.372484 -3.566284 0
M  V30 47 H -4.867034 0.972041 -1.890640 0
M  V30 48 H -3.562674 -0.172449 -0.233419 0
M  V30 49 H -2.687510 -2.009329 0.830907 0
M  V30 50 H -2.425946 -4.381817 1.013454 0
M  V30 END ATOM
M  V30 BEGIN BOND
M  V30 1 1 1 2
M  V30 2 1 2 3
M  V30 3 1 2 4
M  V30 4 2 4 5
M  V30 5 1 5 6
M  V30 6 2 6 7
M  V30 7 1 7 8
M  V30 8 2 8 9 CFG=2
M  V30 9 1 9 10
M  V30 10 2 10 11
M  V30 11 1 11 12
M  V30 12 2 12 13 CFG=2
M  V30 13 1 13 14
M  V30 14 1 13 15
M  V30 15 1 12 16
M  V30 16 2 16 17
M  V30 17 1 8 18
M  V30 18 2 18 19
M  V30 19 1 19 20
M  V30 20 2 20 21
M  V30 21 1 21 22
M  V30 22 2 22 23
M  V30 23 1 7 24
M  V30 24 2 24 25
M  V30 25 1 25 4
M  V30 26 1 17 9
M  V30 27 1 23 18
M  V30 28 1 1 26
M  V30 29 1 1 27
M  V30 30 1 1 28
M  V30 31 1 3 29
M  V30 32 1 3 30
M  V30 33 1 3 31
M  V30 34 1 5 32
M  V30 35 1 6 33
M  V30 36 1 10 34
M  V30 37 1 11 35
M  V30 38 1 14 36
M  V30 39 1 14 37
M  V30 40 1 14 38
M  V30 41 1 15 39
M  V30 42 1 15 40
M  V30 43 1 15 41
M  V30 44 1 16 42
M  V30 45 1 17 43
M  V30 46 1 19 44
M  V30 47 1 20 45
M  V30 48 1 21 46
M  V30 49 1 22 47
M  V30 50 1 23 48
M  V30 51 1 24 49
M  V30 52 1 25 50
M  V30 END BOND
M  V30 END CTAB
M  END
>  <Dataset>  (112) 
ChEMBL_Kinases

>  <Ligand_Instance>  (112) 
nan

>  <PDB_ID>  (112) 
nan

>  <Standardized_SMILES>  (112) 
CN(C)c1ccc(C(=C2C=CC(=[N+](C)C)C=C2)c2ccccc2)cc1

>  <Name>  (112) 
BRILLIANT GREEN OXALATE

>  <Pocket>  (112) 
nan

>  <ATP_Site>  (112) 
nan

>  <Peripheral>  (112) 
nan

>  <Num_H_Atoms_ProtBoundConf>  (112) 
nan

>  <Num_Resolved_Atoms>  (112) 
nan

>  <Num_Not_Resolved_Atoms>  (112) 
nan

$$$$
CHEMBL1773514
     RDKit          3D

  0  0  0  0  0  0  0  0  0  0999 V3000
M  V30 BEGIN CTAB
M  V30 COUNTS 50 52 0 0 0
M  V30 BEGIN ATOM
M  V30 1 C -2.446603 1.243380 -4.536104 0
M  V30 2 C -2.507101 0.411977 -3.246691 0
M  V30 3 C -3.979981 0.291140 -2.925835 0
M  V30 4 C -1.976516 -0.975787 -3.488057 0 CFG=1
M  V30 5 C -2.779404 -1.697491 -4.547150 0
M  V30 6 N -0.568609 -1.025366 -3.806715 0
M  V30 7 C 0.529892 -0.699935 -2.970054 0
M  V30 8 C 0.418184 -0.349705 -1.643585 0
M  V30 9 C 1.467380 -0.019451 -0.811608 0
M  V30 10 C 1.247452 0.342073 0.597185 0
M  V30 11 N 1.451170 1.457754 1.333855 0
M  V30 12 C 1.054431 1.204250 2.597198 0
M  V30 13 S 1.241781 2.553489 3.726531 0 CHG=1 VAL=3
M  V30 14 C -0.278833 3.508184 3.694526 0
M  V30 15 O 1.336159 1.942915 5.311223 0 CHG=-1 VAL=1
M  V30 16 N 0.593932 -0.062580 2.696416 0
M  V30 17 C 0.705853 -0.610457 1.469300 0
M  V30 18 C 0.302035 -1.996215 1.172290 0
M  V30 19 C -0.928226 -2.599433 1.268347 0
M  V30 20 C -1.023619 -3.930435 0.920808 0
M  V30 21 C 0.050400 -4.666602 0.487897 0
M  V30 22 F -0.101697 -5.971982 0.159546 0
M  V30 23 C 1.289688 -4.067557 0.388745 0
M  V30 24 C 1.407998 -2.718674 0.736360 0
M  V30 25 C 2.739879 -0.039405 -1.345095 0
M  V30 26 C 2.829437 -0.393120 -2.675172 0
M  V30 27 N 1.783637 -0.707005 -3.448848 0
M  V30 28 H -2.546919 2.310217 -4.201525 0
M  V30 29 H -3.330216 0.985694 -5.149888 0
M  V30 30 H -1.492648 1.109447 -5.057299 0
M  V30 31 H -2.031755 0.970504 -2.453251 0
M  V30 32 H -4.366638 1.232607 -2.442774 0
M  V30 33 H -4.225661 -0.537163 -2.243926 0
M  V30 34 H -4.599871 0.196123 -3.853090 0
M  V30 35 H -2.169599 -1.560787 -2.536563 0
M  V30 36 H -2.195124 -2.595755 -4.842646 0
M  V30 37 H -2.830904 -1.032578 -5.448170 0
M  V30 38 H -3.785376 -1.961714 -4.173794 0
M  V30 39 H -0.323944 -1.345318 -4.791933 0
M  V30 40 H -0.547941 -0.324442 -1.170977 0
M  V30 41 H 1.853510 2.258798 0.816776 0
M  V30 42 H -0.081742 4.595960 3.764255 0
M  V30 43 H -0.743453 3.346807 2.706243 0
M  V30 44 H -1.001136 3.137421 4.450858 0
M  V30 45 H -1.681872 -1.927789 1.614734 0
M  V30 46 H -2.019747 -4.350058 1.017190 0
M  V30 47 H 2.110916 -4.681386 0.043813 0
M  V30 48 H 2.430746 -2.371054 0.614008 0
M  V30 49 H 3.609155 0.208123 -0.751496 0
M  V30 50 H 3.796189 -0.433874 -3.174372 0
M  V30 END ATOM
M  V30 BEGIN BOND
M  V30 1 1 1 2
M  V30 2 1 2 3
M  V30 3 1 2 4
M  V30 4 1 4 5
M  V30 5 1 4 6
M  V30 6 1 6 7
M  V30 7 2 7 8
M  V30 8 1 8 9
M  V30 9 1 9 10
M  V30 10 1 10 11
M  V30 11 1 11 12
M  V30 12 1 12 13
M  V30 13 1 13 14
M  V30 14 1 13 15 CFG=1
M  V30 15 2 12 16
M  V30 16 1 16 17
M  V30 17 1 17 18
M  V30 18 2 18 19
M  V30 19 1 19 20
M  V30 20 2 20 21
M  V30 21 1 21 22
M  V30 22 1 21 23
M  V30 23 2 23 24
M  V30 24 2 9 25
M  V30 25 1 25 26
M  V30 26 2 26 27
M  V30 27 1 27 7
M  V30 28 2 17 10
M  V30 29 1 24 18
M  V30 30 1 1 28
M  V30 31 1 1 29
M  V30 32 1 1 30
M  V30 33 1 2 31
M  V30 34 1 3 32
M  V30 35 1 3 33
M  V30 36 1 3 34
M  V30 37 1 4 35 CFG=1
M  V30 38 1 5 36
M  V30 39 1 5 37
M  V30 40 1 5 38
M  V30 41 1 6 39
M  V30 42 1 8 40
M  V30 43 1 11 41
M  V30 44 1 14 42
M  V30 45 1 14 43
M  V30 46 1 14 44
M  V30 47 1 19 45
M  V30 48 1 20 46
M  V30 49 1 23 47
M  V30 50 1 24 48
M  V30 51 1 25 49
M  V30 52 1 26 50
M  V30 END BOND
M  V30 END CTAB
M  END
>  <Dataset>  (113) 
ChEMBL_Kinases

>  <Ligand_Instance>  (113) 
nan

>  <PDB_ID>  (113) 
nan

>  <Standardized_SMILES>  (113) 
CC(C)[C@@H](C)Nc1cc(-c2[nH]c([S@@+](C)[O-])nc2-c2ccc(F)cc2)ccn1

>  <Name>  (113) 
nan

>  <Pocket>  (113) 
nan

>  <ATP_Site>  (113) 
nan

>  <Peripheral>  (113) 
nan

>  <Num_H_Atoms_ProtBoundConf>  (113) 
nan

>  <Num_Resolved_Atoms>  (113) 
nan

>  <Num_Not_Resolved_Atoms>  (113) 
nan

$$$$
CHEMBL1784171
     RDKit          3D

  0  0  0  0  0  0  0  0  0  0999 V3000
M  V30 BEGIN CTAB
M  V30 COUNTS 53 55 0 0 0
M  V30 BEGIN ATOM
M  V30 1 C 2.631109 -3.931121 0.929959 0
M  V30 2 C 3.225313 -2.596495 0.771851 0
M  V30 3 C 4.584704 -2.385577 0.872436 0
M  V30 4 F 5.358690 -3.481023 1.126359 0
M  V30 5 C 5.184173 -1.129265 0.728645 0
M  V30 6 C 4.369504 -0.051186 0.473566 0
M  V30 7 C 5.018050 1.251067 0.327104 0
M  V30 8 O 6.252336 1.308994 0.439760 0
M  V30 9 N 4.311310 2.456898 0.062286 0
M  V30 10 C 5.052891 3.685500 -0.063130 0
M  V30 11 C 4.460943 4.993642 0.290362 0
M  V30 12 C 4.637821 4.678753 -1.153899 0
M  V30 13 C 3.006420 -0.238047 0.368702 0
M  V30 14 C 2.426903 -1.500482 0.515445 0
M  V30 15 C 0.974376 -1.592976 0.384923 0
M  V30 16 C 0.173412 -0.671507 1.027948 0
M  V30 17 C -1.198663 -0.744241 0.914124 0
M  V30 18 C -1.844877 -1.709651 0.175186 0
M  V30 19 C -3.276827 -1.879228 -0.011833 0
M  V30 20 O -3.751074 -2.805599 -0.718240 0
M  V30 21 N -4.301159 -1.089633 0.529188 0
M  V30 22 C -5.672337 -0.790802 0.700738 0
M  V30 23 C -6.422100 -1.867056 1.401556 0
M  V30 24 C -5.850761 -2.216848 2.748330 0
M  V30 25 C -6.457416 -3.135646 0.560753 0
M  V30 26 O -7.757473 -1.413227 1.564393 0
M  V30 27 C -1.053923 -2.628664 -0.466506 0
M  V30 28 C 0.315514 -2.554641 -0.351882 0
M  V30 29 H 3.247240 -4.473055 1.705004 0
M  V30 30 H 1.613131 -3.905142 1.336433 0
M  V30 31 H 2.723391 -4.578347 0.024234 0
M  V30 32 H 6.260238 -1.093002 0.829439 0
M  V30 33 H 3.272808 2.425556 -0.035273 0
M  V30 34 H 6.134015 3.606690 0.055477 0
M  V30 35 H 5.137055 5.807657 0.641328 0
M  V30 36 H 3.485315 5.031917 0.780932 0
M  V30 37 H 3.718840 4.427447 -1.740457 0
M  V30 38 H 5.402780 5.176134 -1.761862 0
M  V30 39 H 2.370351 0.607524 0.168910 0
M  V30 40 H 0.614823 0.115483 1.626590 0
M  V30 41 H -1.826114 -0.023548 1.416955 0
M  V30 42 H -3.787657 -0.341383 1.102748 0
M  V30 43 H -5.882560 0.217728 1.084467 0
M  V30 44 H -6.080841 -0.714013 -0.379329 0
M  V30 45 H -6.655015 -2.736060 3.320625 0
M  V30 46 H -5.480863 -1.313890 3.298629 0
M  V30 47 H -5.029723 -2.963365 2.607145 0
M  V30 48 H -5.650035 -3.831036 0.834846 0
M  V30 49 H -6.398206 -2.931884 -0.520728 0
M  V30 50 H -7.414724 -3.688885 0.794629 0
M  V30 51 H -8.011143 -1.069227 0.678634 0
M  V30 52 H -1.480533 -3.433439 -1.077628 0
M  V30 53 H 0.906630 -3.295781 -0.872268 0
M  V30 END ATOM
M  V30 BEGIN BOND
M  V30 1 1 1 2
M  V30 2 2 2 3
M  V30 3 1 3 4
M  V30 4 1 3 5
M  V30 5 2 5 6
M  V30 6 1 6 7
M  V30 7 2 7 8
M  V30 8 1 7 9
M  V30 9 1 9 10
M  V30 10 1 10 11
M  V30 11 1 11 12
M  V30 12 1 6 13
M  V30 13 2 13 14
M  V30 14 1 14 15
M  V30 15 2 15 16
M  V30 16 1 16 17
M  V30 17 2 17 18
M  V30 18 1 18 19
M  V30 19 2 19 20
M  V30 20 1 19 21
M  V30 21 1 21 22
M  V30 22 1 22 23
M  V30 23 1 23 24
M  V30 24 1 23 25
M  V30 25 1 23 26
M  V30 26 1 18 27
M  V30 27 2 27 28
M  V30 28 1 14 2
M  V30 29 1 28 15
M  V30 30 1 12 10
M  V30 31 1 1 29
M  V30 32 1 1 30
M  V30 33 1 1 31
M  V30 34 1 5 32
M  V30 35 1 9 33
M  V30 36 1 10 34
M  V30 37 1 11 35
M  V30 38 1 11 36
M  V30 39 1 12 37
M  V30 40 1 12 38
M  V30 41 1 13 39
M  V30 42 1 16 40
M  V30 43 1 17 41
M  V30 44 1 21 42
M  V30 45 1 22 43
M  V30 46 1 22 44
M  V30 47 1 24 45
M  V30 48 1 24 46
M  V30 49 1 24 47
M  V30 50 1 25 48
M  V30 51 1 25 49
M  V30 52 1 25 50
M  V30 53 1 26 51
M  V30 54 1 27 52
M  V30 55 1 28 53
M  V30 END BOND
M  V30 END CTAB
M  END
>  <Dataset>  (114) 
ChEMBL_Kinases

>  <Ligand_Instance>  (114) 
nan

>  <PDB_ID>  (114) 
nan

>  <Standardized_SMILES>  (114) 
Cc1c(F)cc(C(=O)NC2CC2)cc1-c1ccc(C(=O)NCC(C)(C)O)cc1

>  <Name>  (114) 
nan

>  <Pocket>  (114) 
nan

>  <ATP_Site>  (114) 
nan

>  <Peripheral>  (114) 
nan

>  <Num_H_Atoms_ProtBoundConf>  (114) 
nan

>  <Num_Resolved_Atoms>  (114) 
nan

>  <Num_Not_Resolved_Atoms>  (114) 
nan

$$$$
CHEMBL1784172
     RDKit          3D

  0  0  0  0  0  0  0  0  0  0999 V3000
M  V30 BEGIN CTAB
M  V30 COUNTS 49 52 0 0 0
M  V30 BEGIN ATOM
M  V30 1 C -0.553618 1.256370 4.048965 0
M  V30 2 C 0.606163 1.574972 3.176027 0
M  V30 3 C 1.575318 2.486457 3.615224 0
M  V30 4 F 1.407466 3.054989 4.855364 0
M  V30 5 C 2.701830 2.859860 2.882531 0
M  V30 6 C 2.848175 2.275904 1.641297 0
M  V30 7 C 4.025766 2.666342 0.875553 0
M  V30 8 O 4.819473 3.487690 1.370946 0
M  V30 9 N 4.364947 2.186880 -0.417667 0
M  V30 10 C 5.546868 2.608948 -1.131649 0
M  V30 11 C 6.176636 1.625533 -2.061850 0
M  V30 12 C 5.465862 2.823435 -2.632938 0
M  V30 13 C 1.901978 1.377329 1.196751 0
M  V30 14 C 0.801829 1.021508 1.928327 0
M  V30 15 C -0.187063 0.067020 1.435762 0
M  V30 16 C -0.112861 -0.557771 0.207874 0
M  V30 17 C -1.045176 -1.461807 -0.264494 0
M  V30 18 C -2.132238 -1.775536 0.529437 0
M  V30 19 C -3.107837 -2.732322 0.015468 0
M  V30 20 O -2.908461 -3.214515 -1.109254 0
M  V30 21 N -4.256469 -3.115099 0.759810 0
M  V30 22 C -5.088521 -4.065010 0.078500 0
M  V30 23 C -4.453826 -5.359799 -0.274473 0
M  V30 24 C -3.880537 -6.296130 0.692413 0
M  V30 25 C -5.218874 -6.648734 0.168436 0
M  V30 26 C -2.210543 -1.153010 1.758425 0
M  V30 27 N -1.265639 -0.280729 2.157332 0
M  V30 28 H -0.599286 0.212919 4.380722 0
M  V30 29 H -0.476804 1.880651 4.974866 0
M  V30 30 H -1.469894 1.632450 3.545257 0
M  V30 31 H 3.385256 3.576740 3.326592 0
M  V30 32 H 3.726099 1.498027 -0.866709 0
M  V30 33 H 6.205574 3.352834 -0.609138 0
M  V30 34 H 7.271110 1.610938 -2.050612 0
M  V30 35 H 5.658721 0.672418 -2.212473 0
M  V30 36 H 6.071448 3.607156 -3.102490 0
M  V30 37 H 4.464185 2.690153 -3.091584 0
M  V30 38 H 2.093890 0.970881 0.220119 0
M  V30 39 H 0.716467 -0.347827 -0.451279 0
M  V30 40 H -0.911656 -1.916449 -1.257934 0
M  V30 41 H -4.440358 -2.718725 1.709353 0
M  V30 42 H -5.972937 -4.259131 0.723197 0
M  V30 43 H -5.546229 -3.636264 -0.860712 0
M  V30 44 H -4.064764 -5.457195 -1.330868 0
M  V30 45 H -3.063967 -6.973118 0.374961 0
M  V30 46 H -3.735710 -5.936445 1.727960 0
M  V30 47 H -6.145620 -6.442664 0.762311 0
M  V30 48 H -5.337879 -7.449576 -0.559730 0
M  V30 49 H -3.055395 -1.387997 2.391673 0
M  V30 END ATOM
M  V30 BEGIN BOND
M  V30 1 1 1 2
M  V30 2 2 2 3
M  V30 3 1 3 4
M  V30 4 1 3 5
M  V30 5 2 5 6
M  V30 6 1 6 7
M  V30 7 2 7 8
M  V30 8 1 7 9
M  V30 9 1 9 10
M  V30 10 1 10 11
M  V30 11 1 11 12
M  V30 12 1 6 13
M  V30 13 2 13 14
M  V30 14 1 14 15
M  V30 15 2 15 16
M  V30 16 1 16 17
M  V30 17 2 17 18
M  V30 18 1 18 19
M  V30 19 2 19 20
M  V30 20 1 19 21
M  V30 21 1 21 22
M  V30 22 1 22 23
M  V30 23 1 23 24
M  V30 24 1 24 25
M  V30 25 1 18 26
M  V30 26 2 26 27
M  V30 27 1 14 2
M  V30 28 1 27 15
M  V30 29 1 12 10
M  V30 30 1 25 23
M  V30 31 1 1 28
M  V30 32 1 1 29
M  V30 33 1 1 30
M  V30 34 1 5 31
M  V30 35 1 9 32
M  V30 36 1 10 33
M  V30 37 1 11 34
M  V30 38 1 11 35
M  V30 39 1 12 36
M  V30 40 1 12 37
M  V30 41 1 13 38
M  V30 42 1 16 39
M  V30 43 1 17 40
M  V30 44 1 21 41
M  V30 45 1 22 42
M  V30 46 1 22 43
M  V30 47 1 23 44
M  V30 48 1 24 45
M  V30 49 1 24 46
M  V30 50 1 25 47
M  V30 51 1 25 48
M  V30 52 1 26 49
M  V30 END BOND
M  V30 END CTAB
M  END
>  <Dataset>  (115) 
ChEMBL_Kinases

>  <Ligand_Instance>  (115) 
nan

>  <PDB_ID>  (115) 
nan

>  <Standardized_SMILES>  (115) 
Cc1c(F)cc(C(=O)NC2CC2)cc1-c1ccc(C(=O)NCC2CC2)cn1

>  <Name>  (115) 
nan

>  <Pocket>  (115) 
nan

>  <ATP_Site>  (115) 
nan

>  <Peripheral>  (115) 
nan

>  <Num_H_Atoms_ProtBoundConf>  (115) 
nan

>  <Num_Resolved_Atoms>  (115) 
nan

>  <Num_Not_Resolved_Atoms>  (115) 
nan

$$$$
CHEMBL1784173
     RDKit          3D

  0  0  0  0  0  0  0  0  0  0999 V3000
M  V30 BEGIN CTAB
M  V30 COUNTS 51 53 0 0 0
M  V30 BEGIN ATOM
M  V30 1 C 0.975723 0.384777 4.369227 0
M  V30 2 C 1.898679 0.774493 3.283443 0
M  V30 3 C 2.999987 1.592928 3.566200 0
M  V30 4 F 3.165040 1.997762 4.869275 0
M  V30 5 C 3.943302 2.030354 2.630760 0
M  V30 6 C 3.754518 1.608916 1.326306 0
M  V30 7 C 4.739149 2.065812 0.350908 0
M  V30 8 O 5.677423 2.798047 0.746950 0
M  V30 9 N 4.744886 1.761356 -1.026148 0
M  V30 10 C 5.741471 2.240502 -1.938916 0
M  V30 11 C 6.012324 1.580948 -3.231718 0
M  V30 12 C 5.153167 2.819613 -3.227468 0
M  V30 13 C 2.685632 0.806291 1.014881 0
M  V30 14 C 1.769639 0.390930 1.965200 0
M  V30 15 C 0.643561 -0.462748 1.600946 0
M  V30 16 C 0.390434 -0.921387 0.326441 0
M  V30 17 C -0.695924 -1.737303 0.009042 0
M  V30 18 C -1.564697 -2.114508 0.985991 0
M  V30 19 C -2.669906 -2.962546 0.582552 0
M  V30 20 O -2.766122 -3.297313 -0.621224 0
M  V30 21 N -3.682591 -3.471264 1.414573 0
M  V30 22 C -4.857629 -4.280352 1.365472 0
M  V30 23 C -5.957834 -3.719276 0.499810 0
M  V30 24 C -6.399173 -2.350226 0.966234 0
M  V30 25 C -5.689061 -3.764017 -0.966015 0
M  V30 26 C -1.312268 -1.660320 2.242745 0
M  V30 27 N -0.254626 -0.874817 2.512202 0
M  V30 28 H 1.327754 0.855121 5.313886 0
M  V30 29 H -0.042729 0.804820 4.171353 0
M  V30 30 H 0.969661 -0.709597 4.535306 0
M  V30 31 H 4.746940 2.660751 2.985205 0
M  V30 32 H 3.979350 1.154038 -1.393383 0
M  V30 33 H 6.514777 2.878554 -1.459610 0
M  V30 34 H 5.537479 0.611712 -3.420311 0
M  V30 35 H 7.023159 1.775627 -3.666135 0
M  V30 36 H 5.513071 3.780224 -3.599939 0
M  V30 37 H 4.086571 2.632950 -3.455901 0
M  V30 38 H 2.626101 0.536441 -0.008265 0
M  V30 39 H 1.055867 -0.643573 -0.471593 0
M  V30 40 H -0.795112 -2.040647 -1.043060 0
M  V30 41 H -3.495614 -3.126202 2.412342 0
M  V30 42 H -5.232755 -4.573751 2.351613 0
M  V30 43 H -4.536088 -5.280558 0.906658 0
M  V30 44 H -6.889900 -4.365531 0.684527 0
M  V30 45 H -6.167586 -2.239844 2.050599 0
M  V30 46 H -7.507333 -2.202614 0.879534 0
M  V30 47 H -5.911416 -1.573823 0.337079 0
M  V30 48 H -5.291535 -2.785750 -1.369376 0
M  V30 49 H -6.688079 -3.944156 -1.481587 0
M  V30 50 H -5.037015 -4.626141 -1.194067 0
M  V30 51 H -1.982969 -1.941411 3.042115 0
M  V30 END ATOM
M  V30 BEGIN BOND
M  V30 1 1 1 2
M  V30 2 2 2 3
M  V30 3 1 3 4
M  V30 4 1 3 5
M  V30 5 2 5 6
M  V30 6 1 6 7
M  V30 7 2 7 8
M  V30 8 1 7 9
M  V30 9 1 9 10
M  V30 10 1 10 11
M  V30 11 1 11 12
M  V30 12 1 6 13
M  V30 13 2 13 14
M  V30 14 1 14 15
M  V30 15 2 15 16
M  V30 16 1 16 17
M  V30 17 2 17 18
M  V30 18 1 18 19
M  V30 19 2 19 20
M  V30 20 1 19 21
M  V30 21 1 21 22
M  V30 22 1 22 23
M  V30 23 1 23 24
M  V30 24 1 23 25
M  V30 25 1 18 26
M  V30 26 2 26 27
M  V30 27 1 14 2
M  V30 28 1 27 15
M  V30 29 1 12 10
M  V30 30 1 1 28
M  V30 31 1 1 29
M  V30 32 1 1 30
M  V30 33 1 5 31
M  V30 34 1 9 32
M  V30 35 1 10 33
M  V30 36 1 11 34
M  V30 37 1 11 35
M  V30 38 1 12 36
M  V30 39 1 12 37
M  V30 40 1 13 38
M  V30 41 1 16 39
M  V30 42 1 17 40
M  V30 43 1 21 41
M  V30 44 1 22 42
M  V30 45 1 22 43
M  V30 46 1 23 44
M  V30 47 1 24 45
M  V30 48 1 24 46
M  V30 49 1 24 47
M  V30 50 1 25 48
M  V30 51 1 25 49
M  V30 52 1 25 50
M  V30 53 1 26 51
M  V30 END BOND
M  V30 END CTAB
M  END
>  <Dataset>  (116) 
ChEMBL_Kinases

>  <Ligand_Instance>  (116) 
nan

>  <PDB_ID>  (116) 
nan

>  <Standardized_SMILES>  (116) 
Cc1c(F)cc(C(=O)NC2CC2)cc1-c1ccc(C(=O)NCC(C)C)cn1

>  <Name>  (116) 
nan

>  <Pocket>  (116) 
nan

>  <ATP_Site>  (116) 
nan

>  <Peripheral>  (116) 
nan

>  <Num_H_Atoms_ProtBoundConf>  (116) 
nan

>  <Num_Resolved_Atoms>  (116) 
nan

>  <Num_Not_Resolved_Atoms>  (116) 
nan

$$$$
CHEMBL1784174
     RDKit          3D

  0  0  0  0  0  0  0  0  0  0999 V3000
M  V30 BEGIN CTAB
M  V30 COUNTS 54 56 0 0 0
M  V30 BEGIN ATOM
M  V30 1 C 3.639560 -2.644659 -0.042391 0
M  V30 2 C 3.453441 -1.366879 0.724828 0
M  V30 3 C 4.549640 -0.810095 1.383024 0
M  V30 4 F 5.763085 -1.442310 1.312512 0
M  V30 5 C 4.508686 0.355638 2.117644 0
M  V30 6 C 3.305660 1.009805 2.205072 0
M  V30 7 C 3.150330 2.249073 2.956350 0
M  V30 8 O 2.022507 2.821054 3.008874 0
M  V30 9 N 4.207980 2.865103 3.645980 0
M  V30 10 C 4.051662 4.095386 4.391516 0
M  V30 11 C 5.089316 5.160512 4.303924 0
M  V30 12 C 4.778860 4.419815 5.613031 0
M  V30 13 C 2.218765 0.459113 1.553470 0
M  V30 14 C 2.246814 -0.698970 0.820095 0
M  V30 15 C 1.087269 -1.264625 0.138986 0
M  V30 16 C -0.154331 -0.664720 0.176737 0
M  V30 17 C -1.257143 -1.190734 -0.463114 0
M  V30 18 C -1.167959 -2.362339 -1.183401 0
M  V30 19 C -2.238138 -3.039287 -1.909363 0
M  V30 20 O -2.134251 -4.107314 -2.545869 0
M  V30 21 N -3.531041 -2.449746 -1.908561 0
M  V30 22 C -4.746367 -2.896871 -2.530939 0 CFG=2
M  V30 23 C -5.310585 -1.943500 -3.544334 0
M  V30 24 C -5.787708 -3.324940 -1.513301 0
M  V30 25 C -5.248922 -4.465391 -0.672867 0
M  V30 26 C -6.303654 -2.195507 -0.671209 0
M  V30 27 C 0.099357 -2.951031 -1.206936 0
M  V30 28 N 1.154024 -2.407072 -0.569076 0
M  V30 29 H 4.695709 -2.940876 0.012229 0
M  V30 30 H 3.460261 -2.430236 -1.128935 0
M  V30 31 H 3.061175 -3.472974 0.362877 0
M  V30 32 H 5.398509 0.730307 2.602637 0
M  V30 33 H 5.166695 2.455211 3.650066 0
M  V30 34 H 3.002814 4.468128 4.341197 0
M  V30 35 H 6.067328 4.996183 3.817020 0
M  V30 36 H 4.770725 6.228216 4.304517 0
M  V30 37 H 5.652824 3.876368 6.002976 0
M  V30 38 H 4.267573 5.002999 6.414284 0
M  V30 39 H 1.281621 1.008637 1.647495 0
M  V30 40 H -0.333481 0.245449 0.706066 0
M  V30 41 H -2.235047 -0.730475 -0.441356 0
M  V30 42 H -3.801206 -1.561445 -1.432438 0
M  V30 43 H -4.495557 -3.848593 -3.084413 0
M  V30 44 H -6.246208 -2.378832 -3.926385 0
M  V30 45 H -4.611375 -1.856186 -4.398274 0
M  V30 46 H -5.450379 -0.919555 -3.137878 0
M  V30 47 H -6.660684 -3.745610 -2.054336 0
M  V30 48 H -6.096760 -5.035643 -0.256499 0
M  V30 49 H -4.653681 -4.113072 0.189183 0
M  V30 50 H -4.642690 -5.105156 -1.345155 0
M  V30 51 H -5.665166 -1.298335 -0.651167 0
M  V30 52 H -6.499729 -2.595845 0.359517 0
M  V30 53 H -7.319999 -1.828900 -0.999918 0
M  V30 54 H 0.330825 -3.882724 -1.735295 0
M  V30 END ATOM
M  V30 BEGIN BOND
M  V30 1 1 1 2
M  V30 2 2 2 3
M  V30 3 1 3 4
M  V30 4 1 3 5
M  V30 5 2 5 6
M  V30 6 1 6 7
M  V30 7 2 7 8
M  V30 8 1 7 9
M  V30 9 1 9 10
M  V30 10 1 10 11
M  V30 11 1 11 12
M  V30 12 1 6 13
M  V30 13 2 13 14
M  V30 14 1 14 15
M  V30 15 2 15 16
M  V30 16 1 16 17
M  V30 17 2 17 18
M  V30 18 1 18 19
M  V30 19 2 19 20
M  V30 20 1 19 21
M  V30 21 1 21 22
M  V30 22 1 22 23
M  V30 23 1 22 24
M  V30 24 1 24 25
M  V30 25 1 24 26
M  V30 26 1 18 27
M  V30 27 2 27 28
M  V30 28 1 14 2
M  V30 29 1 28 15
M  V30 30 1 12 10
M  V30 31 1 1 29
M  V30 32 1 1 30
M  V30 33 1 1 31
M  V30 34 1 5 32
M  V30 35 1 9 33
M  V30 36 1 10 34
M  V30 37 1 11 35
M  V30 38 1 11 36
M  V30 39 1 12 37
M  V30 40 1 12 38
M  V30 41 1 13 39
M  V30 42 1 16 40
M  V30 43 1 17 41
M  V30 44 1 21 42
M  V30 45 1 22 43 CFG=3
M  V30 46 1 23 44
M  V30 47 1 23 45
M  V30 48 1 23 46
M  V30 49 1 24 47
M  V30 50 1 25 48
M  V30 51 1 25 49
M  V30 52 1 25 50
M  V30 53 1 26 51
M  V30 54 1 26 52
M  V30 55 1 26 53
M  V30 56 1 27 54
M  V30 END BOND
M  V30 END CTAB
M  END
>  <Dataset>  (117) 
ChEMBL_Kinases

>  <Ligand_Instance>  (117) 
nan

>  <PDB_ID>  (117) 
nan

>  <Standardized_SMILES>  (117) 
Cc1c(F)cc(C(=O)NC2CC2)cc1-c1ccc(C(=O)N[C@H](C)C(C)C)cn1

>  <Name>  (117) 
nan

>  <Pocket>  (117) 
nan

>  <ATP_Site>  (117) 
nan

>  <Peripheral>  (117) 
nan

>  <Num_H_Atoms_ProtBoundConf>  (117) 
nan

>  <Num_Resolved_Atoms>  (117) 
nan

>  <Num_Not_Resolved_Atoms>  (117) 
nan

$$$$
CHEMBL1784175
     RDKit          3D

  0  0  0  0  0  0  0  0  0  0999 V3000
M  V30 BEGIN CTAB
M  V30 COUNTS 54 56 0 0 0
M  V30 BEGIN ATOM
M  V30 1 C 4.199029 -2.252632 1.978400 0
M  V30 2 C 3.483498 -1.232824 2.790949 0
M  V30 3 C 4.119689 -0.764501 3.950563 0
M  V30 4 F 5.338797 -1.253955 4.280843 0
M  V30 5 C 3.550124 0.179490 4.774665 0
M  V30 6 C 2.308985 0.665774 4.423173 0
M  V30 7 C 1.740475 1.659565 5.324752 0
M  V30 8 O 2.307516 1.960318 6.398778 0
M  V30 9 N 0.531270 2.380308 5.111930 0
M  V30 10 C -0.037822 3.362128 5.999844 0
M  V30 11 C -1.558928 3.390763 6.007526 0
M  V30 12 C -0.774817 4.532487 5.440508 0
M  V30 13 C 1.646794 0.233168 3.290490 0
M  V30 14 C 2.245529 -0.726766 2.469927 0
M  V30 15 C 1.567590 -1.220063 1.275636 0
M  V30 16 C 0.289853 -0.819144 0.911939 0
M  V30 17 C -0.307650 -1.332374 -0.218218 0
M  V30 18 C 0.299454 -2.250838 -1.043482 0
M  V30 19 C -0.233442 -2.877124 -2.250020 0
M  V30 20 O 0.443103 -3.682007 -2.940238 0
M  V30 21 N -1.562325 -2.582239 -2.679172 0
M  V30 22 C -2.286534 -3.071255 -3.807820 0 CFG=1
M  V30 23 C -3.539141 -3.821741 -3.504579 0
M  V30 24 C -2.430705 -2.018851 -4.878529 0
M  V30 25 C -3.144550 -0.780762 -4.463612 0
M  V30 26 C -3.080689 -2.603838 -6.132557 0
M  V30 27 C 1.592985 -2.635528 -0.648649 0
M  V30 28 N 2.132983 -2.111363 0.456288 0
M  V30 29 H 5.167661 -2.516125 2.483909 0
M  V30 30 H 4.436745 -1.867426 0.963410 0
M  V30 31 H 3.590666 -3.177525 1.978152 0
M  V30 32 H 4.071689 0.527965 5.678037 0
M  V30 33 H -0.002394 2.181751 4.216212 0
M  V30 34 H 0.496304 3.461854 6.968382 0
M  V30 35 H -2.132191 2.785747 5.298446 0
M  V30 36 H -2.061263 3.520829 6.988672 0
M  V30 37 H -0.677673 4.635728 4.336729 0
M  V30 38 H -0.698318 5.478625 6.019722 0
M  V30 39 H 0.685120 0.657558 3.081016 0
M  V30 40 H -0.261322 -0.107471 1.490749 0
M  V30 41 H -1.306284 -1.050417 -0.544228 0
M  V30 42 H -2.202820 -1.914361 -2.161180 0
M  V30 43 H -1.609004 -3.844429 -4.292770 0
M  V30 44 H -4.372458 -3.256205 -3.102103 0
M  V30 45 H -3.247704 -4.731703 -2.937676 0
M  V30 46 H -3.895733 -4.224336 -4.493967 0
M  V30 47 H -1.404341 -1.727524 -5.192845 0
M  V30 48 H -2.968694 -0.040751 -5.301759 0
M  V30 49 H -2.671913 -0.325534 -3.590395 0
M  V30 50 H -4.245982 -0.853517 -4.408077 0
M  V30 51 H -4.168489 -2.749117 -5.870486 0
M  V30 52 H -2.633471 -3.556660 -6.440634 0
M  V30 53 H -3.069605 -1.815689 -6.913695 0
M  V30 54 H 2.231361 -3.340918 -1.164256 0
M  V30 END ATOM
M  V30 BEGIN BOND
M  V30 1 1 1 2
M  V30 2 2 2 3
M  V30 3 1 3 4
M  V30 4 1 3 5
M  V30 5 2 5 6
M  V30 6 1 6 7
M  V30 7 2 7 8
M  V30 8 1 7 9
M  V30 9 1 9 10
M  V30 10 1 10 11
M  V30 11 1 11 12
M  V30 12 1 6 13
M  V30 13 2 13 14
M  V30 14 1 14 15
M  V30 15 2 15 16
M  V30 16 1 16 17
M  V30 17 2 17 18
M  V30 18 1 18 19
M  V30 19 2 19 20
M  V30 20 1 19 21
M  V30 21 1 21 22
M  V30 22 1 22 23
M  V30 23 1 22 24
M  V30 24 1 24 25
M  V30 25 1 24 26
M  V30 26 1 18 27
M  V30 27 2 27 28
M  V30 28 1 14 2
M  V30 29 1 28 15
M  V30 30 1 12 10
M  V30 31 1 1 29
M  V30 32 1 1 30
M  V30 33 1 1 31
M  V30 34 1 5 32
M  V30 35 1 9 33
M  V30 36 1 10 34
M  V30 37 1 11 35
M  V30 38 1 11 36
M  V30 39 1 12 37
M  V30 40 1 12 38
M  V30 41 1 13 39
M  V30 42 1 16 40
M  V30 43 1 17 41
M  V30 44 1 21 42
M  V30 45 1 22 43 CFG=3
M  V30 46 1 23 44
M  V30 47 1 23 45
M  V30 48 1 23 46
M  V30 49 1 24 47
M  V30 50 1 25 48
M  V30 51 1 25 49
M  V30 52 1 25 50
M  V30 53 1 26 51
M  V30 54 1 26 52
M  V30 55 1 26 53
M  V30 56 1 27 54
M  V30 END BOND
M  V30 END CTAB
M  END
>  <Dataset>  (118) 
ChEMBL_Kinases

>  <Ligand_Instance>  (118) 
nan

>  <PDB_ID>  (118) 
nan

>  <Standardized_SMILES>  (118) 
Cc1c(F)cc(C(=O)NC2CC2)cc1-c1ccc(C(=O)N[C@@H](C)C(C)C)cn1

>  <Name>  (118) 
nan

>  <Pocket>  (118) 
nan

>  <ATP_Site>  (118) 
nan

>  <Peripheral>  (118) 
nan

>  <Num_H_Atoms_ProtBoundConf>  (118) 
nan

>  <Num_Resolved_Atoms>  (118) 
nan

>  <Num_Not_Resolved_Atoms>  (118) 
nan

$$$$
CHEMBL1784176
     RDKit          3D

  0  0  0  0  0  0  0  0  0  0999 V3000
M  V30 BEGIN CTAB
M  V30 COUNTS 57 59 0 0 0
M  V30 BEGIN ATOM
M  V30 1 C 0.096216 1.653248 4.700476 0
M  V30 2 C 1.213964 1.499683 3.769080 0
M  V30 3 C 2.433976 2.047353 4.103982 0
M  V30 4 F 2.538552 2.749595 5.279497 0
M  V30 5 C 3.537072 1.921697 3.318139 0
M  V30 6 C 3.405829 1.217743 2.151425 0
M  V30 7 C 4.543409 1.059114 1.288490 0
M  V30 8 O 4.463968 0.403845 0.194565 0
M  V30 9 N 5.813728 1.584570 1.541779 0
M  V30 10 C 6.920068 1.384892 0.624500 0
M  V30 11 C 8.308598 1.382993 1.164245 0
M  V30 12 C 7.864701 2.593027 0.448580 0
M  V30 13 C 2.192519 0.685368 1.838542 0
M  V30 14 C 1.031290 0.789513 2.614094 0
M  V30 15 C -0.138059 0.133238 2.095462 0
M  V30 16 C -1.453949 0.290543 2.425244 0
M  V30 17 C -2.531778 -0.347809 1.864926 0
M  V30 18 C -2.298037 -1.253278 0.854706 0
M  V30 19 C -3.403679 -1.959780 0.224024 0
M  V30 20 O -4.561728 -1.691373 0.667486 0
M  V30 21 N -3.199416 -2.895316 -0.826671 0
M  V30 22 C -4.284454 -3.592103 -1.449296 0 CFG=2
M  V30 23 C -4.227442 -5.085562 -1.240531 0
M  V30 24 C -4.474466 -3.226665 -2.895575 0
M  V30 25 C -5.635226 -4.000271 -3.483747 0
M  V30 26 C -3.254442 -3.520797 -3.733550 0
M  V30 27 C -4.765906 -1.748396 -3.014691 0
M  V30 28 C -0.977173 -1.420657 0.511667 0
M  V30 29 N 0.023834 -0.760571 1.105596 0
M  V30 30 H -0.594484 2.472959 4.511082 0
M  V30 31 H 0.548312 1.939807 5.716583 0
M  V30 32 H -0.389581 0.670532 4.976707 0
M  V30 33 H 4.447441 2.382314 3.658843 0
M  V30 34 H 6.008376 2.136752 2.397164 0
M  V30 35 H 6.728387 0.789661 -0.302684 0
M  V30 36 H 8.384332 1.456618 2.281145 0
M  V30 37 H 9.012830 0.671636 0.725229 0
M  V30 38 H 7.615601 3.518008 0.990059 0
M  V30 39 H 8.214342 2.801416 -0.598554 0
M  V30 40 H 2.184562 0.139571 0.883401 0
M  V30 41 H -1.707526 0.995795 3.180538 0
M  V30 42 H -3.539305 -0.165646 2.185369 0
M  V30 43 H -2.242993 -3.110883 -1.186167 0
M  V30 44 H -5.222308 -3.245737 -0.942564 0
M  V30 45 H -3.300700 -5.538722 -1.616217 0
M  V30 46 H -5.084853 -5.560562 -1.728259 0
M  V30 47 H -4.297868 -5.317799 -0.158318 0
M  V30 48 H -6.051704 -3.471860 -4.387899 0
M  V30 49 H -5.244164 -4.967861 -3.887280 0
M  V30 50 H -6.466446 -4.150050 -2.777413 0
M  V30 51 H -2.455789 -2.767596 -3.477991 0
M  V30 52 H -3.501811 -3.310290 -4.794500 0
M  V30 53 H -2.890529 -4.546005 -3.682616 0
M  V30 54 H -5.539906 -1.473426 -2.261242 0
M  V30 55 H -5.153138 -1.509103 -4.023744 0
M  V30 56 H -3.864177 -1.130284 -2.857036 0
M  V30 57 H -0.716860 -2.116841 -0.274991 0
M  V30 END ATOM
M  V30 BEGIN BOND
M  V30 1 1 1 2
M  V30 2 2 2 3
M  V30 3 1 3 4
M  V30 4 1 3 5
M  V30 5 2 5 6
M  V30 6 1 6 7
M  V30 7 2 7 8
M  V30 8 1 7 9
M  V30 9 1 9 10
M  V30 10 1 10 11
M  V30 11 1 11 12
M  V30 12 1 6 13
M  V30 13 2 13 14
M  V30 14 1 14 15
M  V30 15 2 15 16
M  V30 16 1 16 17
M  V30 17 2 17 18
M  V30 18 1 18 19
M  V30 19 2 19 20
M  V30 20 1 19 21
M  V30 21 1 21 22
M  V30 22 1 22 23
M  V30 23 1 22 24
M  V30 24 1 24 25
M  V30 25 1 24 26
M  V30 26 1 24 27
M  V30 27 1 18 28
M  V30 28 2 28 29
M  V30 29 1 14 2
M  V30 30 1 29 15
M  V30 31 1 12 10
M  V30 32 1 1 30
M  V30 33 1 1 31
M  V30 34 1 1 32
M  V30 35 1 5 33
M  V30 36 1 9 34
M  V30 37 1 10 35
M  V30 38 1 11 36
M  V30 39 1 11 37
M  V30 40 1 12 38
M  V30 41 1 12 39
M  V30 42 1 13 40
M  V30 43 1 16 41
M  V30 44 1 17 42
M  V30 45 1 21 43
M  V30 46 1 22 44 CFG=1
M  V30 47 1 23 45
M  V30 48 1 23 46
M  V30 49 1 23 47
M  V30 50 1 25 48
M  V30 51 1 25 49
M  V30 52 1 25 50
M  V30 53 1 26 51
M  V30 54 1 26 52
M  V30 55 1 26 53
M  V30 56 1 27 54
M  V30 57 1 27 55
M  V30 58 1 27 56
M  V30 59 1 28 57
M  V30 END BOND
M  V30 END CTAB
M  END
>  <Dataset>  (119) 
ChEMBL_Kinases

>  <Ligand_Instance>  (119) 
nan

>  <PDB_ID>  (119) 
nan

>  <Standardized_SMILES>  (119) 
Cc1c(F)cc(C(=O)NC2CC2)cc1-c1ccc(C(=O)N[C@H](C)C(C)(C)C)cn1

>  <Name>  (119) 
nan

>  <Pocket>  (119) 
nan

>  <ATP_Site>  (119) 
nan

>  <Peripheral>  (119) 
nan

>  <Num_H_Atoms_ProtBoundConf>  (119) 
nan

>  <Num_Resolved_Atoms>  (119) 
nan

>  <Num_Not_Resolved_Atoms>  (119) 
nan

$$$$
CHEMBL1784177
     RDKit          3D

  0  0  0  0  0  0  0  0  0  0999 V3000
M  V30 BEGIN CTAB
M  V30 COUNTS 57 59 0 0 0
M  V30 BEGIN ATOM
M  V30 1 C 1.730784 -4.977237 2.190377 0
M  V30 2 C 2.711955 -3.890079 2.062834 0
M  V30 3 C 4.050399 -4.116092 2.397641 0
M  V30 4 F 4.387674 -5.354131 2.833948 0
M  V30 5 C 5.039352 -3.154791 2.308836 0
M  V30 6 C 4.682153 -1.899221 1.863376 0
M  V30 7 C 5.716332 -0.893946 1.770771 0
M  V30 8 O 6.887829 -1.210599 2.097884 0
M  V30 9 N 5.528292 0.437146 1.338174 0
M  V30 10 C 6.600520 1.398709 1.266154 0
M  V30 11 C 6.314519 2.814179 1.606696 0
M  V30 12 C 6.594719 2.393670 0.168090 0
M  V30 13 C 3.362083 -1.679569 1.534136 0
M  V30 14 C 2.372163 -2.630806 1.619724 0
M  V30 15 C 0.992048 -2.361207 1.263815 0
M  V30 16 C 0.536362 -1.142373 0.807938 0
M  V30 17 C -0.768783 -0.856350 0.462599 0
M  V30 18 C -1.712850 -1.855935 0.574369 0
M  V30 19 C -3.127328 -1.728996 0.255905 0
M  V30 20 O -4.005739 -2.616435 0.350887 0
M  V30 21 N -3.653676 -0.512527 -0.216794 0
M  V30 22 C -4.988906 -0.233129 -0.565030 0 CFG=1
M  V30 23 C -5.499686 0.756705 0.463727 0
M  V30 24 C -5.353328 0.234033 -1.912171 0
M  V30 25 C -6.865163 0.424207 -1.899371 0
M  V30 26 C -5.067253 -0.753755 -3.013197 0
M  V30 27 C -4.766578 1.606112 -2.224858 0
M  V30 28 C -1.265564 -3.078985 1.029756 0
M  V30 29 N 0.024922 -3.291017 1.349964 0
M  V30 30 H 2.256125 -5.903096 2.559580 0
M  V30 31 H 1.343919 -5.258189 1.189421 0
M  V30 32 H 0.945892 -4.787565 2.946524 0
M  V30 33 H 6.053199 -3.438350 2.595912 0
M  V30 34 H 4.593401 0.746851 1.060373 0
M  V30 35 H 7.589385 1.002830 1.581458 0
M  V30 36 H 5.256925 3.058893 1.879068 0
M  V30 37 H 7.048678 3.470071 2.081799 0
M  V30 38 H 5.771243 2.433314 -0.562975 0
M  V30 39 H 7.560370 2.746652 -0.255323 0
M  V30 40 H 3.148796 -0.676173 1.192498 0
M  V30 41 H 1.220411 -0.314823 0.695972 0
M  V30 42 H -1.101314 0.094962 0.111286 0
M  V30 43 H -3.067679 0.354571 -0.364087 0
M  V30 44 H -5.574327 -1.184105 -0.386516 0
M  V30 45 H -4.654028 1.435914 0.762327 0
M  V30 46 H -5.853914 0.206139 1.363957 0
M  V30 47 H -6.341418 1.365297 0.102746 0
M  V30 48 H -7.354123 -0.115764 -1.047717 0
M  V30 49 H -7.358498 -0.014017 -2.796763 0
M  V30 50 H -7.164383 1.494337 -1.926638 0
M  V30 51 H -4.039929 -1.199627 -2.916049 0
M  V30 52 H -5.037730 -0.284165 -4.019086 0
M  V30 53 H -5.859511 -1.538737 -3.091098 0
M  V30 54 H -5.230894 2.050667 -3.130436 0
M  V30 55 H -4.997306 2.328426 -1.416291 0
M  V30 56 H -3.681758 1.547703 -2.480259 0
M  V30 57 H -1.866770 -3.963346 1.175229 0
M  V30 END ATOM
M  V30 BEGIN BOND
M  V30 1 1 1 2
M  V30 2 2 2 3
M  V30 3 1 3 4
M  V30 4 1 3 5
M  V30 5 2 5 6
M  V30 6 1 6 7
M  V30 7 2 7 8
M  V30 8 1 7 9
M  V30 9 1 9 10
M  V30 10 1 10 11
M  V30 11 1 11 12
M  V30 12 1 6 13
M  V30 13 2 13 14
M  V30 14 1 14 15
M  V30 15 2 15 16
M  V30 16 1 16 17
M  V30 17 2 17 18
M  V30 18 1 18 19
M  V30 19 2 19 20
M  V30 20 1 19 21
M  V30 21 1 21 22
M  V30 22 1 22 23
M  V30 23 1 22 24
M  V30 24 1 24 25
M  V30 25 1 24 26
M  V30 26 1 24 27
M  V30 27 1 18 28
M  V30 28 2 28 29
M  V30 29 1 14 2
M  V30 30 1 29 15
M  V30 31 1 12 10
M  V30 32 1 1 30
M  V30 33 1 1 31
M  V30 34 1 1 32
M  V30 35 1 5 33
M  V30 36 1 9 34
M  V30 37 1 10 35
M  V30 38 1 11 36
M  V30 39 1 11 37
M  V30 40 1 12 38
M  V30 41 1 12 39
M  V30 42 1 13 40
M  V30 43 1 16 41
M  V30 44 1 17 42
M  V30 45 1 21 43
M  V30 46 1 22 44 CFG=1
M  V30 47 1 23 45
M  V30 48 1 23 46
M  V30 49 1 23 47
M  V30 50 1 25 48
M  V30 51 1 25 49
M  V30 52 1 25 50
M  V30 53 1 26 51
M  V30 54 1 26 52
M  V30 55 1 26 53
M  V30 56 1 27 54
M  V30 57 1 27 55
M  V30 58 1 27 56
M  V30 59 1 28 57
M  V30 END BOND
M  V30 END CTAB
M  END
>  <Dataset>  (120) 
ChEMBL_Kinases

>  <Ligand_Instance>  (120) 
nan

>  <PDB_ID>  (120) 
nan

>  <Standardized_SMILES>  (120) 
Cc1c(F)cc(C(=O)NC2CC2)cc1-c1ccc(C(=O)N[C@@H](C)C(C)(C)C)cn1

>  <Name>  (120) 
nan

>  <Pocket>  (120) 
nan

>  <ATP_Site>  (120) 
nan

>  <Peripheral>  (120) 
nan

>  <Num_H_Atoms_ProtBoundConf>  (120) 
nan

>  <Num_Resolved_Atoms>  (120) 
nan

>  <Num_Not_Resolved_Atoms>  (120) 
nan

$$$$
CHEMBL178972
     RDKit          3D

  0  0  0  0  0  0  0  0  0  0999 V3000
M  V30 BEGIN CTAB
M  V30 COUNTS 40 43 0 0 0
M  V30 BEGIN ATOM
M  V30 1 N 1.322112 -8.419035 -0.465388 0
M  V30 2 C 1.858051 -7.134677 -0.763067 0
M  V30 3 O 2.976616 -6.997999 -1.322521 0
M  V30 4 C 0.981532 -6.043290 -0.353806 0
M  V30 5 C -0.249492 -6.142245 0.260672 0
M  V30 6 C -0.965305 -5.009406 0.589017 0
M  V30 7 C -0.457741 -3.753175 0.306091 0
M  V30 8 N -0.945154 -2.506796 0.518116 0
M  V30 9 C -0.056356 -1.605856 0.054286 0
M  V30 10 C -0.188281 -0.149690 0.084470 0
M  V30 11 C 0.793048 0.684178 -0.423716 0
M  V30 12 C 0.660351 2.062243 -0.391237 0
M  V30 13 C -0.495712 2.597060 0.170556 0
M  V30 14 O -0.634016 3.992367 0.205403 0
M  V30 15 C -0.158108 4.711669 1.318033 0
M  V30 16 C 1.166843 5.106443 1.156283 0
M  V30 17 C 1.789001 5.822112 2.155357 0
M  V30 18 C 1.110735 6.151366 3.315321 0
M  V30 19 C -0.195901 5.747689 3.445727 0
M  V30 20 Cl -1.152724 6.106896 4.868681 0
M  V30 21 C -0.847950 5.032453 2.469233 0
M  V30 22 C -1.496071 1.787686 0.687609 0
M  V30 23 C -1.324468 0.409297 0.635794 0
M  V30 24 N 0.984974 -2.293557 -0.446740 0
M  V30 25 C 0.780111 -3.617030 -0.312688 0
M  V30 26 C 1.470986 -4.767453 -0.628206 0
M  V30 27 H 1.867790 -8.587029 0.419568 0
M  V30 28 H 0.669594 -9.182898 -0.746920 0
M  V30 29 H -0.578913 -7.156538 0.449138 0
M  V30 30 H -1.926333 -5.141276 1.070053 0
M  V30 31 H -1.858744 -2.270824 0.966618 0
M  V30 32 H 1.660619 0.191223 -0.843088 0
M  V30 33 H 1.446233 2.678935 -0.796966 0
M  V30 34 H 1.772200 4.892409 0.282834 0
M  V30 35 H 2.816838 6.162796 2.099684 0
M  V30 36 H 1.540460 6.719612 4.155250 0
M  V30 37 H -1.848238 4.667112 2.454917 0
M  V30 38 H -2.383146 2.234277 1.117808 0
M  V30 39 H -2.129307 -0.217172 1.051187 0
M  V30 40 H 2.427347 -4.610323 -1.107536 0
M  V30 END ATOM
M  V30 BEGIN BOND
M  V30 1 1 1 2
M  V30 2 2 2 3
M  V30 3 1 2 4
M  V30 4 2 4 5
M  V30 5 1 5 6
M  V30 6 2 6 7
M  V30 7 1 7 8
M  V30 8 1 8 9
M  V30 9 1 9 10
M  V30 10 2 10 11
M  V30 11 1 11 12
M  V30 12 2 12 13
M  V30 13 1 13 14
M  V30 14 1 14 15
M  V30 15 2 15 16
M  V30 16 1 16 17
M  V30 17 2 17 18
M  V30 18 1 18 19
M  V30 19 1 19 20
M  V30 20 2 19 21
M  V30 21 1 13 22
M  V30 22 2 22 23
M  V30 23 2 9 24
M  V30 24 1 24 25
M  V30 25 2 25 26
M  V30 26 1 26 4
M  V30 27 1 25 7
M  V30 28 1 23 10
M  V30 29 1 21 15
M  V30 30 1 1 27
M  V30 31 1 1 28
M  V30 32 1 5 29
M  V30 33 1 6 30
M  V30 34 1 8 31
M  V30 35 1 11 32
M  V30 36 1 12 33
M  V30 37 1 16 34
M  V30 38 1 17 35
M  V30 39 1 18 36
M  V30 40 1 21 37
M  V30 41 1 22 38
M  V30 42 1 23 39
M  V30 43 1 26 40
M  V30 END BOND
M  V30 END CTAB
M  END
>  <Dataset>  (121) 
ChEMBL_Kinases

>  <Ligand_Instance>  (121) 
nan

>  <PDB_ID>  (121) 
nan

>  <Standardized_SMILES>  (121) 
NC(=O)c1ccc2[nH]c(-c3ccc(Oc4cccc(Cl)c4)cc3)nc2c1

>  <Name>  (121) 
nan

>  <Pocket>  (121) 
nan

>  <ATP_Site>  (121) 
nan

>  <Peripheral>  (121) 
nan

>  <Num_H_Atoms_ProtBoundConf>  (121) 
nan

>  <Num_Resolved_Atoms>  (121) 
nan

>  <Num_Not_Resolved_Atoms>  (121) 
nan

$$$$
CHEMBL178468
     RDKit          3D

  0  0  0  0  0  0  0  0  0  0999 V3000
M  V30 BEGIN CTAB
M  V30 COUNTS 75 80 0 0 0
M  V30 BEGIN ATOM
M  V30 1 C 3.649921 2.651861 8.026061 0
M  V30 2 C 2.947305 2.496144 6.708369 0
M  V30 3 C 2.539280 3.823939 6.112685 0
M  V30 4 C 3.753033 1.645215 5.737295 0
M  V30 5 C 3.097848 1.468265 4.431599 0
M  V30 6 N 3.388090 2.063280 3.258912 0
M  V30 7 C 2.672397 1.771823 2.156325 0
M  V30 8 C 3.060296 2.470341 0.931933 0
M  V30 9 C 3.534296 2.008367 -0.282777 0
M  V30 10 C 3.819891 2.904375 -1.264647 0
M  V30 11 C 3.667799 4.249169 -1.129104 0
M  V30 12 C 3.192960 4.744915 0.081077 0
M  V30 13 C 2.889294 3.849405 1.112808 0
M  V30 14 C 1.619291 0.864361 2.158810 0
M  V30 15 C 0.872028 0.574397 0.940949 0
M  V30 16 C 0.107643 1.383952 0.127604 0
M  V30 17 C -0.508628 0.883836 -0.979213 0
M  V30 18 C -0.404195 -0.434819 -1.340545 0
M  V30 19 C -1.065405 -1.001130 -2.542282 0
M  V30 20 N -2.380065 -1.480072 -2.245390 0
M  V30 21 C -2.427149 -2.499216 -1.250965 0
M  V30 22 C -3.818823 -2.991149 -0.956869 0
M  V30 23 C -4.454792 -3.546889 -2.225385 0
M  V30 24 N -3.876502 -4.763873 -2.543508 0
M  V30 25 C -3.640324 -5.711938 -1.616266 0
M  V30 26 O -3.818052 -5.884066 -0.248296 0
M  V30 27 N -3.084599 -6.773940 -2.166426 0
M  V30 28 C -2.925409 -6.579837 -3.491846 0
M  V30 29 C -2.416649 -7.316431 -4.561322 0
M  V30 30 C -2.395274 -6.829257 -5.835560 0
M  V30 31 C -2.905198 -5.557600 -6.030564 0
M  V30 32 C -3.405941 -4.837235 -4.965994 0
M  V30 33 C -3.432185 -5.311686 -3.691865 0
M  V30 34 C -4.495645 -2.396949 -3.110148 0
M  V30 35 C -3.213651 -1.671838 -3.383175 0
M  V30 36 C 0.360207 -1.264260 -0.534937 0
M  V30 37 C 0.996463 -0.778015 0.595948 0
M  V30 38 N 1.327208 0.267998 3.330414 0
M  V30 39 C 2.037494 0.553759 4.436885 0
M  V30 40 O 1.599659 -0.154608 5.563259 0
M  V30 41 H 2.879056 2.681238 8.823714 0
M  V30 42 H 4.291858 3.555731 8.047380 0
M  V30 43 H 4.268611 1.729004 8.194682 0
M  V30 44 H 2.012406 1.920509 6.887667 0
M  V30 45 H 1.562623 4.102963 6.542100 0
M  V30 46 H 2.417149 3.728924 5.013841 0
M  V30 47 H 3.322075 4.588368 6.281912 0
M  V30 48 H 3.910032 0.675538 6.260259 0
M  V30 49 H 4.751302 2.125593 5.659330 0
M  V30 50 H 3.611247 0.930128 -0.266271 0
M  V30 51 H 4.186406 2.458034 -2.187442 0
M  V30 52 H 3.912448 4.924009 -1.949159 0
M  V30 53 H 3.084632 5.811023 0.154602 0
M  V30 54 H 2.531606 4.370328 1.994508 0
M  V30 55 H 0.087658 2.400097 0.494689 0
M  V30 56 H -1.091159 1.568502 -1.573153 0
M  V30 57 H -1.018866 -0.242271 -3.318760 0
M  V30 58 H -0.462627 -1.880364 -2.863419 0
M  V30 59 H -1.820093 -3.373050 -1.564715 0
M  V30 60 H -2.000151 -2.102691 -0.313580 0
M  V30 61 H -3.883762 -3.618134 -0.085015 0
M  V30 62 H -4.436008 -2.072238 -0.715200 0
M  V30 63 H -5.523322 -3.753656 -1.903714 0
M  V30 64 H -4.716895 -5.851429 0.210580 0
M  V30 65 H -2.045776 -8.300936 -4.280679 0
M  V30 66 H -1.977155 -7.483287 -6.593706 0
M  V30 67 H -2.877974 -5.187814 -7.062415 0
M  V30 68 H -3.782678 -3.874523 -5.190447 0
M  V30 69 H -5.073518 -1.629454 -2.477690 0
M  V30 70 H -5.186383 -2.419669 -3.984810 0
M  V30 71 H -2.577525 -2.118828 -4.172600 0
M  V30 72 H -3.400826 -0.630432 -3.788091 0
M  V30 73 H 0.437069 -2.305849 -0.829257 0
M  V30 74 H 1.569349 -1.539494 1.145108 0
M  V30 75 H 1.731392 -1.157581 5.596750 0
M  V30 END ATOM
M  V30 BEGIN BOND
M  V30 1 1 1 2
M  V30 2 1 2 3
M  V30 3 1 2 4
M  V30 4 1 4 5
M  V30 5 2 5 6
M  V30 6 1 6 7
M  V30 7 1 7 8
M  V30 8 2 8 9
M  V30 9 1 9 10
M  V30 10 2 10 11
M  V30 11 1 11 12
M  V30 12 2 12 13
M  V30 13 2 7 14
M  V30 14 1 14 15
M  V30 15 2 15 16
M  V30 16 1 16 17
M  V30 17 2 17 18
M  V30 18 1 18 19
M  V30 19 1 19 20
M  V30 20 1 20 21
M  V30 21 1 21 22
M  V30 22 1 22 23
M  V30 23 1 23 24
M  V30 24 1 24 25
M  V30 25 1 25 26
M  V30 26 2 25 27
M  V30 27 1 27 28
M  V30 28 2 28 29
M  V30 29 1 29 30
M  V30 30 2 30 31
M  V30 31 1 31 32
M  V30 32 2 32 33
M  V30 33 1 23 34
M  V30 34 1 34 35
M  V30 35 1 18 36
M  V30 36 2 36 37
M  V30 37 1 14 38
M  V30 38 2 38 39
M  V30 39 1 39 40
M  V30 40 1 39 5
M  V30 41 1 13 8
M  V30 42 1 37 15
M  V30 43 1 35 20
M  V30 44 1 33 24
M  V30 45 1 33 28
M  V30 46 1 1 41
M  V30 47 1 1 42
M  V30 48 1 1 43
M  V30 49 1 2 44
M  V30 50 1 3 45
M  V30 51 1 3 46
M  V30 52 1 3 47
M  V30 53 1 4 48
M  V30 54 1 4 49
M  V30 55 1 9 50
M  V30 56 1 10 51
M  V30 57 1 11 52
M  V30 58 1 12 53
M  V30 59 1 13 54
M  V30 60 1 16 55
M  V30 61 1 17 56
M  V30 62 1 19 57
M  V30 63 1 19 58
M  V30 64 1 21 59
M  V30 65 1 21 60
M  V30 66 1 22 61
M  V30 67 1 22 62
M  V30 68 1 23 63
M  V30 69 1 26 64
M  V30 70 1 29 65
M  V30 71 1 30 66
M  V30 72 1 31 67
M  V30 73 1 32 68
M  V30 74 1 34 69
M  V30 75 1 34 70
M  V30 76 1 35 71
M  V30 77 1 35 72
M  V30 78 1 36 73
M  V30 79 1 37 74
M  V30 80 1 40 75
M  V30 END BOND
M  V30 END CTAB
M  END
>  <Dataset>  (122) 
ChEMBL_Kinases

>  <Ligand_Instance>  (122) 
nan

>  <PDB_ID>  (122) 
nan

>  <Standardized_SMILES>  (122) 
CC(C)Cc1nc(-c2ccccc2)c(-c2ccc(CN3CCC(n4c(O)nc5ccccc54)CC3)cc2)nc1O

>  <Name>  (122) 
nan

>  <Pocket>  (122) 
nan

>  <ATP_Site>  (122) 
nan

>  <Peripheral>  (122) 
nan

>  <Num_H_Atoms_ProtBoundConf>  (122) 
nan

>  <Num_Resolved_Atoms>  (122) 
nan

>  <Num_Not_Resolved_Atoms>  (122) 
nan

$$$$
CHEMBL178484
     RDKit          3D

  0  0  0  0  0  0  0  0  0  0999 V3000
M  V30 BEGIN CTAB
M  V30 COUNTS 43 45 0 0 0
M  V30 BEGIN ATOM
M  V30 1 O -2.093008 -3.990435 -1.746530 0
M  V30 2 C -1.145313 -4.127032 -0.716668 0
M  V30 3 C -0.686447 -2.775112 -0.231097 0
M  V30 4 C -0.029952 -1.949798 -1.312450 0
M  V30 5 N 0.356229 -0.668640 -0.729534 0
M  V30 6 C 1.058267 0.281213 -1.545740 0
M  V30 7 C 1.355526 -0.098560 -2.850182 0
M  V30 8 N 2.043095 0.745251 -3.681815 0
M  V30 9 C 2.419056 1.927386 -3.218549 0
M  V30 10 C 2.143767 2.349680 -1.921125 0
M  V30 11 C 1.453028 1.514173 -1.072867 0
M  V30 12 C 1.145408 1.960744 0.271242 0
M  V30 13 C 1.584344 3.196460 0.705792 0
M  V30 14 N 1.375107 3.722991 1.930670 0
M  V30 15 C 0.671577 3.008105 2.857844 0
M  V30 16 C 0.218319 1.783174 2.474639 0
M  V30 17 N -0.529687 0.749791 3.133155 0
M  V30 18 C -0.107205 -0.463913 3.733679 0
M  V30 19 C 1.224208 -0.812130 3.767632 0
M  V30 20 C 1.509828 -2.032052 4.364147 0
M  V30 21 C 0.546527 -2.856294 4.894245 0
M  V30 22 C -0.765558 -2.447737 4.828111 0
M  V30 23 Cl -1.977662 -3.513286 5.504985 0
M  V30 24 C -1.117884 -1.245422 4.247789 0
M  V30 25 N 0.479547 1.365514 1.255088 0
M  V30 26 H -2.832877 -4.655858 -1.655559 0
M  V30 27 H -0.251722 -4.665955 -1.109028 0
M  V30 28 H -1.624625 -4.664845 0.105626 0
M  V30 29 H -1.521041 -2.205208 0.181619 0
M  V30 30 H 0.049903 -2.907729 0.615203 0
M  V30 31 H -0.833670 -1.731276 -2.056331 0
M  V30 32 H 0.843593 -2.458134 -1.779312 0
M  V30 33 H 0.076866 -0.563357 0.250344 0
M  V30 34 H 1.050415 -1.080406 -3.252820 0
M  V30 35 H 2.952875 2.520321 -3.939568 0
M  V30 36 H 2.517727 3.317823 -1.723676 0
M  V30 37 H 2.151185 3.911648 0.130602 0
M  V30 38 H 0.389307 3.228595 3.874225 0
M  V30 39 H -1.462873 1.154201 3.034440 0
M  V30 40 H 2.013046 -0.164096 3.348027 0
M  V30 41 H 2.566203 -2.301505 4.383553 0
M  V30 42 H 0.921547 -3.792603 5.332089 0
M  V30 43 H -2.162009 -0.945068 4.206893 0
M  V30 END ATOM
M  V30 BEGIN BOND
M  V30 1 1 1 2
M  V30 2 1 2 3
M  V30 3 1 3 4
M  V30 4 1 4 5
M  V30 5 1 5 6
M  V30 6 2 6 7
M  V30 7 1 7 8
M  V30 8 2 8 9
M  V30 9 1 9 10
M  V30 10 2 10 11
M  V30 11 1 11 12
M  V30 12 2 12 13
M  V30 13 1 13 14
M  V30 14 2 14 15
M  V30 15 1 15 16
M  V30 16 1 16 17
M  V30 17 1 17 18
M  V30 18 2 18 19
M  V30 19 1 19 20
M  V30 20 2 20 21
M  V30 21 1 21 22
M  V30 22 1 22 23
M  V30 23 2 22 24
M  V30 24 2 16 25
M  V30 25 1 11 6
M  V30 26 1 25 12
M  V30 27 1 24 18
M  V30 28 1 1 26
M  V30 29 1 2 27
M  V30 30 1 2 28
M  V30 31 1 3 29
M  V30 32 1 3 30
M  V30 33 1 4 31
M  V30 34 1 4 32
M  V30 35 1 5 33
M  V30 36 1 7 34
M  V30 37 1 9 35
M  V30 38 1 10 36
M  V30 39 1 13 37
M  V30 40 1 15 38
M  V30 41 1 17 39
M  V30 42 1 19 40
M  V30 43 1 20 41
M  V30 44 1 21 42
M  V30 45 1 24 43
M  V30 END BOND
M  V30 END CTAB
M  END
>  <Dataset>  (123) 
ChEMBL_Kinases

>  <Ligand_Instance>  (123) 
nan

>  <PDB_ID>  (123) 
nan

>  <Standardized_SMILES>  (123) 
OCCCNc1cnccc1-c1cncc(Nc2cccc(Cl)c2)n1

>  <Name>  (123) 
nan

>  <Pocket>  (123) 
nan

>  <ATP_Site>  (123) 
nan

>  <Peripheral>  (123) 
nan

>  <Num_H_Atoms_ProtBoundConf>  (123) 
nan

>  <Num_Resolved_Atoms>  (123) 
nan

>  <Num_Not_Resolved_Atoms>  (123) 
nan

$$$$
CHEMBL178758
     RDKit          3D

  0  0  0  0  0  0  0  0  0  0999 V3000
M  V30 BEGIN CTAB
M  V30 COUNTS 48 51 0 0 0
M  V30 BEGIN ATOM
M  V30 1 C -0.166051 1.085298 -1.089661 0
M  V30 2 N 0.799915 1.225460 -0.014375 0
M  V30 3 C 2.098487 1.544221 -0.165134 0
M  V30 4 O 2.379476 1.709708 -1.381383 0
M  V30 5 C 2.944338 1.653311 0.934032 0
M  V30 6 C 4.291459 2.002426 0.521620 0
M  V30 7 C 5.149767 0.937654 0.263330 0
M  V30 8 Cl 4.685173 -0.746495 0.425479 0
M  V30 9 C 6.457277 1.212883 -0.148698 0
M  V30 10 C 6.926516 2.506623 -0.308213 0
M  V30 11 C 6.027588 3.546907 -0.037732 0
M  V30 12 C 4.733560 3.319853 0.369805 0
M  V30 13 Cl 3.616193 4.617719 0.704768 0
M  V30 14 C 2.441973 1.430059 2.199387 0
M  V30 15 C 1.112427 1.103126 2.358682 0
M  V30 16 C 0.634694 0.879928 3.632169 0
M  V30 17 N -0.667580 0.554602 3.792606 0
M  V30 18 C -1.478192 0.452504 2.722363 0
M  V30 19 N -2.855771 0.122584 2.587342 0
M  V30 20 C -3.194397 -1.059990 1.869897 0
M  V30 21 C -2.200952 -1.866499 1.362386 0
M  V30 22 C -2.504756 -3.001773 0.647523 0
M  V30 23 C -3.809991 -3.418369 0.386272 0
M  V30 24 C -4.021939 -4.644917 -0.401217 0
M  V30 25 C -4.157147 -5.844237 0.427777 0
M  V30 26 N -4.345739 -6.982608 -0.356944 0
M  V30 27 O -4.118302 -5.903506 1.677614 0
M  V30 28 C -4.797270 -2.584947 0.911491 0
M  V30 29 C -4.492483 -1.443234 1.629863 0
M  V30 30 N -0.975964 0.678381 1.489124 0
M  V30 31 C 0.304416 1.005384 1.235637 0
M  V30 32 H -0.960670 0.344823 -0.810176 0
M  V30 33 H 0.397285 0.762861 -2.004318 0
M  V30 34 H -0.616032 2.071893 -1.374490 0
M  V30 35 H 7.145033 0.391460 -0.356994 0
M  V30 36 H 7.924809 2.772859 -0.624159 0
M  V30 37 H 6.401277 4.577032 -0.168020 0
M  V30 38 H 3.156132 1.533734 2.979215 0
M  V30 39 H 1.267125 0.960235 4.489576 0
M  V30 40 H -3.615085 0.718553 2.998069 0
M  V30 41 H -1.144936 -1.679871 1.483143 0
M  V30 42 H -1.700565 -3.641788 0.245823 0
M  V30 43 H -3.137113 -4.795298 -1.063992 0
M  V30 44 H -4.891049 -4.543099 -1.117481 0
M  V30 45 H -4.437505 -7.886260 -0.849876 0
M  V30 46 H -4.745663 -7.111443 -1.306562 0
M  V30 47 H -5.823413 -2.900980 0.713368 0
M  V30 48 H -5.292327 -0.833980 2.015791 0
M  V30 END ATOM
M  V30 BEGIN BOND
M  V30 1 1 1 2
M  V30 2 1 2 3
M  V30 3 2 3 4
M  V30 4 1 3 5
M  V30 5 1 5 6
M  V30 6 2 6 7
M  V30 7 1 7 8
M  V30 8 1 7 9
M  V30 9 2 9 10
M  V30 10 1 10 11
M  V30 11 2 11 12
M  V30 12 1 12 13
M  V30 13 2 5 14
M  V30 14 1 14 15
M  V30 15 2 15 16
M  V30 16 1 16 17
M  V30 17 2 17 18
M  V30 18 1 18 19
M  V30 19 1 19 20
M  V30 20 2 20 21
M  V30 21 1 21 22
M  V30 22 2 22 23
M  V30 23 1 23 24
M  V30 24 1 24 25
M  V30 25 1 25 26
M  V30 26 2 25 27
M  V30 27 1 23 28
M  V30 28 2 28 29
M  V30 29 1 18 30
M  V30 30 2 30 31
M  V30 31 1 31 2
M  V30 32 1 12 6
M  V30 33 1 31 15
M  V30 34 1 29 20
M  V30 35 1 1 32
M  V30 36 1 1 33
M  V30 37 1 1 34
M  V30 38 1 9 35
M  V30 39 1 10 36
M  V30 40 1 11 37
M  V30 41 1 14 38
M  V30 42 1 16 39
M  V30 43 1 19 40
M  V30 44 1 21 41
M  V30 45 1 22 42
M  V30 46 1 24 43
M  V30 47 1 24 44
M  V30 48 1 26 45
M  V30 49 1 26 46
M  V30 50 1 28 47
M  V30 51 1 29 48
M  V30 END BOND
M  V30 END CTAB
M  END
>  <Dataset>  (124) 
ChEMBL_Kinases

>  <Ligand_Instance>  (124) 
nan

>  <PDB_ID>  (124) 
nan

>  <Standardized_SMILES>  (124) 
Cn1c(=O)c(-c2c(Cl)cccc2Cl)cc2cnc(Nc3ccc(CC(N)=O)cc3)nc21

>  <Name>  (124) 
nan

>  <Pocket>  (124) 
nan

>  <ATP_Site>  (124) 
nan

>  <Peripheral>  (124) 
nan

>  <Num_H_Atoms_ProtBoundConf>  (124) 
nan

>  <Num_Resolved_Atoms>  (124) 
nan

>  <Num_Not_Resolved_Atoms>  (124) 
nan

$$$$
CHEMBL178766
     RDKit          3D

  0  0  0  0  0  0  0  0  0  0999 V3000
M  V30 BEGIN CTAB
M  V30 COUNTS 60 66 0 0 0
M  V30 BEGIN ATOM
M  V30 1 O -0.505192 -0.020152 5.837123 0
M  V30 2 C 0.450521 0.415867 5.149960 0
M  V30 3 N 1.325992 1.370682 5.784263 0
M  V30 4 C 2.308350 1.691169 4.795907 0
M  V30 5 O 3.256341 2.487828 4.946772 0
M  V30 6 C 1.981980 0.906110 3.586775 0
M  V30 7 C 2.769641 0.998176 2.388054 0
M  V30 8 C 2.095968 1.008758 1.185063 0
M  V30 9 N 2.728439 1.084803 0.004817 0
M  V30 10 C 4.075330 1.157151 -0.103630 0
M  V30 11 C 4.813527 1.150790 1.085415 0
M  V30 12 C 6.159490 1.206608 1.419367 0
M  V30 13 C 6.244695 1.159186 2.812813 0
M  V30 14 O 5.008520 1.078433 3.300632 0
M  V30 15 C 4.144025 1.072106 2.289603 0
M  V30 16 C 0.886675 0.152933 3.791612 0
M  V30 17 C 0.256861 -0.773519 2.858833 0
M  V30 18 C 0.865313 -1.729402 2.039827 0
M  V30 19 N -0.078051 -2.362137 1.315114 0
M  V30 20 C -1.274588 -1.814115 1.668883 0
M  V30 21 C -2.575939 -2.089374 1.225919 0
M  V30 22 C -3.684907 -1.443515 1.678687 0
M  V30 23 C -3.516582 -0.443931 2.644015 0
M  V30 24 C -2.227835 -0.193259 3.061277 0
M  V30 25 C -1.097282 -0.837971 2.614044 0
M  V30 26 C -2.865773 -3.136291 0.176317 0
M  V30 27 N -1.746757 -3.125626 -0.783283 0
M  V30 28 C -1.929419 -2.293563 -1.899698 0
M  V30 29 O -0.924832 -2.357857 -2.644084 0
M  V30 30 N -2.140068 -1.450012 -3.010234 0
M  V30 31 C -1.324407 -1.138789 -4.151375 0
M  V30 32 C -2.094742 -1.574096 -5.400221 0
M  V30 33 O -3.441267 -1.286510 -5.262232 0
M  V30 34 C -3.710857 -0.265238 -4.358874 0
M  V30 35 C -3.432635 -0.798064 -2.947138 0
M  V30 36 C -0.585005 -3.911001 -0.552180 0
M  V30 37 C 0.410475 -3.387082 0.421926 0
M  V30 38 H 1.321114 1.785124 6.730542 0
M  V30 39 H 1.040947 0.966254 1.035721 0
M  V30 40 H 4.614836 1.220473 -1.046711 0
M  V30 41 H 6.911633 1.273509 0.668205 0
M  V30 42 H 7.191034 1.187380 3.353482 0
M  V30 43 H 1.959743 -1.853880 2.070078 0
M  V30 44 H -4.671746 -1.696508 1.301455 0
M  V30 45 H -4.352360 0.093241 3.033115 0
M  V30 46 H -2.142067 0.588102 3.796536 0
M  V30 47 H -3.040268 -4.113563 0.617210 0
M  V30 48 H -3.793259 -2.806726 -0.324317 0
M  V30 49 H -0.308960 -1.527514 -4.151988 0
M  V30 50 H -1.288351 -0.003661 -4.197034 0
M  V30 51 H -1.963846 -2.676880 -5.479444 0
M  V30 52 H -1.662517 -1.086990 -6.307726 0
M  V30 53 H -4.815507 -0.086010 -4.440520 0
M  V30 54 H -3.171552 0.674169 -4.568910 0
M  V30 55 H -4.249501 -1.503007 -2.694764 0
M  V30 56 H -3.415352 0.051070 -2.256403 0
M  V30 57 H -0.914891 -4.956341 -0.266542 0
M  V30 58 H -0.053128 -4.072055 -1.517128 0
M  V30 59 H 1.354876 -3.042563 -0.095135 0
M  V30 60 H 0.779787 -4.267683 1.035078 0
M  V30 END ATOM
M  V30 BEGIN BOND
M  V30 1 2 1 2
M  V30 2 1 2 3
M  V30 3 1 3 4
M  V30 4 2 4 5
M  V30 5 1 4 6
M  V30 6 1 6 7
M  V30 7 2 7 8
M  V30 8 1 8 9
M  V30 9 2 9 10
M  V30 10 1 10 11
M  V30 11 1 11 12
M  V30 12 2 12 13
M  V30 13 1 13 14
M  V30 14 1 14 15
M  V30 15 2 6 16
M  V30 16 1 16 17
M  V30 17 2 17 18
M  V30 18 1 18 19
M  V30 19 1 19 20
M  V30 20 2 20 21
M  V30 21 1 21 22
M  V30 22 2 22 23
M  V30 23 1 23 24
M  V30 24 2 24 25
M  V30 25 1 21 26
M  V30 26 1 26 27
M  V30 27 1 27 28
M  V30 28 2 28 29
M  V30 29 1 28 30
M  V30 30 1 30 31
M  V30 31 1 31 32
M  V30 32 1 32 33
M  V30 33 1 33 34
M  V30 34 1 34 35
M  V30 35 1 27 36
M  V30 36 1 36 37
M  V30 37 1 16 2
M  V30 38 1 25 17
M  V30 39 1 35 30
M  V30 40 1 15 7
M  V30 41 1 37 19
M  V30 42 2 15 11
M  V30 43 1 25 20
M  V30 44 1 3 38
M  V30 45 1 8 39
M  V30 46 1 10 40
M  V30 47 1 12 41
M  V30 48 1 13 42
M  V30 49 1 18 43
M  V30 50 1 22 44
M  V30 51 1 23 45
M  V30 52 1 24 46
M  V30 53 1 26 47
M  V30 54 1 26 48
M  V30 55 1 31 49
M  V30 56 1 31 50
M  V30 57 1 32 51
M  V30 58 1 32 52
M  V30 59 1 34 53
M  V30 60 1 34 54
M  V30 61 1 35 55
M  V30 62 1 35 56
M  V30 63 1 36 57
M  V30 64 1 36 58
M  V30 65 1 37 59
M  V30 66 1 37 60
M  V30 END BOND
M  V30 END CTAB
M  END
>  <Dataset>  (125) 
ChEMBL_Kinases

>  <Ligand_Instance>  (125) 
nan

>  <PDB_ID>  (125) 
nan

>  <Standardized_SMILES>  (125) 
O=C1NC(=O)C(c2cncc3ccoc23)=C1c1cn2c3c(cccc13)CN(C(=O)N1CCOCC1)CC2

>  <Name>  (125) 
BISARYLMALEIMIDE 2

>  <Pocket>  (125) 
nan

>  <ATP_Site>  (125) 
nan

>  <Peripheral>  (125) 
nan

>  <Num_H_Atoms_ProtBoundConf>  (125) 
nan

>  <Num_Resolved_Atoms>  (125) 
nan

>  <Num_Not_Resolved_Atoms>  (125) 
nan

$$$$
CHEMBL178851
     RDKit          3D

  0  0  0  0  0  0  0  0  0  0999 V3000
M  V30 BEGIN CTAB
M  V30 COUNTS 62 68 0 0 0
M  V30 BEGIN ATOM
M  V30 1 O -1.635823 -0.878213 6.582753 0
M  V30 2 C -0.647282 -0.153005 6.307158 0
M  V30 3 N 0.076707 0.549685 7.309071 0
M  V30 4 C 1.090325 1.230234 6.582222 0
M  V30 5 O 1.938971 1.971453 7.181330 0
M  V30 6 C 0.986194 0.943331 5.130787 0
M  V30 7 C 1.954107 1.531878 4.219013 0
M  V30 8 C 2.304742 2.888659 4.266838 0
M  V30 9 N 3.220860 3.166422 3.332205 0
M  V30 10 C 3.479463 2.024222 2.672553 0
M  V30 11 C 4.342445 1.760200 1.629681 0
M  V30 12 N 4.393231 0.496872 1.173077 0
M  V30 13 C 3.639124 -0.468307 1.706141 0
M  V30 14 C 2.794191 -0.180110 2.736384 0
M  V30 15 N 2.719016 1.071923 3.214824 0
M  V30 16 C -0.061183 0.114884 4.999254 0
M  V30 17 C -0.490533 -0.366274 3.695692 0
M  V30 18 C -0.528073 0.498486 2.594413 0
M  V30 19 N -0.948173 -0.184563 1.513706 0
M  V30 20 C -1.194108 -1.465884 1.835746 0
M  V30 21 C -1.629958 -2.567753 1.125864 0
M  V30 22 C -1.770942 -3.768960 1.798646 0
M  V30 23 C -1.478766 -3.845125 3.144266 0
M  V30 24 C -1.042547 -2.762514 3.877380 0
M  V30 25 C -0.908357 -1.580895 3.198575 0
M  V30 26 C -1.985453 -2.636320 -0.326138 0
M  V30 27 N -1.180364 -1.735554 -1.089945 0
M  V30 28 C -1.358091 -2.083020 -2.452873 0
M  V30 29 O -2.173465 -3.036682 -2.446326 0
M  V30 30 N -1.033754 -1.841873 -3.808156 0
M  V30 31 C -1.703705 -2.706020 -4.757840 0
M  V30 32 C -2.578279 -1.912920 -5.708441 0
M  V30 33 C -1.831814 -0.785741 -6.359194 0
M  V30 34 C -1.082692 0.008478 -5.324605 0
M  V30 35 C -0.177942 -0.938291 -4.571751 0
M  V30 36 C -0.296592 -0.625361 -0.728757 0
M  V30 37 C -1.134984 0.304566 0.151691 0
M  V30 38 H -0.095380 0.564538 8.337756 0
M  V30 39 H 1.954488 3.685162 4.917620 0
M  V30 40 H 4.950715 2.536728 1.198408 0
M  V30 41 H 3.764781 -1.458264 1.253321 0
M  V30 42 H 2.211459 -0.985520 3.142948 0
M  V30 43 H -0.297704 1.547220 2.458690 0
M  V30 44 H -2.116323 -4.637604 1.225298 0
M  V30 45 H -1.602630 -4.815368 3.643086 0
M  V30 46 H -0.820181 -2.850084 4.909910 0
M  V30 47 H -1.784249 -3.678086 -0.694750 0
M  V30 48 H -3.035190 -2.341327 -0.404787 0
M  V30 49 H -2.351612 -3.459524 -4.299066 0
M  V30 50 H -0.939513 -3.291679 -5.347142 0
M  V30 51 H -3.463131 -1.533447 -5.163737 0
M  V30 52 H -2.936871 -2.593852 -6.490465 0
M  V30 53 H -2.583045 -0.156418 -6.892637 0
M  V30 54 H -1.100373 -1.226643 -7.068033 0
M  V30 55 H -0.520668 0.841507 -5.794814 0
M  V30 56 H -1.769365 0.448490 -4.589114 0
M  V30 57 H 0.531428 -0.371544 -3.924176 0
M  V30 58 H 0.464081 -1.535235 -5.256676 0
M  V30 59 H 0.094303 -0.110265 -1.604471 0
M  V30 60 H 0.557123 -0.988309 -0.127660 0
M  V30 61 H -2.204965 0.229619 -0.145094 0
M  V30 62 H -0.774857 1.319756 -0.005948 0
M  V30 END ATOM
M  V30 BEGIN BOND
M  V30 1 2 1 2
M  V30 2 1 2 3
M  V30 3 1 3 4
M  V30 4 2 4 5
M  V30 5 1 4 6
M  V30 6 1 6 7
M  V30 7 2 7 8
M  V30 8 1 8 9
M  V30 9 2 9 10
M  V30 10 1 10 11
M  V30 11 2 11 12
M  V30 12 1 12 13
M  V30 13 2 13 14
M  V30 14 1 14 15
M  V30 15 2 6 16
M  V30 16 1 16 17
M  V30 17 2 17 18
M  V30 18 1 18 19
M  V30 19 1 19 20
M  V30 20 2 20 21
M  V30 21 1 21 22
M  V30 22 2 22 23
M  V30 23 1 23 24
M  V30 24 2 24 25
M  V30 25 1 21 26
M  V30 26 1 26 27
M  V30 27 1 27 28
M  V30 28 2 28 29
M  V30 29 1 28 30
M  V30 30 1 30 31
M  V30 31 1 31 32
M  V30 32 1 32 33
M  V30 33 1 33 34
M  V30 34 1 34 35
M  V30 35 1 27 36
M  V30 36 1 36 37
M  V30 37 1 16 2
M  V30 38 1 25 17
M  V30 39 1 35 30
M  V30 40 1 15 7
M  V30 41 1 37 19
M  V30 42 1 15 10
M  V30 43 1 25 20
M  V30 44 1 3 38
M  V30 45 1 8 39
M  V30 46 1 11 40
M  V30 47 1 13 41
M  V30 48 1 14 42
M  V30 49 1 18 43
M  V30 50 1 22 44
M  V30 51 1 23 45
M  V30 52 1 24 46
M  V30 53 1 26 47
M  V30 54 1 26 48
M  V30 55 1 31 49
M  V30 56 1 31 50
M  V30 57 1 32 51
M  V30 58 1 32 52
M  V30 59 1 33 53
M  V30 60 1 33 54
M  V30 61 1 34 55
M  V30 62 1 34 56
M  V30 63 1 35 57
M  V30 64 1 35 58
M  V30 65 1 36 59
M  V30 66 1 36 60
M  V30 67 1 37 61
M  V30 68 1 37 62
M  V30 END BOND
M  V30 END CTAB
M  END
>  <Dataset>  (126) 
ChEMBL_Kinases

>  <Ligand_Instance>  (126) 
nan

>  <PDB_ID>  (126) 
nan

>  <Standardized_SMILES>  (126) 
O=C1NC(=O)C(c2cnc3cnccn23)=C1c1cn2c3c(cccc13)CN(C(=O)N1CCCCC1)CC2

>  <Name>  (126) 
nan

>  <Pocket>  (126) 
nan

>  <ATP_Site>  (126) 
nan

>  <Peripheral>  (126) 
nan

>  <Num_H_Atoms_ProtBoundConf>  (126) 
nan

>  <Num_Resolved_Atoms>  (126) 
nan

>  <Num_Not_Resolved_Atoms>  (126) 
nan

$$$$
CHEMBL178872
     RDKit          3D

  0  0  0  0  0  0  0  0  0  0999 V3000
M  V30 BEGIN CTAB
M  V30 COUNTS 67 73 0 0 0
M  V30 BEGIN ATOM
M  V30 1 C 2.203357 -2.363939 2.742379 0
M  V30 2 C 1.744043 -1.909280 1.528292 0
M  V30 3 C 1.716587 -0.589720 1.140711 0
M  V30 4 C 2.180031 0.363822 2.021459 0
M  V30 5 C 2.278909 1.813119 1.904444 0
M  V30 6 C 3.479655 2.500126 1.935860 0
M  V30 7 C 3.528163 3.889596 1.822622 0
M  V30 8 C 4.885881 4.434853 1.876235 0
M  V30 9 N 5.837239 4.937688 2.696311 0
M  V30 10 N 6.901103 5.247143 1.977355 0
M  V30 11 N 6.674343 4.961298 0.707703 0
M  V30 12 N 5.442427 4.465158 0.648567 0
M  V30 13 C 2.343500 4.608482 1.674380 0
M  V30 14 N 1.180792 3.920913 1.645804 0
M  V30 15 C 1.140388 2.578137 1.755527 0
M  V30 16 C -0.199749 2.002404 1.699262 0
M  V30 17 C -0.877215 1.259394 2.644497 0
M  V30 18 C -2.157641 0.814346 2.376704 0
M  V30 19 C -2.799757 1.085421 1.184174 0
M  V30 20 C -4.169566 0.610749 0.904191 0
M  V30 21 N -4.273705 -0.663525 0.290557 0
M  V30 22 C -3.730207 -1.770152 0.984807 0
M  V30 23 C -3.813826 -3.072680 0.247032 0
M  V30 24 C -3.414006 -3.013052 -1.191404 0
M  V30 25 C -2.258847 -3.887639 -1.519051 0
M  V30 26 N -2.310629 -4.951807 -2.371247 0
M  V30 27 C -1.105099 -5.518094 -2.441250 0
M  V30 28 C -0.569592 -6.611044 -3.133486 0
M  V30 29 C 0.779220 -6.929773 -2.964741 0
M  V30 30 C 1.616051 -6.190984 -2.124161 0
M  V30 31 C 1.042978 -5.124182 -1.463921 0
M  V30 32 C -0.293622 -4.767967 -1.599481 0
M  V30 33 N -1.001762 -3.767598 -1.033715 0
M  V30 34 C -3.212276 -1.605673 -1.709511 0
M  V30 35 C -4.271007 -0.699319 -1.126311 0
M  V30 36 C -2.146036 1.826465 0.220239 0
M  V30 37 C -0.866078 2.266377 0.498407 0
M  V30 38 C 2.661245 -0.038545 3.275308 0
M  V30 39 C 2.664328 -1.396771 3.613807 0
M  V30 40 H 2.186536 -3.421500 2.960034 0
M  V30 41 H 1.361403 -2.603519 0.778506 0
M  V30 42 H 1.382222 -0.157040 0.232034 0
M  V30 43 H 4.373875 1.883647 2.054112 0
M  V30 44 H 7.414280 5.143552 -0.004749 0
M  V30 45 H 2.471715 5.678947 1.594159 0
M  V30 46 H -0.304756 1.096156 3.539356 0
M  V30 47 H -2.633002 0.244893 3.142585 0
M  V30 48 H -4.808244 0.588700 1.822484 0
M  V30 49 H -4.721982 1.329801 0.229321 0
M  V30 50 H -4.337454 -1.902034 1.922831 0
M  V30 51 H -2.687102 -1.632754 1.367174 0
M  V30 52 H -4.862757 -3.468600 0.385498 0
M  V30 53 H -3.157511 -3.793888 0.798295 0
M  V30 54 H -4.280087 -3.415453 -1.789581 0
M  V30 55 H -1.200387 -7.194750 -3.787949 0
M  V30 56 H 1.151998 -7.780887 -3.517536 0
M  V30 57 H 2.661677 -6.455400 -2.006888 0
M  V30 58 H 1.696288 -4.546244 -0.806508 0
M  V30 59 H -0.692756 -3.049359 -0.373649 0
M  V30 60 H -3.339259 -1.577799 -2.815131 0
M  V30 61 H -2.202428 -1.251967 -1.497413 0
M  V30 62 H -5.256957 -0.985620 -1.570772 0
M  V30 63 H -4.080736 0.321082 -1.514902 0
M  V30 64 H -2.631522 2.047171 -0.712758 0
M  V30 65 H -0.410671 2.850354 -0.317990 0
M  V30 66 H 3.056675 0.591519 4.072194 0
M  V30 67 H 3.032085 -1.752969 4.583663 0
M  V30 END ATOM
M  V30 BEGIN BOND
M  V30 1 2 1 2
M  V30 2 1 2 3
M  V30 3 2 3 4
M  V30 4 1 4 5
M  V30 5 2 5 6
M  V30 6 1 6 7
M  V30 7 1 7 8
M  V30 8 1 8 9
M  V30 9 2 9 10
M  V30 10 1 10 11
M  V30 11 1 11 12
M  V30 12 2 7 13
M  V30 13 1 13 14
M  V30 14 2 14 15
M  V30 15 1 15 16
M  V30 16 2 16 17
M  V30 17 1 17 18
M  V30 18 2 18 19
M  V30 19 1 19 20
M  V30 20 1 20 21
M  V30 21 1 21 22
M  V30 22 1 22 23
M  V30 23 1 23 24
M  V30 24 1 24 25
M  V30 25 2 25 26
M  V30 26 1 26 27
M  V30 27 2 27 28
M  V30 28 1 28 29
M  V30 29 2 29 30
M  V30 30 1 30 31
M  V30 31 2 31 32
M  V30 32 1 32 33
M  V30 33 1 24 34
M  V30 34 1 34 35
M  V30 35 1 19 36
M  V30 36 2 36 37
M  V30 37 1 4 38
M  V30 38 2 38 39
M  V30 39 1 39 1
M  V30 40 1 15 5
M  V30 41 1 37 16
M  V30 42 2 12 8
M  V30 43 1 35 21
M  V30 44 1 33 25
M  V30 45 1 32 27
M  V30 46 1 1 40
M  V30 47 1 2 41
M  V30 48 1 3 42
M  V30 49 1 6 43
M  V30 50 1 11 44
M  V30 51 1 13 45
M  V30 52 1 17 46
M  V30 53 1 18 47
M  V30 54 1 20 48
M  V30 55 1 20 49
M  V30 56 1 22 50
M  V30 57 1 22 51
M  V30 58 1 23 52
M  V30 59 1 23 53
M  V30 60 1 24 54
M  V30 61 1 28 55
M  V30 62 1 29 56
M  V30 63 1 30 57
M  V30 64 1 31 58
M  V30 65 1 33 59
M  V30 66 1 34 60
M  V30 67 1 34 61
M  V30 68 1 35 62
M  V30 69 1 35 63
M  V30 70 1 36 64
M  V30 71 1 37 65
M  V30 72 1 38 66
M  V30 73 1 39 67
M  V30 END BOND
M  V30 END CTAB
M  END
>  <Dataset>  (127) 
ChEMBL_Kinases

>  <Ligand_Instance>  (127) 
nan

>  <PDB_ID>  (127) 
nan

>  <Standardized_SMILES>  (127) 
c1ccc(-c2cc(-c3nn[nH]n3)cnc2-c2ccc(CN3CCC(c4nc5ccccc5[nH]4)CC3)cc2)cc1

>  <Name>  (127) 
nan

>  <Pocket>  (127) 
nan

>  <ATP_Site>  (127) 
nan

>  <Peripheral>  (127) 
nan

>  <Num_H_Atoms_ProtBoundConf>  (127) 
nan

>  <Num_Resolved_Atoms>  (127) 
nan

>  <Num_Not_Resolved_Atoms>  (127) 
nan

$$$$
CHEMBL178971
     RDKit          3D

  0  0  0  0  0  0  0  0  0  0999 V3000
M  V30 BEGIN CTAB
M  V30 COUNTS 40 43 0 0 0
M  V30 BEGIN ATOM
M  V30 1 N 3.284219 -6.767909 -1.633023 0
M  V30 2 C 4.285096 -5.840728 -1.229927 0
M  V30 3 O 5.475941 -6.250031 -1.208826 0
M  V30 4 C 3.951399 -4.471699 -0.855589 0
M  V30 5 C 4.974017 -3.627743 -0.475211 0
M  V30 6 C 4.714177 -2.323206 -0.111422 0
M  V30 7 C 3.391365 -1.879936 -0.138173 0
M  V30 8 N 2.790241 -0.699588 0.146403 0
M  V30 9 C 1.463674 -0.811515 -0.049099 0
M  V30 10 C 0.397265 0.176923 0.120623 0
M  V30 11 C -0.945265 -0.118731 -0.132552 0
M  V30 12 C -1.909389 0.852911 0.044534 0
M  V30 13 C -1.553002 2.117055 0.471158 0
M  V30 14 O -2.583061 3.057604 0.630783 0
M  V30 15 C -3.184920 3.117398 1.883710 0
M  V30 16 C -2.791143 3.916148 2.942088 0
M  V30 17 C -3.489734 3.872365 4.142674 0
M  V30 18 C -4.580031 3.041385 4.306929 0
M  V30 19 C -4.958222 2.244924 3.224703 0
M  V30 20 C -4.272938 2.271776 2.010905 0
M  V30 21 C -0.230214 2.453360 0.734253 0
M  V30 22 C 0.723438 1.453581 0.547360 0
M  V30 23 N 1.221561 -2.084202 -0.464370 0
M  V30 24 C 2.396880 -2.758914 -0.525741 0
M  V30 25 C 2.632125 -4.072942 -0.895404 0
M  V30 26 H 2.551394 -7.286634 -1.075689 0
M  V30 27 H 2.935835 -7.227844 -2.503702 0
M  V30 28 H 6.000844 -3.980574 -0.457102 0
M  V30 29 H 5.462710 -1.606572 0.196974 0
M  V30 30 H 3.270810 0.170885 0.468798 0
M  V30 31 H -1.201201 -1.124584 -0.468642 0
M  V30 32 H -2.935693 0.572050 -0.165633 0
M  V30 33 H -1.937965 4.537694 2.749188 0
M  V30 34 H -3.138543 4.517810 4.936582 0
M  V30 35 H -5.129820 3.004006 5.245228 0
M  V30 36 H -5.825587 1.599684 3.390848 0
M  V30 37 H -4.660095 1.614594 1.257549 0
M  V30 38 H 0.035395 3.447583 1.067998 0
M  V30 39 H 1.753138 1.759883 0.765653 0
M  V30 40 H 1.818778 -4.714711 -1.189007 0
M  V30 END ATOM
M  V30 BEGIN BOND
M  V30 1 1 1 2
M  V30 2 2 2 3
M  V30 3 1 2 4
M  V30 4 2 4 5
M  V30 5 1 5 6
M  V30 6 2 6 7
M  V30 7 1 7 8
M  V30 8 1 8 9
M  V30 9 1 9 10
M  V30 10 2 10 11
M  V30 11 1 11 12
M  V30 12 2 12 13
M  V30 13 1 13 14
M  V30 14 1 14 15
M  V30 15 2 15 16
M  V30 16 1 16 17
M  V30 17 2 17 18
M  V30 18 1 18 19
M  V30 19 2 19 20
M  V30 20 1 13 21
M  V30 21 2 21 22
M  V30 22 2 9 23
M  V30 23 1 23 24
M  V30 24 2 24 25
M  V30 25 1 25 4
M  V30 26 1 24 7
M  V30 27 1 22 10
M  V30 28 1 20 15
M  V30 29 1 1 26
M  V30 30 1 1 27
M  V30 31 1 5 28
M  V30 32 1 6 29
M  V30 33 1 8 30
M  V30 34 1 11 31
M  V30 35 1 12 32
M  V30 36 1 16 33
M  V30 37 1 17 34
M  V30 38 1 18 35
M  V30 39 1 19 36
M  V30 40 1 20 37
M  V30 41 1 21 38
M  V30 42 1 22 39
M  V30 43 1 25 40
M  V30 END BOND
M  V30 END CTAB
M  END
>  <Dataset>  (128) 
ChEMBL_Kinases

>  <Ligand_Instance>  (128) 
nan

>  <PDB_ID>  (128) 
nan

>  <Standardized_SMILES>  (128) 
NC(=O)c1ccc2[nH]c(-c3ccc(Oc4ccccc4)cc3)nc2c1

>  <Name>  (128) 
nan

>  <Pocket>  (128) 
nan

>  <ATP_Site>  (128) 
nan

>  <Peripheral>  (128) 
nan

>  <Num_H_Atoms_ProtBoundConf>  (128) 
nan

>  <Num_Resolved_Atoms>  (128) 
nan

>  <Num_Not_Resolved_Atoms>  (128) 
nan

$$$$
CHEMBL178445
     RDKit          3D

  0  0  0  0  0  0  0  0  0  0999 V3000
M  V30 BEGIN CTAB
M  V30 COUNTS 67 73 0 0 0
M  V30 BEGIN ATOM
M  V30 1 C 1.361036 -2.739790 2.638382 0
M  V30 2 C 1.187625 -2.233859 1.384168 0
M  V30 3 C 1.481875 -0.929068 1.054075 0
M  V30 4 C 1.978983 -0.091058 2.048311 0
M  V30 5 C 2.365135 1.311693 1.965920 0
M  V30 6 C 3.604942 1.881276 2.172167 0
M  V30 7 C 3.767822 3.245456 2.047563 0
M  V30 8 C 5.109650 3.778726 2.281126 0
M  V30 9 N 5.813626 4.421805 3.222948 0
M  V30 10 N 7.042894 4.609669 2.759762 0
M  V30 11 N 7.150242 4.105674 1.546200 0
M  V30 12 N 5.963183 3.594446 1.249878 0
M  V30 13 C 2.662135 4.035661 1.710862 0
M  V30 14 N 1.460853 3.462635 1.513385 0
M  V30 15 C 1.290294 2.112348 1.634640 0
M  V30 16 C -0.096876 1.741936 1.370865 0
M  V30 17 C -0.915304 1.145216 2.307185 0
M  V30 18 C -2.227339 0.833857 1.954496 0
M  V30 19 C -2.732223 1.109494 0.683155 0
M  V30 20 C -4.149737 0.715592 0.478582 0
M  V30 21 N -4.256907 -0.607256 -0.014085 0
M  V30 22 C -3.726101 -1.657867 0.755665 0
M  V30 23 C -3.755987 -3.027033 0.127161 0
M  V30 24 C -3.158860 -2.993793 -1.279559 0
M  V30 25 N -2.124044 -3.947501 -1.378574 0
M  V30 26 C -2.480442 -5.208993 -0.994795 0
M  V30 27 N -1.423200 -6.025624 -1.132236 0
M  V30 28 C -0.362188 -5.349617 -1.598509 0
M  V30 29 C 0.956651 -5.557966 -1.948038 0
M  V30 30 C 1.764294 -4.523677 -2.417293 0
M  V30 31 C 1.236340 -3.244867 -2.539745 0
M  V30 32 C -0.069050 -3.039372 -2.193566 0
M  V30 33 C -0.855088 -4.071114 -1.731529 0
M  V30 34 C -2.840113 -1.582717 -1.663093 0
M  V30 35 C -4.155799 -0.817450 -1.402665 0
M  V30 36 C -1.880586 1.709038 -0.229823 0
M  V30 37 C -0.591516 2.022581 0.094486 0
M  V30 38 C 2.150696 -0.616214 3.317599 0
M  V30 39 C 1.857235 -1.922895 3.653270 0
M  V30 40 H 1.120861 -3.765873 2.863576 0
M  V30 41 H 0.810188 -2.807557 0.554084 0
M  V30 42 H 1.385754 -0.423469 0.103695 0
M  V30 43 H 4.369851 1.159586 2.426354 0
M  V30 44 H 8.086289 4.207884 1.101718 0
M  V30 45 H 2.827428 5.112697 1.620438 0
M  V30 46 H -0.522168 0.931933 3.293252 0
M  V30 47 H -2.795863 0.363061 2.765615 0
M  V30 48 H -4.655713 1.380826 -0.264036 0
M  V30 49 H -4.725617 0.889195 1.426042 0
M  V30 50 H -4.211371 -1.761264 1.748751 0
M  V30 51 H -2.653540 -1.432568 0.978652 0
M  V30 52 H -4.748076 -3.518110 0.150682 0
M  V30 53 H -3.102185 -3.663271 0.756406 0
M  V30 54 H -3.999082 -3.324684 -1.959345 0
M  V30 55 H -3.356948 -5.728657 -0.618031 0
M  V30 56 H 1.302173 -6.577531 -1.827489 0
M  V30 57 H 2.776422 -4.736785 -2.673700 0
M  V30 58 H 1.908244 -2.496399 -2.905704 0
M  V30 59 H -0.413616 -2.036663 -2.310173 0
M  V30 60 H -2.119983 -1.083853 -0.983237 0
M  V30 61 H -2.657785 -1.444815 -2.732788 0
M  V30 62 H -4.189081 0.098545 -2.023234 0
M  V30 63 H -4.979067 -1.460866 -1.771992 0
M  V30 64 H -2.372764 1.879258 -1.185608 0
M  V30 65 H 0.004952 2.490917 -0.686410 0
M  V30 66 H 2.532570 -0.054897 4.175949 0
M  V30 67 H 1.984742 -2.346231 4.632969 0
M  V30 END ATOM
M  V30 BEGIN BOND
M  V30 1 2 1 2
M  V30 2 1 2 3
M  V30 3 2 3 4
M  V30 4 1 4 5
M  V30 5 2 5 6
M  V30 6 1 6 7
M  V30 7 1 7 8
M  V30 8 1 8 9
M  V30 9 2 9 10
M  V30 10 1 10 11
M  V30 11 1 11 12
M  V30 12 2 7 13
M  V30 13 1 13 14
M  V30 14 2 14 15
M  V30 15 1 15 16
M  V30 16 2 16 17
M  V30 17 1 17 18
M  V30 18 2 18 19
M  V30 19 1 19 20
M  V30 20 1 20 21
M  V30 21 1 21 22
M  V30 22 1 22 23
M  V30 23 1 23 24
M  V30 24 1 24 25
M  V30 25 1 25 26
M  V30 26 2 26 27
M  V30 27 1 27 28
M  V30 28 2 28 29
M  V30 29 1 29 30
M  V30 30 2 30 31
M  V30 31 1 31 32
M  V30 32 2 32 33
M  V30 33 1 24 34
M  V30 34 1 34 35
M  V30 35 1 19 36
M  V30 36 2 36 37
M  V30 37 1 4 38
M  V30 38 2 38 39
M  V30 39 1 39 1
M  V30 40 1 15 5
M  V30 41 1 37 16
M  V30 42 2 12 8
M  V30 43 1 35 21
M  V30 44 1 33 25
M  V30 45 1 33 28
M  V30 46 1 1 40
M  V30 47 1 2 41
M  V30 48 1 3 42
M  V30 49 1 6 43
M  V30 50 1 11 44
M  V30 51 1 13 45
M  V30 52 1 17 46
M  V30 53 1 18 47
M  V30 54 1 20 48
M  V30 55 1 20 49
M  V30 56 1 22 50
M  V30 57 1 22 51
M  V30 58 1 23 52
M  V30 59 1 23 53
M  V30 60 1 24 54
M  V30 61 1 26 55
M  V30 62 1 29 56
M  V30 63 1 30 57
M  V30 64 1 31 58
M  V30 65 1 32 59
M  V30 66 1 34 60
M  V30 67 1 34 61
M  V30 68 1 35 62
M  V30 69 1 35 63
M  V30 70 1 36 64
M  V30 71 1 37 65
M  V30 72 1 38 66
M  V30 73 1 39 67
M  V30 END BOND
M  V30 END CTAB
M  END
>  <Dataset>  (129) 
ChEMBL_Kinases

>  <Ligand_Instance>  (129) 
nan

>  <PDB_ID>  (129) 
nan

>  <Standardized_SMILES>  (129) 
c1ccc(-c2cc(-c3nn[nH]n3)cnc2-c2ccc(CN3CCC(n4cnc5ccccc54)CC3)cc2)cc1

>  <Name>  (129) 
nan

>  <Pocket>  (129) 
nan

>  <ATP_Site>  (129) 
nan

>  <Peripheral>  (129) 
nan

>  <Num_H_Atoms_ProtBoundConf>  (129) 
nan

>  <Num_Resolved_Atoms>  (129) 
nan

>  <Num_Not_Resolved_Atoms>  (129) 
nan

$$$$
CHEMBL1801282
     RDKit          3D

  0  0  0  0  0  0  0  0  0  0999 V3000
M  V30 BEGIN CTAB
M  V30 COUNTS 49 54 0 0 0
M  V30 BEGIN ATOM
M  V30 1 C 5.041037 -7.253256 -0.727303 0
M  V30 2 O 3.729497 -6.752319 -0.709268 0
M  V30 3 C 3.378651 -5.449880 -0.371945 0
M  V30 4 C 4.336606 -4.522264 -0.017049 0
M  V30 5 C 3.891675 -3.234385 0.307216 0
M  V30 6 C 2.551405 -2.904804 0.273797 0
M  V30 7 C 2.197013 -1.533969 0.630333 0
M  V30 8 C 0.905362 -1.049779 0.645591 0
M  V30 9 C 0.655733 0.250344 0.992006 0
M  V30 10 C 1.639907 1.127766 1.335176 0
M  V30 11 C 2.936700 0.606802 1.309929 0
M  V30 12 N 3.190758 -0.690486 0.964744 0
M  V30 13 C 1.597200 2.542136 1.733806 0
M  V30 14 C 0.220947 3.104287 1.762986 0
M  V30 15 C -0.811468 2.103021 1.380023 0
M  V30 16 C -0.704810 0.777677 1.012937 0
M  V30 17 N -1.907717 0.275195 0.755715 0
M  V30 18 C -2.832079 1.243027 0.943413 0
M  V30 19 C -2.180617 2.394008 1.332856 0
M  V30 20 C -3.027110 3.579136 1.589961 0
M  V30 21 O -2.455297 4.646542 1.947958 0
M  V30 22 N -4.439594 3.506231 1.435324 0
M  V30 23 C -5.024629 2.182487 1.698065 0
M  V30 24 C -4.300320 1.216500 0.796025 0
M  V30 25 C -4.951574 0.832725 -0.471372 0
M  V30 26 C -4.936112 -0.164457 0.613693 0
M  V30 27 C 1.628503 -3.864019 -0.086769 0
M  V30 28 C 2.017360 -5.165317 -0.420175 0
M  V30 29 H 5.522482 -7.222439 -1.729752 0
M  V30 30 H 5.003116 -8.330471 -0.447581 0
M  V30 31 H 5.712257 -6.783816 0.033741 0
M  V30 32 H 5.380093 -4.768902 0.011786 0
M  V30 33 H 4.677795 -2.541944 0.578870 0
M  V30 34 H 0.093031 -1.698480 0.383851 0
M  V30 35 H 3.834306 1.172959 1.556268 0
M  V30 36 H 2.214895 3.174405 1.029027 0
M  V30 37 H 2.091682 2.690564 2.725303 0
M  V30 38 H 0.141670 3.977667 1.071543 0
M  V30 39 H 0.011781 3.514763 2.780304 0
M  V30 40 H -2.058089 -0.718627 0.458579 0
M  V30 41 H -4.886902 4.422032 1.149159 0
M  V30 42 H -6.064513 2.246352 1.371248 0
M  V30 43 H -4.934539 1.896191 2.754889 0
M  V30 44 H -4.376635 0.656223 -1.399690 0
M  V30 45 H -5.931908 1.310369 -0.677609 0
M  V30 46 H -5.821913 -0.351781 1.253832 0
M  V30 47 H -4.241016 -1.026364 0.501093 0
M  V30 48 H 0.579279 -3.609666 -0.113982 0
M  V30 49 H 1.299002 -5.919435 -0.702950 0
M  V30 END ATOM
M  V30 BEGIN BOND
M  V30 1 1 1 2
M  V30 2 1 2 3
M  V30 3 2 3 4
M  V30 4 1 4 5
M  V30 5 2 5 6
M  V30 6 1 6 7
M  V30 7 2 7 8
M  V30 8 1 8 9
M  V30 9 2 9 10
M  V30 10 1 10 11
M  V30 11 2 11 12
M  V30 12 1 10 13
M  V30 13 1 13 14
M  V30 14 1 14 15
M  V30 15 2 15 16
M  V30 16 1 16 17
M  V30 17 1 17 18
M  V30 18 2 18 19
M  V30 19 1 19 20
M  V30 20 2 20 21
M  V30 21 1 20 22
M  V30 22 1 22 23
M  V30 23 1 23 24
M  V30 24 1 24 25
M  V30 25 1 25 26
M  V30 26 1 6 27
M  V30 27 2 27 28
M  V30 28 1 28 3
M  V30 29 1 12 7
M  V30 30 1 19 15
M  V30 31 1 26 24
M  V30 32 1 16 9
M  V30 33 1 24 18
M  V30 34 1 1 29
M  V30 35 1 1 30
M  V30 36 1 1 31
M  V30 37 1 4 32
M  V30 38 1 5 33
M  V30 39 1 8 34
M  V30 40 1 11 35
M  V30 41 1 13 36
M  V30 42 1 13 37
M  V30 43 1 14 38
M  V30 44 1 14 39
M  V30 45 1 17 40
M  V30 46 1 22 41
M  V30 47 1 23 42
M  V30 48 1 23 43
M  V30 49 1 25 44
M  V30 50 1 25 45
M  V30 51 1 26 46
M  V30 52 1 26 47
M  V30 53 1 27 48
M  V30 54 1 28 49
M  V30 END BOND
M  V30 END CTAB
M  END
>  <Dataset>  (130) 
ChEMBL_Kinases

>  <Ligand_Instance>  (130) 
nan

>  <PDB_ID>  (130) 
nan

>  <Standardized_SMILES>  (130) 
COc1ccc(-c2cc3c(cn2)CCc2c-3[nH]c3c2C(=O)NCC32CC2)cc1

>  <Name>  (130) 
nan

>  <Pocket>  (130) 
nan

>  <ATP_Site>  (130) 
nan

>  <Peripheral>  (130) 
nan

>  <Num_H_Atoms_ProtBoundConf>  (130) 
nan

>  <Num_Resolved_Atoms>  (130) 
nan

>  <Num_Not_Resolved_Atoms>  (130) 
nan

$$$$
CHEMBL1801281
     RDKit          3D

  0  0  0  0  0  0  0  0  0  0999 V3000
M  V30 BEGIN CTAB
M  V30 COUNTS 45 50 0 0 0
M  V30 BEGIN ATOM
M  V30 1 O 5.146739 0.821125 1.879770 0
M  V30 2 C 4.694559 -0.165177 1.244333 0
M  V30 3 N 5.537922 -1.184495 0.669375 0
M  V30 4 C 4.935699 -2.520947 0.638251 0
M  V30 5 C 3.674862 -2.367562 -0.175728 0
M  V30 6 C 3.071154 -3.585000 -0.804156 0
M  V30 7 C 3.777507 -2.559716 -1.637861 0
M  V30 8 C 2.738325 -1.353835 0.390415 0
M  V30 9 N 1.389180 -1.292141 0.344379 0
M  V30 10 C 1.012512 -0.195509 0.996181 0
M  V30 11 C 2.116515 0.476425 1.478702 0
M  V30 12 C 3.231407 -0.270092 1.088459 0
M  V30 13 C 2.210617 1.738593 2.261880 0
M  V30 14 C 0.882928 2.346693 2.553282 0
M  V30 15 C -0.255055 1.587769 2.015176 0
M  V30 16 C -1.491224 2.143218 2.280172 0
M  V30 17 N -2.652996 1.565214 1.851924 0
M  V30 18 C -2.677706 0.420134 1.145347 0
M  V30 19 C -3.970257 -0.120836 0.731755 0
M  V30 20 C -5.084792 0.600074 1.106223 0
M  V30 21 C -6.368811 0.165499 0.758658 0
M  V30 22 C -6.480247 -0.995923 0.036583 0
M  V30 23 C -5.373218 -1.725346 -0.343594 0
M  V30 24 F -5.430156 -2.879057 -1.057526 0
M  V30 25 C -4.089868 -1.286909 0.006306 0
M  V30 26 C -1.454146 -0.153682 0.868260 0
M  V30 27 C -0.280922 0.414879 1.291406 0
M  V30 28 H 6.479176 -0.848005 0.343090 0
M  V30 29 H 4.730235 -2.928224 1.631375 0
M  V30 30 H 5.573023 -3.231294 0.088856 0
M  V30 31 H 1.972619 -3.575679 -0.918033 0
M  V30 32 H 3.511859 -4.590332 -0.630686 0
M  V30 33 H 3.205119 -1.914750 -2.332463 0
M  V30 34 H 4.770588 -2.871441 -2.022001 0
M  V30 35 H 0.686709 -1.930303 -0.092330 0
M  V30 36 H 2.763871 1.565797 3.219449 0
M  V30 37 H 2.838459 2.489391 1.714087 0
M  V30 38 H 0.751657 2.443342 3.653338 0
M  V30 39 H 0.822824 3.375023 2.123678 0
M  V30 40 H -1.625996 3.076674 2.846519 0
M  V30 41 H -5.071018 1.523594 1.675728 0
M  V30 42 H -7.274105 0.689704 1.025048 0
M  V30 43 H -7.461454 -1.357190 -0.246985 0
M  V30 44 H -3.219588 -1.846479 -0.284040 0
M  V30 45 H -1.435672 -1.066226 0.307544 0
M  V30 END ATOM
M  V30 BEGIN BOND
M  V30 1 2 1 2
M  V30 2 1 2 3
M  V30 3 1 3 4
M  V30 4 1 4 5
M  V30 5 1 5 6
M  V30 6 1 6 7
M  V30 7 1 5 8
M  V30 8 1 8 9
M  V30 9 1 9 10
M  V30 10 2 10 11
M  V30 11 1 11 12
M  V30 12 1 11 13
M  V30 13 1 13 14
M  V30 14 1 14 15
M  V30 15 2 15 16
M  V30 16 1 16 17
M  V30 17 2 17 18
M  V30 18 1 18 19
M  V30 19 2 19 20
M  V30 20 1 20 21
M  V30 21 2 21 22
M  V30 22 1 22 23
M  V30 23 1 23 24
M  V30 24 2 23 25
M  V30 25 1 18 26
M  V30 26 2 26 27
M  V30 27 1 12 2
M  V30 28 1 27 15
M  V30 29 1 7 5
M  V30 30 2 12 8
M  V30 31 1 25 19
M  V30 32 1 27 10
M  V30 33 1 3 28
M  V30 34 1 4 29
M  V30 35 1 4 30
M  V30 36 1 6 31
M  V30 37 1 6 32
M  V30 38 1 7 33
M  V30 39 1 7 34
M  V30 40 1 9 35
M  V30 41 1 13 36
M  V30 42 1 13 37
M  V30 43 1 14 38
M  V30 44 1 14 39
M  V30 45 1 16 40
M  V30 46 1 20 41
M  V30 47 1 21 42
M  V30 48 1 22 43
M  V30 49 1 25 44
M  V30 50 1 26 45
M  V30 END BOND
M  V30 END CTAB
M  END
>  <Dataset>  (131) 
ChEMBL_Kinases

>  <Ligand_Instance>  (131) 
nan

>  <PDB_ID>  (131) 
nan

>  <Standardized_SMILES>  (131) 
O=C1NCC2(CC2)c2[nH]c3c(c21)CCc1cnc(-c2cccc(F)c2)cc1-3

>  <Name>  (131) 
nan

>  <Pocket>  (131) 
nan

>  <ATP_Site>  (131) 
nan

>  <Peripheral>  (131) 
nan

>  <Num_H_Atoms_ProtBoundConf>  (131) 
nan

>  <Num_Resolved_Atoms>  (131) 
nan

>  <Num_Not_Resolved_Atoms>  (131) 
nan

$$$$
CHEMBL1801280
     RDKit          3D

  0  0  0  0  0  0  0  0  0  0999 V3000
M  V30 BEGIN CTAB
M  V30 COUNTS 65 71 0 0 0
M  V30 BEGIN ATOM
M  V30 1 O 2.248312 6.197787 4.041336 0
M  V30 2 C 2.273969 4.968687 4.289321 0
M  V30 3 N 2.901298 4.481195 5.467562 0
M  V30 4 C 2.799565 3.129049 5.899310 0
M  V30 5 C 4.008157 2.655092 6.730625 0
M  V30 6 C 2.629398 2.805926 7.336607 0
M  V30 7 C 2.347719 2.151211 4.883037 0
M  V30 8 C 1.723228 2.728123 3.695884 0
M  V30 9 N 1.103742 1.995038 2.732262 0
M  V30 10 C 0.656949 2.854902 1.807909 0
M  V30 11 C 0.948787 4.166467 2.102167 0
M  V30 12 C 1.632783 4.072801 3.315422 0
M  V30 13 C 0.709232 5.468497 1.464697 0
M  V30 14 C -0.044609 5.293028 0.184890 0
M  V30 15 C -0.335959 3.874398 -0.094436 0
M  V30 16 C -1.037243 3.744745 -1.300033 0
M  V30 17 N -1.418255 2.522298 -1.766427 0
M  V30 18 C -1.154254 1.374772 -1.116731 0
M  V30 19 C -1.595915 0.106694 -1.681360 0
M  V30 20 C -1.344766 -1.088346 -1.045811 0
M  V30 21 C -1.760499 -2.285870 -1.575949 0
M  V30 22 C -2.447404 -2.373069 -2.763894 0
M  V30 23 O -2.983143 -3.352461 -3.544696 0
M  V30 24 C -2.977604 -4.727189 -3.345265 0
M  V30 25 C -1.645775 -5.398446 -3.319169 0
M  V30 26 N -1.753294 -6.836609 -3.103589 0
M  V30 27 C -0.436827 -7.449037 -3.086636 0
M  V30 28 C 0.011499 -7.741764 -1.666180 0
M  V30 29 O -0.831812 -8.621054 -1.032503 0
M  V30 30 C -2.162443 -8.502971 -1.354904 0
M  V30 31 C -2.498580 -7.146385 -1.919452 0
M  V30 32 C -2.702788 -1.149753 -3.411026 0
M  V30 33 C -2.280875 0.078505 -2.874553 0
M  V30 34 C -0.469172 1.472279 0.065750 0
M  V30 35 C -0.073753 2.692526 0.557699 0
M  V30 36 H 3.455599 5.169636 6.021856 0
M  V30 37 H 4.399650 1.635327 6.544436 0
M  V30 38 H 4.799881 3.375731 6.962527 0
M  V30 39 H 2.437226 3.698891 7.977090 0
M  V30 40 H 2.159289 1.857863 7.627564 0
M  V30 41 H 1.588324 1.490112 5.388007 0
M  V30 42 H 3.142738 1.419872 4.564030 0
M  V30 43 H 0.951709 0.968300 2.635574 0
M  V30 44 H 1.691906 5.961336 1.191034 0
M  V30 45 H 0.226884 6.199600 2.153415 0
M  V30 46 H 0.486998 5.765582 -0.676590 0
M  V30 47 H -1.020283 5.854424 0.332000 0
M  V30 48 H -1.351030 4.542454 -1.979410 0
M  V30 49 H -0.816176 -1.163145 -0.109299 0
M  V30 50 H -1.614024 -3.249074 -1.137525 0
M  V30 51 H -3.602206 -5.021452 -2.443488 0
M  V30 52 H -3.571445 -5.177174 -4.200587 0
M  V30 53 H -1.073144 -5.240214 -4.271283 0
M  V30 54 H -1.015702 -4.982257 -2.529870 0
M  V30 55 H 0.267753 -6.768601 -3.591979 0
M  V30 56 H -0.490975 -8.378565 -3.675684 0
M  V30 57 H 0.138632 -6.766700 -1.132684 0
M  V30 58 H 1.022668 -8.192147 -1.703437 0
M  V30 59 H -2.840783 -8.761387 -0.518507 0
M  V30 60 H -2.387935 -9.275656 -2.141267 0
M  V30 61 H -2.226976 -6.373347 -1.143817 0
M  V30 62 H -3.584722 -7.044687 -2.069924 0
M  V30 63 H -3.225067 -0.963995 -4.354706 0
M  V30 64 H -2.454085 1.042385 -3.335467 0
M  V30 65 H -0.215434 0.608019 0.650914 0
M  V30 END ATOM
M  V30 BEGIN BOND
M  V30 1 2 1 2
M  V30 2 1 2 3
M  V30 3 1 3 4
M  V30 4 1 4 5
M  V30 5 1 5 6
M  V30 6 1 4 7
M  V30 7 1 7 8
M  V30 8 1 8 9
M  V30 9 1 9 10
M  V30 10 2 10 11
M  V30 11 1 11 12
M  V30 12 1 11 13
M  V30 13 1 13 14
M  V30 14 1 14 15
M  V30 15 2 15 16
M  V30 16 1 16 17
M  V30 17 2 17 18
M  V30 18 1 18 19
M  V30 19 2 19 20
M  V30 20 1 20 21
M  V30 21 2 21 22
M  V30 22 1 22 23
M  V30 23 1 23 24
M  V30 24 1 24 25
M  V30 25 1 25 26
M  V30 26 1 26 27
M  V30 27 1 27 28
M  V30 28 1 28 29
M  V30 29 1 29 30
M  V30 30 1 30 31
M  V30 31 1 22 32
M  V30 32 2 32 33
M  V30 33 1 18 34
M  V30 34 2 34 35
M  V30 35 1 12 2
M  V30 36 1 35 15
M  V30 37 1 6 4
M  V30 38 2 12 8
M  V30 39 1 33 19
M  V30 40 1 35 10
M  V30 41 1 31 26
M  V30 42 1 3 36
M  V30 43 1 5 37
M  V30 44 1 5 38
M  V30 45 1 6 39
M  V30 46 1 6 40
M  V30 47 1 7 41
M  V30 48 1 7 42
M  V30 49 1 9 43
M  V30 50 1 13 44
M  V30 51 1 13 45
M  V30 52 1 14 46
M  V30 53 1 14 47
M  V30 54 1 16 48
M  V30 55 1 20 49
M  V30 56 1 21 50
M  V30 57 1 24 51
M  V30 58 1 24 52
M  V30 59 1 25 53
M  V30 60 1 25 54
M  V30 61 1 27 55
M  V30 62 1 27 56
M  V30 63 1 28 57
M  V30 64 1 28 58
M  V30 65 1 30 59
M  V30 66 1 30 60
M  V30 67 1 31 61
M  V30 68 1 31 62
M  V30 69 1 32 63
M  V30 70 1 33 64
M  V30 71 1 34 65
M  V30 END BOND
M  V30 END CTAB
M  END
>  <Dataset>  (132) 
ChEMBL_Kinases

>  <Ligand_Instance>  (132) 
nan

>  <PDB_ID>  (132) 
nan

>  <Standardized_SMILES>  (132) 
O=C1NC2(CC2)Cc2[nH]c3c(c21)CCc1cnc(-c2ccc(OCCN4CCOCC4)cc2)cc1-3

>  <Name>  (132) 
nan

>  <Pocket>  (132) 
nan

>  <ATP_Site>  (132) 
nan

>  <Peripheral>  (132) 
nan

>  <Num_H_Atoms_ProtBoundConf>  (132) 
nan

>  <Num_Resolved_Atoms>  (132) 
nan

>  <Num_Not_Resolved_Atoms>  (132) 
nan

$$$$
CHEMBL1801279
     RDKit          3D

  0  0  0  0  0  0  0  0  0  0999 V3000
M  V30 BEGIN CTAB
M  V30 COUNTS 44 49 0 0 0
M  V30 BEGIN ATOM
M  V30 1 O 4.193726 0.590446 3.494766 0
M  V30 2 C 3.868337 -0.485704 2.902300 0
M  V30 3 N 4.590056 -1.730137 3.016593 0
M  V30 4 C 3.761835 -2.902506 2.870064 0
M  V30 5 C 2.789748 -3.124835 4.048680 0
M  V30 6 C 3.900568 -4.101444 3.692383 0
M  V30 7 C 3.087250 -2.883988 1.541204 0
M  V30 8 C 2.296795 -1.622949 1.382366 0
M  V30 9 N 1.177043 -1.408390 0.638013 0
M  V30 10 C 0.849858 -0.119567 0.825640 0
M  V30 11 C 1.737862 0.503356 1.677976 0
M  V30 12 C 2.666907 -0.449430 2.039567 0
M  V30 13 C 1.715557 1.892512 2.120742 0
M  V30 14 C 0.601377 2.715711 1.581403 0
M  V30 15 C -0.313082 2.011114 0.682926 0
M  V30 16 C -1.361511 2.738726 0.160076 0
M  V30 17 N -2.275942 2.219979 -0.677019 0
M  V30 18 C -2.245004 0.934218 -1.079311 0
M  V30 19 C -3.243352 0.381153 -1.988821 0
M  V30 20 C -3.261901 -0.924617 -2.433768 0
M  V30 21 C -4.246442 -1.380943 -3.301247 0
M  V30 22 C -5.234074 -0.496507 -3.727970 0
M  V30 23 F -6.222186 -0.871192 -4.571072 0
M  V30 24 N -5.195019 0.779853 -3.277816 0
M  V30 25 C -4.240242 1.225663 -2.435478 0
M  V30 26 C -1.200067 0.208715 -0.558304 0
M  V30 27 C -0.245331 0.690603 0.295957 0
M  V30 28 H 5.627475 -1.604935 3.192192 0
M  V30 29 H 2.922954 -2.476784 4.946619 0
M  V30 30 H 1.746120 -3.375331 3.825559 0
M  V30 31 H 3.603222 -5.075496 3.236949 0
M  V30 32 H 4.705860 -4.139950 4.440853 0
M  V30 33 H 2.444377 -3.748719 1.357810 0
M  V30 34 H 3.869490 -2.832229 0.732488 0
M  V30 35 H 0.666417 -2.096803 0.038786 0
M  V30 36 H 2.677758 2.357768 1.755512 0
M  V30 37 H 1.766394 1.936477 3.220042 0
M  V30 38 H 0.964049 3.621343 1.013682 0
M  V30 39 H 0.022560 3.147195 2.440033 0
M  V30 40 H -1.493730 3.801163 0.414844 0
M  V30 41 H -2.486468 -1.593740 -2.090378 0
M  V30 42 H -4.249172 -2.408070 -3.642620 0
M  V30 43 H -4.252503 2.258330 -2.103201 0
M  V30 44 H -1.089684 -0.830881 -0.821433 0
M  V30 END ATOM
M  V30 BEGIN BOND
M  V30 1 2 1 2
M  V30 2 1 2 3
M  V30 3 1 3 4
M  V30 4 1 4 5
M  V30 5 1 5 6
M  V30 6 1 4 7
M  V30 7 1 7 8
M  V30 8 1 8 9
M  V30 9 1 9 10
M  V30 10 2 10 11
M  V30 11 1 11 12
M  V30 12 1 11 13
M  V30 13 1 13 14
M  V30 14 1 14 15
M  V30 15 2 15 16
M  V30 16 1 16 17
M  V30 17 2 17 18
M  V30 18 1 18 19
M  V30 19 2 19 20
M  V30 20 1 20 21
M  V30 21 2 21 22
M  V30 22 1 22 23
M  V30 23 1 22 24
M  V30 24 2 24 25
M  V30 25 1 18 26
M  V30 26 2 26 27
M  V30 27 1 12 2
M  V30 28 1 27 15
M  V30 29 1 6 4
M  V30 30 2 12 8
M  V30 31 1 25 19
M  V30 32 1 27 10
M  V30 33 1 3 28
M  V30 34 1 5 29
M  V30 35 1 5 30
M  V30 36 1 6 31
M  V30 37 1 6 32
M  V30 38 1 7 33
M  V30 39 1 7 34
M  V30 40 1 9 35
M  V30 41 1 13 36
M  V30 42 1 13 37
M  V30 43 1 14 38
M  V30 44 1 14 39
M  V30 45 1 16 40
M  V30 46 1 20 41
M  V30 47 1 21 42
M  V30 48 1 25 43
M  V30 49 1 26 44
M  V30 END BOND
M  V30 END CTAB
M  END
>  <Dataset>  (133) 
ChEMBL_Kinases

>  <Ligand_Instance>  (133) 
nan

>  <PDB_ID>  (133) 
nan

>  <Standardized_SMILES>  (133) 
O=C1NC2(CC2)Cc2[nH]c3c(c21)CCc1cnc(-c2ccc(F)nc2)cc1-3

>  <Name>  (133) 
nan

>  <Pocket>  (133) 
nan

>  <ATP_Site>  (133) 
nan

>  <Peripheral>  (133) 
nan

>  <Num_H_Atoms_ProtBoundConf>  (133) 
nan

>  <Num_Resolved_Atoms>  (133) 
nan

>  <Num_Not_Resolved_Atoms>  (133) 
nan

$$$$
CHEMBL1801278
     RDKit          3D

  0  0  0  0  0  0  0  0  0  0999 V3000
M  V30 BEGIN CTAB
M  V30 COUNTS 49 54 0 0 0
M  V30 BEGIN ATOM
M  V30 1 C 5.489249 -7.033348 -1.264707 0
M  V30 2 O 4.153571 -6.576453 -1.339839 0
M  V30 3 C 3.760128 -5.331798 -0.877579 0
M  V30 4 C 4.586053 -4.391604 -0.297579 0
M  V30 5 C 4.066414 -3.163636 0.131467 0
M  V30 6 C 2.729951 -2.846556 -0.004829 0
M  V30 7 C 2.284556 -1.540823 0.473366 0
M  V30 8 C 0.973598 -1.117259 0.388756 0
M  V30 9 C 0.660226 0.130416 0.868715 0
M  V30 10 C 1.589130 0.966380 1.424348 0
M  V30 11 C 2.888128 0.502126 1.488748 0
M  V30 12 N 3.216058 -0.736322 1.015805 0
M  V30 13 C 1.432442 2.319282 1.982481 0
M  V30 14 C 0.040578 2.848902 1.927028 0
M  V30 15 C -0.917413 1.897042 1.315053 0
M  V30 16 C -0.707223 0.632163 0.806494 0
M  V30 17 N -1.865950 0.128481 0.348674 0
M  V30 18 C -2.824476 1.049010 0.553248 0
M  V30 19 C -2.279312 2.165050 1.152107 0
M  V30 20 C -3.200306 3.279052 1.448860 0
M  V30 21 O -2.692184 4.312318 2.003919 0
M  V30 22 N -4.595130 3.142530 1.102805 0
M  V30 23 C -5.050149 1.759588 1.181961 0
M  V30 24 C -5.174247 1.126943 2.562707 0
M  V30 25 C -6.389274 1.407444 1.674078 0
M  V30 26 C -4.270948 0.940454 0.208544 0
M  V30 27 C 1.911017 -3.791891 -0.585635 0
M  V30 28 C 2.412503 -5.012931 -1.015391 0
M  V30 29 H 6.116049 -6.703963 -2.126451 0
M  V30 30 H 5.496985 -8.139968 -1.270196 0
M  V30 31 H 6.016649 -6.694622 -0.354388 0
M  V30 32 H 5.625387 -4.653773 -0.198381 0
M  V30 33 H 4.788130 -2.494934 0.571591 0
M  V30 34 H 0.226252 -1.742312 -0.037536 0
M  V30 35 H 3.741764 1.056327 1.905982 0
M  V30 36 H 2.135016 3.021952 1.485107 0
M  V30 37 H 1.729515 2.277362 3.068546 0
M  V30 38 H 0.017361 3.767844 1.298594 0
M  V30 39 H -0.331611 3.178458 2.925190 0
M  V30 40 H -1.906668 -0.826981 -0.076475 0
M  V30 41 H -5.054437 4.068573 0.849611 0
M  V30 42 H -4.951975 1.825190 3.381183 0
M  V30 43 H -4.944712 0.042120 2.672115 0
M  V30 44 H -6.926778 0.539868 1.251676 0
M  V30 45 H -7.037039 2.200029 2.054117 0
M  V30 46 H -4.603538 -0.092297 0.116323 0
M  V30 47 H -4.362469 1.478051 -0.780864 0
M  V30 48 H 0.861777 -3.558873 -0.699584 0
M  V30 49 H 1.730252 -5.720060 -1.464165 0
M  V30 END ATOM
M  V30 BEGIN BOND
M  V30 1 1 1 2
M  V30 2 1 2 3
M  V30 3 2 3 4
M  V30 4 1 4 5
M  V30 5 2 5 6
M  V30 6 1 6 7
M  V30 7 2 7 8
M  V30 8 1 8 9
M  V30 9 2 9 10
M  V30 10 1 10 11
M  V30 11 2 11 12
M  V30 12 1 10 13
M  V30 13 1 13 14
M  V30 14 1 14 15
M  V30 15 2 15 16
M  V30 16 1 16 17
M  V30 17 1 17 18
M  V30 18 2 18 19
M  V30 19 1 19 20
M  V30 20 2 20 21
M  V30 21 1 20 22
M  V30 22 1 22 23
M  V30 23 1 23 24
M  V30 24 1 24 25
M  V30 25 1 23 26
M  V30 26 1 6 27
M  V30 27 2 27 28
M  V30 28 1 28 3
M  V30 29 1 12 7
M  V30 30 1 19 15
M  V30 31 1 25 23
M  V30 32 1 16 9
M  V30 33 1 26 18
M  V30 34 1 1 29
M  V30 35 1 1 30
M  V30 36 1 1 31
M  V30 37 1 4 32
M  V30 38 1 5 33
M  V30 39 1 8 34
M  V30 40 1 11 35
M  V30 41 1 13 36
M  V30 42 1 13 37
M  V30 43 1 14 38
M  V30 44 1 14 39
M  V30 45 1 17 40
M  V30 46 1 22 41
M  V30 47 1 24 42
M  V30 48 1 24 43
M  V30 49 1 25 44
M  V30 50 1 25 45
M  V30 51 1 26 46
M  V30 52 1 26 47
M  V30 53 1 27 48
M  V30 54 1 28 49
M  V30 END BOND
M  V30 END CTAB
M  END
>  <Dataset>  (134) 
ChEMBL_Kinases

>  <Ligand_Instance>  (134) 
nan

>  <PDB_ID>  (134) 
nan

>  <Standardized_SMILES>  (134) 
COc1ccc(-c2cc3c(cn2)CCc2c-3[nH]c3c2C(=O)NC2(CC2)C3)cc1

>  <Name>  (134) 
nan

>  <Pocket>  (134) 
nan

>  <ATP_Site>  (134) 
nan

>  <Peripheral>  (134) 
nan

>  <Num_H_Atoms_ProtBoundConf>  (134) 
nan

>  <Num_Resolved_Atoms>  (134) 
nan

>  <Num_Not_Resolved_Atoms>  (134) 
nan

$$$$
CHEMBL1801277
     RDKit          3D

  0  0  0  0  0  0  0  0  0  0999 V3000
M  V30 BEGIN CTAB
M  V30 COUNTS 45 50 0 0 0
M  V30 BEGIN ATOM
M  V30 1 O 5.194470 0.112924 1.439707 0
M  V30 2 C 4.529080 -0.873486 0.972733 0
M  V30 3 N 5.131232 -2.122847 0.602223 0
M  V30 4 C 4.271179 -3.271388 0.762727 0
M  V30 5 C 3.956168 -3.608966 2.229690 0
M  V30 6 C 4.710860 -4.528406 1.352500 0
M  V30 7 C 3.057916 -3.102921 -0.080836 0
M  V30 8 C 2.410875 -1.815942 0.299356 0
M  V30 9 N 1.083839 -1.511544 0.210169 0
M  V30 10 C 0.930101 -0.251972 0.653999 0
M  V30 11 C 2.152737 0.265551 1.032204 0
M  V30 12 C 3.085754 -0.725766 0.806602 0
M  V30 13 C 2.398865 1.601569 1.565283 0
M  V30 14 C 1.208253 2.466878 1.704677 0
M  V30 15 C -0.062847 1.885317 1.295471 0
M  V30 16 C -1.175884 2.690247 1.424516 0
M  V30 17 N -2.418044 2.244037 1.069840 0
M  V30 18 C -2.608265 1.004344 0.581051 0
M  V30 19 C -3.970326 0.610575 0.227478 0
M  V30 20 C -4.964614 1.547163 0.423362 0
M  V30 21 C -6.294022 1.243011 0.107948 0
M  V30 22 C -6.644988 0.016893 -0.400339 0
M  V30 23 C -5.640659 -0.884177 -0.581515 0
M  V30 24 F -5.890642 -2.117866 -1.077234 0
M  V30 25 C -4.298142 -0.628589 -0.282117 0
M  V30 26 C -1.495269 0.199912 0.452188 0
M  V30 27 C -0.230470 0.626166 0.802913 0
M  V30 28 H 6.135110 -2.055429 0.255267 0
M  V30 29 H 2.914367 -3.869120 2.492113 0
M  V30 30 H 4.520079 -3.100766 3.028815 0
M  V30 31 H 4.181870 -5.439427 1.013740 0
M  V30 32 H 5.795795 -4.680583 1.513481 0
M  V30 33 H 2.353000 -3.946866 -0.030767 0
M  V30 34 H 3.419791 -2.948285 -1.139188 0
M  V30 35 H 0.291126 -2.100286 -0.128950 0
M  V30 36 H 3.173078 2.074182 0.898771 0
M  V30 37 H 2.942456 1.514649 2.551870 0
M  V30 38 H 1.348253 3.387441 1.066712 0
M  V30 39 H 1.167119 2.896975 2.745443 0
M  V30 40 H -1.126088 3.702224 1.807452 0
M  V30 41 H -4.799254 2.555921 0.822738 0
M  V30 42 H -7.094467 1.977462 0.258380 0
M  V30 43 H -7.667875 -0.252440 -0.656135 0
M  V30 44 H -3.520995 -1.363591 -0.436305 0
M  V30 45 H -1.631687 -0.795785 0.062109 0
M  V30 END ATOM
M  V30 BEGIN BOND
M  V30 1 2 1 2
M  V30 2 1 2 3
M  V30 3 1 3 4
M  V30 4 1 4 5
M  V30 5 1 5 6
M  V30 6 1 4 7
M  V30 7 1 7 8
M  V30 8 1 8 9
M  V30 9 1 9 10
M  V30 10 2 10 11
M  V30 11 1 11 12
M  V30 12 1 11 13
M  V30 13 1 13 14
M  V30 14 1 14 15
M  V30 15 2 15 16
M  V30 16 1 16 17
M  V30 17 2 17 18
M  V30 18 1 18 19
M  V30 19 2 19 20
M  V30 20 1 20 21
M  V30 21 2 21 22
M  V30 22 1 22 23
M  V30 23 1 23 24
M  V30 24 2 23 25
M  V30 25 1 18 26
M  V30 26 2 26 27
M  V30 27 1 12 2
M  V30 28 1 27 15
M  V30 29 1 6 4
M  V30 30 2 12 8
M  V30 31 1 25 19
M  V30 32 1 27 10
M  V30 33 1 3 28
M  V30 34 1 5 29
M  V30 35 1 5 30
M  V30 36 1 6 31
M  V30 37 1 6 32
M  V30 38 1 7 33
M  V30 39 1 7 34
M  V30 40 1 9 35
M  V30 41 1 13 36
M  V30 42 1 13 37
M  V30 43 1 14 38
M  V30 44 1 14 39
M  V30 45 1 16 40
M  V30 46 1 20 41
M  V30 47 1 21 42
M  V30 48 1 22 43
M  V30 49 1 25 44
M  V30 50 1 26 45
M  V30 END BOND
M  V30 END CTAB
M  END
>  <Dataset>  (135) 
ChEMBL_Kinases

>  <Ligand_Instance>  (135) 
nan

>  <PDB_ID>  (135) 
nan

>  <Standardized_SMILES>  (135) 
O=C1NC2(CC2)Cc2[nH]c3c(c21)CCc1cnc(-c2cccc(F)c2)cc1-3

>  <Name>  (135) 
nan

>  <Pocket>  (135) 
nan

>  <ATP_Site>  (135) 
nan

>  <Peripheral>  (135) 
nan

>  <Num_H_Atoms_ProtBoundConf>  (135) 
nan

>  <Num_Resolved_Atoms>  (135) 
nan

>  <Num_Not_Resolved_Atoms>  (135) 
nan

$$$$
CHEMBL1801276
     RDKit          3D

  0  0  0  0  0  0  0  0  0  0999 V3000
M  V30 BEGIN CTAB
M  V30 COUNTS 45 50 0 0 0
M  V30 BEGIN ATOM
M  V30 1 O 5.174938 -0.349212 1.728636 0
M  V30 2 C 4.358046 -1.328768 1.644944 0
M  V30 3 N 4.742238 -2.695064 1.918588 0
M  V30 4 C 3.666418 -3.511109 2.434338 0
M  V30 5 C 3.241205 -3.269903 3.894987 0
M  V30 6 C 3.885490 -4.552468 3.444952 0
M  V30 7 C 2.541104 -3.533805 1.461999 0
M  V30 8 C 2.132399 -2.131844 1.177643 0
M  V30 9 N 0.898484 -1.698422 0.805951 0
M  V30 10 C 0.962080 -0.363893 0.651155 0
M  V30 11 C 2.242245 0.074216 0.922965 0
M  V30 12 C 2.979256 -1.042881 1.255000 0
M  V30 13 C 2.709903 1.453719 0.865929 0
M  V30 14 C 1.695021 2.457661 0.477219 0
M  V30 15 C 0.361985 1.942647 0.201715 0
M  V30 16 C -0.609531 2.850977 -0.163644 0
M  V30 17 N -1.878412 2.504790 -0.444359 0
M  V30 18 C -2.286293 1.224185 -0.384686 0
M  V30 19 C -3.664117 0.854362 -0.690296 0
M  V30 20 C -4.180980 -0.424277 -0.658811 0
M  V30 21 C -5.503529 -0.665690 -0.966728 0
M  V30 22 C -6.368571 0.339532 -1.317237 0
M  V30 23 C -5.879649 1.641685 -1.358896 0
M  V30 24 C -4.552946 1.847503 -1.045351 0
M  V30 25 F -4.136894 3.135969 -1.103922 0
M  V30 26 C -1.332558 0.309619 -0.023083 0
M  V30 27 C -0.025944 0.642362 0.269023 0
M  V30 28 H 5.748950 -2.925854 1.710637 0
M  V30 29 H 3.828223 -2.545825 4.499354 0
M  V30 30 H 2.178587 -3.390567 4.164226 0
M  V30 31 H 4.907344 -4.701131 3.800928 0
M  V30 32 H 3.288688 -5.481086 3.380697 0
M  V30 33 H 1.688099 -4.112445 1.876882 0
M  V30 34 H 2.866689 -4.014161 0.511399 0
M  V30 35 H 0.030612 -2.255117 0.654969 0
M  V30 36 H 3.218550 1.732538 1.835014 0
M  V30 37 H 3.553543 1.491437 0.120605 0
M  V30 38 H 2.011584 3.049872 -0.429522 0
M  V30 39 H 1.622840 3.230699 1.291190 0
M  V30 40 H -0.415653 3.904240 -0.248998 0
M  V30 41 H -3.503323 -1.220990 -0.383042 0
M  V30 42 H -5.856928 -1.696861 -0.925080 0
M  V30 43 H -7.403343 0.132358 -1.555813 0
M  V30 44 H -6.535114 2.455518 -1.631172 0
M  V30 45 H -1.571905 -0.737518 0.049840 0
M  V30 END ATOM
M  V30 BEGIN BOND
M  V30 1 2 1 2
M  V30 2 1 2 3
M  V30 3 1 3 4
M  V30 4 1 4 5
M  V30 5 1 5 6
M  V30 6 1 4 7
M  V30 7 1 7 8
M  V30 8 1 8 9
M  V30 9 1 9 10
M  V30 10 2 10 11
M  V30 11 1 11 12
M  V30 12 1 11 13
M  V30 13 1 13 14
M  V30 14 1 14 15
M  V30 15 2 15 16
M  V30 16 1 16 17
M  V30 17 2 17 18
M  V30 18 1 18 19
M  V30 19 2 19 20
M  V30 20 1 20 21
M  V30 21 2 21 22
M  V30 22 1 22 23
M  V30 23 2 23 24
M  V30 24 1 24 25
M  V30 25 1 18 26
M  V30 26 2 26 27
M  V30 27 1 12 2
M  V30 28 1 27 15
M  V30 29 1 6 4
M  V30 30 2 12 8
M  V30 31 1 24 19
M  V30 32 1 27 10
M  V30 33 1 3 28
M  V30 34 1 5 29
M  V30 35 1 5 30
M  V30 36 1 6 31
M  V30 37 1 6 32
M  V30 38 1 7 33
M  V30 39 1 7 34
M  V30 40 1 9 35
M  V30 41 1 13 36
M  V30 42 1 13 37
M  V30 43 1 14 38
M  V30 44 1 14 39
M  V30 45 1 16 40
M  V30 46 1 20 41
M  V30 47 1 21 42
M  V30 48 1 22 43
M  V30 49 1 23 44
M  V30 50 1 26 45
M  V30 END BOND
M  V30 END CTAB
M  END
>  <Dataset>  (136) 
ChEMBL_Kinases

>  <Ligand_Instance>  (136) 
nan

>  <PDB_ID>  (136) 
nan

>  <Standardized_SMILES>  (136) 
O=C1NC2(CC2)Cc2[nH]c3c(c21)CCc1cnc(-c2ccccc2F)cc1-3

>  <Name>  (136) 
nan

>  <Pocket>  (136) 
nan

>  <ATP_Site>  (136) 
nan

>  <Peripheral>  (136) 
nan

>  <Num_H_Atoms_ProtBoundConf>  (136) 
nan

>  <Num_Resolved_Atoms>  (136) 
nan

>  <Num_Not_Resolved_Atoms>  (136) 
nan

$$$$
CHEMBL1801275
     RDKit          3D

  0  0  0  0  0  0  0  0  0  0999 V3000
M  V30 BEGIN CTAB
M  V30 COUNTS 45 49 0 0 0
M  V30 BEGIN ATOM
M  V30 1 C -4.068318 -5.678484 -3.797105 0
M  V30 2 O -3.890350 -5.136223 -2.522991 0
M  V30 3 C -2.950886 -4.180625 -2.169371 0
M  V30 4 C -2.059654 -3.652871 -3.099673 0
M  V30 5 C -1.154350 -2.698893 -2.648191 0
M  V30 6 C -1.127065 -2.280973 -1.334096 0
M  V30 7 C -0.138574 -1.275136 -0.960712 0
M  V30 8 C -0.014533 -0.779668 0.320317 0
M  V30 9 C 0.934958 0.155478 0.575530 0
M  V30 10 C 1.793960 0.646202 -0.380983 0
M  V30 11 C 1.636291 0.119239 -1.665683 0
M  V30 12 N 0.684307 -0.818290 -1.921371 0
M  V30 13 C 2.876276 1.650580 -0.292566 0
M  V30 14 C 3.066576 2.232830 1.062795 0
M  V30 15 C 2.100349 1.654969 2.058458 0
M  V30 16 C 1.106863 0.711345 1.910795 0
M  V30 17 N 0.509514 0.526214 3.099832 0
M  V30 18 C 1.093106 1.327094 4.011012 0
M  V30 19 C 2.096810 2.050310 3.390948 0
M  V30 20 C 2.824586 2.973095 4.273256 0
M  V30 21 O 3.743525 3.644832 3.737603 0
M  V30 22 N 2.494022 3.086238 5.652090 0
M  V30 23 C 1.971271 1.868642 6.282557 0
M  V30 24 C 0.764917 1.460195 5.449423 0
M  V30 25 C -2.034378 -2.839991 -0.459678 0
M  V30 26 C -2.962840 -3.790969 -0.831126 0
M  V30 27 H -5.143791 -5.992945 -3.915699 0
M  V30 28 H -3.922279 -4.909209 -4.600580 0
M  V30 29 H -3.434050 -6.532104 -4.045160 0
M  V30 30 H -2.092768 -3.990017 -4.126145 0
M  V30 31 H -0.497256 -2.337158 -3.425549 0
M  V30 32 H -0.650401 -1.120600 1.103021 0
M  V30 33 H 2.229233 0.394238 -2.539037 0
M  V30 34 H 2.727026 2.475259 -1.046554 0
M  V30 35 H 3.846312 1.162762 -0.604414 0
M  V30 36 H 2.949637 3.336297 1.002498 0
M  V30 37 H 4.116426 2.056053 1.392600 0
M  V30 38 H -0.277184 -0.156890 3.197145 0
M  V30 39 H 2.649465 4.015977 6.094673 0
M  V30 40 H 2.744608 1.085300 6.337477 0
M  V30 41 H 1.602412 2.049841 7.308029 0
M  V30 42 H 0.326336 0.526652 5.849672 0
M  V30 43 H 0.051336 2.327829 5.548508 0
M  V30 44 H -2.026099 -2.523150 0.574006 0
M  V30 45 H -3.666511 -4.216281 -0.125417 0
M  V30 END ATOM
M  V30 BEGIN BOND
M  V30 1 1 1 2
M  V30 2 1 2 3
M  V30 3 2 3 4
M  V30 4 1 4 5
M  V30 5 2 5 6
M  V30 6 1 6 7
M  V30 7 2 7 8
M  V30 8 1 8 9
M  V30 9 2 9 10
M  V30 10 1 10 11
M  V30 11 2 11 12
M  V30 12 1 10 13
M  V30 13 1 13 14
M  V30 14 1 14 15
M  V30 15 2 15 16
M  V30 16 1 16 17
M  V30 17 1 17 18
M  V30 18 2 18 19
M  V30 19 1 19 20
M  V30 20 2 20 21
M  V30 21 1 20 22
M  V30 22 1 22 23
M  V30 23 1 23 24
M  V30 24 1 6 25
M  V30 25 2 25 26
M  V30 26 1 26 3
M  V30 27 1 12 7
M  V30 28 1 19 15
M  V30 29 1 16 9
M  V30 30 1 24 18
M  V30 31 1 1 27
M  V30 32 1 1 28
M  V30 33 1 1 29
M  V30 34 1 4 30
M  V30 35 1 5 31
M  V30 36 1 8 32
M  V30 37 1 11 33
M  V30 38 1 13 34
M  V30 39 1 13 35
M  V30 40 1 14 36
M  V30 41 1 14 37
M  V30 42 1 17 38
M  V30 43 1 22 39
M  V30 44 1 23 40
M  V30 45 1 23 41
M  V30 46 1 24 42
M  V30 47 1 24 43
M  V30 48 1 25 44
M  V30 49 1 26 45
M  V30 END BOND
M  V30 END CTAB
M  END
>  <Dataset>  (137) 
ChEMBL_Kinases

>  <Ligand_Instance>  (137) 
nan

>  <PDB_ID>  (137) 
nan

>  <Standardized_SMILES>  (137) 
COc1ccc(-c2cc3c(cn2)CCc2c-3[nH]c3c2C(=O)NCC3)cc1

>  <Name>  (137) 
nan

>  <Pocket>  (137) 
nan

>  <ATP_Site>  (137) 
nan

>  <Peripheral>  (137) 
nan

>  <Num_H_Atoms_ProtBoundConf>  (137) 
nan

>  <Num_Resolved_Atoms>  (137) 
nan

>  <Num_Not_Resolved_Atoms>  (137) 
nan

$$$$
CHEMBL1801274
     RDKit          3D

  0  0  0  0  0  0  0  0  0  0999 V3000
M  V30 BEGIN CTAB
M  V30 COUNTS 41 45 0 0 0
M  V30 BEGIN ATOM
M  V30 1 O 3.210324 -2.223892 -3.387710 0
M  V30 2 C 2.283849 -2.849305 -2.810306 0
M  V30 3 N 1.910618 -4.141349 -3.272362 0
M  V30 4 C 0.637469 -4.655007 -2.901878 0
M  V30 5 C 0.184972 -4.294323 -1.522217 0
M  V30 6 C 0.622961 -2.952227 -1.095178 0
M  V30 7 N 0.109203 -2.229911 -0.059663 0
M  V30 8 C 0.769796 -1.073669 0.003801 0
M  V30 9 C 1.733588 -0.992228 -0.977721 0
M  V30 10 C 1.637001 -2.193052 -1.677229 0
M  V30 11 C 2.720679 0.047704 -1.343499 0
M  V30 12 C 2.626291 1.244193 -0.439430 0
M  V30 13 C 1.585454 1.094114 0.578025 0
M  V30 14 C 1.513676 2.211273 1.402472 0
M  V30 15 N 0.628457 2.319055 2.425704 0
M  V30 16 C -0.248883 1.310240 2.693526 0
M  V30 17 C -1.195701 1.436262 3.795175 0
M  V30 18 C -2.120484 0.475786 4.146303 0
M  V30 19 C -2.998203 0.647480 5.204278 0
M  V30 20 C -2.952646 1.804267 5.929212 0
M  V30 21 C -2.047336 2.808865 5.628525 0
M  V30 22 F -2.005274 3.956763 6.351270 0
M  V30 23 C -1.192503 2.582060 4.558271 0
M  V30 24 C -0.207165 0.185517 1.896316 0
M  V30 25 C 0.692466 0.096267 0.869983 0
M  V30 26 H 2.592380 -4.669798 -3.872464 0
M  V30 27 H 0.670311 -5.763422 -2.969788 0
M  V30 28 H -0.135360 -4.341620 -3.659058 0
M  V30 29 H 0.534447 -5.036823 -0.775595 0
M  V30 30 H -0.924002 -4.319325 -1.503570 0
M  V30 31 H -0.658033 -2.460567 0.610760 0
M  V30 32 H 3.755362 -0.362494 -1.351341 0
M  V30 33 H 2.520689 0.406254 -2.393508 0
M  V30 34 H 2.416811 2.163896 -1.055913 0
M  V30 35 H 3.632353 1.476535 0.015480 0
M  V30 36 H 2.128679 3.119273 1.349069 0
M  V30 37 H -2.163786 -0.425976 3.589553 0
M  V30 38 H -3.705314 -0.139189 5.437800 0
M  V30 39 H -3.657854 1.920971 6.765045 0
M  V30 40 H -0.493662 3.360383 4.328054 0
M  V30 41 H -0.858799 -0.639032 2.044888 0
M  V30 END ATOM
M  V30 BEGIN BOND
M  V30 1 2 1 2
M  V30 2 1 2 3
M  V30 3 1 3 4
M  V30 4 1 4 5
M  V30 5 1 5 6
M  V30 6 1 6 7
M  V30 7 1 7 8
M  V30 8 2 8 9
M  V30 9 1 9 10
M  V30 10 1 9 11
M  V30 11 1 11 12
M  V30 12 1 12 13
M  V30 13 2 13 14
M  V30 14 1 14 15
M  V30 15 2 15 16
M  V30 16 1 16 17
M  V30 17 2 17 18
M  V30 18 1 18 19
M  V30 19 2 19 20
M  V30 20 1 20 21
M  V30 21 1 21 22
M  V30 22 2 21 23
M  V30 23 1 16 24
M  V30 24 2 24 25
M  V30 25 1 10 2
M  V30 26 1 25 13
M  V30 27 2 10 6
M  V30 28 1 23 17
M  V30 29 1 25 8
M  V30 30 1 3 26
M  V30 31 1 4 27
M  V30 32 1 4 28
M  V30 33 1 5 29
M  V30 34 1 5 30
M  V30 35 1 7 31
M  V30 36 1 11 32
M  V30 37 1 11 33
M  V30 38 1 12 34
M  V30 39 1 12 35
M  V30 40 1 14 36
M  V30 41 1 18 37
M  V30 42 1 19 38
M  V30 43 1 20 39
M  V30 44 1 23 40
M  V30 45 1 24 41
M  V30 END BOND
M  V30 END CTAB
M  END
>  <Dataset>  (138) 
ChEMBL_Kinases

>  <Ligand_Instance>  (138) 
nan

>  <PDB_ID>  (138) 
nan

>  <Standardized_SMILES>  (138) 
O=C1NCCc2[nH]c3c(c21)CCc1cnc(-c2cccc(F)c2)cc1-3

>  <Name>  (138) 
nan

>  <Pocket>  (138) 
nan

>  <ATP_Site>  (138) 
nan

>  <Peripheral>  (138) 
nan

>  <Num_H_Atoms_ProtBoundConf>  (138) 
nan

>  <Num_Resolved_Atoms>  (138) 
nan

>  <Num_Not_Resolved_Atoms>  (138) 
nan

$$$$
CHEMBL1801273
     RDKit          3D

  0  0  0  0  0  0  0  0  0  0999 V3000
M  V30 BEGIN CTAB
M  V30 COUNTS 47 52 0 0 0
M  V30 BEGIN ATOM
M  V30 1 C 1.273849 -2.566353 4.550897 0
M  V30 2 N 2.593084 -1.978960 4.625044 0
M  V30 3 C 3.254728 -2.077544 3.325168 0
M  V30 4 C 3.173740 -0.600544 3.105092 0
M  V30 5 C 4.542495 -0.007993 2.904374 0
M  V30 6 N 4.472889 1.449627 2.750142 0
M  V30 7 C 3.568695 1.927600 1.736965 0
M  V30 8 O 3.787208 3.030383 1.175824 0
M  V30 9 C 2.427151 1.072142 1.422995 0
M  V30 10 C 2.217956 -0.140490 2.063988 0
M  V30 11 N 1.101988 -0.695861 1.571191 0
M  V30 12 C 0.603703 0.151337 0.626619 0
M  V30 13 C 1.413100 1.261377 0.516149 0
M  V30 14 C 0.868573 2.183890 -0.513884 0
M  V30 15 C -0.335796 1.454177 -0.959518 0
M  V30 16 C -1.295456 1.759841 -1.901482 0
M  V30 17 N -2.349969 0.979445 -2.198045 0
M  V30 18 C -2.540577 -0.194458 -1.568342 0
M  V30 19 C -3.678813 -1.054331 -1.876863 0
M  V30 20 C -3.959038 -2.270168 -1.288485 0
M  V30 21 C -5.064026 -3.013316 -1.648601 0
M  V30 22 C -5.946227 -2.577430 -2.617024 0
M  V30 23 C -5.676338 -1.368793 -3.208605 0
M  V30 24 C -4.569982 -0.634021 -2.841891 0
M  V30 25 F -4.386735 0.562909 -3.492513 0
M  V30 26 C -1.599427 -0.531722 -0.619740 0
M  V30 27 C -0.517720 0.252799 -0.304942 0
M  V30 28 C 2.647597 -0.536185 4.515734 0
M  V30 29 H 0.539774 -1.738802 4.587509 0
M  V30 30 H 1.116022 -3.283208 5.396804 0
M  V30 31 H 1.124852 -3.155595 3.621220 0
M  V30 32 H 2.762959 -2.734197 2.589497 0
M  V30 33 H 4.298380 -2.461694 3.513999 0
M  V30 34 H 5.136789 -0.238676 3.822330 0
M  V30 35 H 5.077813 -0.483271 2.056060 0
M  V30 36 H 5.025612 2.142487 3.316637 0
M  V30 37 H 0.666506 -1.610533 1.840628 0
M  V30 38 H 1.572741 2.390362 -1.339496 0
M  V30 39 H 0.630150 3.131259 0.004035 0
M  V30 40 H -1.218079 2.687646 -2.455653 0
M  V30 41 H -3.270389 -2.613259 -0.530666 0
M  V30 42 H -5.175463 -3.961223 -1.107380 0
M  V30 43 H -6.769261 -3.238400 -2.814163 0
M  V30 44 H -6.385734 -1.051977 -3.965052 0
M  V30 45 H -1.667713 -1.442221 -0.070006 0
M  V30 46 H 1.656153 -0.027238 4.626113 0
M  V30 47 H 3.442321 -0.093090 5.178933 0
M  V30 END ATOM
M  V30 BEGIN BOND
M  V30 1 1 1 2
M  V30 2 1 2 3
M  V30 3 1 3 4
M  V30 4 1 4 5
M  V30 5 1 5 6
M  V30 6 1 6 7
M  V30 7 2 7 8
M  V30 8 1 7 9
M  V30 9 2 9 10
M  V30 10 1 10 11
M  V30 11 1 11 12
M  V30 12 2 12 13
M  V30 13 1 13 14
M  V30 14 1 14 15
M  V30 15 2 15 16
M  V30 16 1 16 17
M  V30 17 2 17 18
M  V30 18 1 18 19
M  V30 19 2 19 20
M  V30 20 1 20 21
M  V30 21 2 21 22
M  V30 22 1 22 23
M  V30 23 2 23 24
M  V30 24 1 24 25
M  V30 25 1 18 26
M  V30 26 2 26 27
M  V30 27 1 4 28
M  V30 28 1 28 2
M  V30 29 1 10 4
M  V30 30 1 27 12
M  V30 31 1 13 9
M  V30 32 1 27 15
M  V30 33 1 24 19
M  V30 34 1 1 29
M  V30 35 1 1 30
M  V30 36 1 1 31
M  V30 37 1 3 32
M  V30 38 1 3 33
M  V30 39 1 5 34
M  V30 40 1 5 35
M  V30 41 1 6 36
M  V30 42 1 11 37
M  V30 43 1 14 38
M  V30 44 1 14 39
M  V30 45 1 16 40
M  V30 46 1 20 41
M  V30 47 1 21 42
M  V30 48 1 22 43
M  V30 49 1 23 44
M  V30 50 1 26 45
M  V30 51 1 28 46
M  V30 52 1 28 47
M  V30 END BOND
M  V30 END CTAB
M  END
>  <Dataset>  (139) 
ChEMBL_Kinases

>  <Ligand_Instance>  (139) 
nan

>  <PDB_ID>  (139) 
nan

>  <Standardized_SMILES>  (139) 
CN1CC2(CNC(=O)c3c2[nH]c2c3Cc3cnc(-c4ccccc4F)cc3-2)C1

>  <Name>  (139) 
nan

>  <Pocket>  (139) 
nan

>  <ATP_Site>  (139) 
nan

>  <Peripheral>  (139) 
nan

>  <Num_H_Atoms_ProtBoundConf>  (139) 
nan

>  <Num_Resolved_Atoms>  (139) 
nan

>  <Num_Not_Resolved_Atoms>  (139) 
nan

$$$$
CHEMBL1801196
     RDKit          3D

  0  0  0  0  0  0  0  0  0  0999 V3000
M  V30 BEGIN CTAB
M  V30 COUNTS 54 58 0 0 0
M  V30 BEGIN ATOM
M  V30 1 C 3.042400 -4.918812 2.358469 0
M  V30 2 O 3.946609 -4.275250 1.485964 0
M  V30 3 C 4.060938 -2.912374 1.850827 0
M  V30 4 C 5.019904 -2.258906 0.914873 0
M  V30 5 O 5.267041 -0.914768 1.108709 0
M  V30 6 C 4.453906 0.166402 1.071511 0
M  V30 7 C 5.206691 1.318185 1.349083 0
M  V30 8 N 4.661318 2.571687 1.383393 0
M  V30 9 C 3.329440 2.717177 1.138434 0
M  V30 10 C 2.559066 1.629819 0.864552 0
M  V30 11 C 1.133896 1.767572 0.600385 0
M  V30 12 C 0.237280 0.757470 0.310520 0
M  V30 13 C -1.091606 1.060236 0.083662 0
M  V30 14 C -1.532325 2.387984 0.147348 0
M  V30 15 C -0.618905 3.369766 0.437282 0
M  V30 16 N 0.659034 3.025263 0.649057 0
M  V30 17 C -2.965831 2.796935 -0.079010 0
M  V30 18 C -3.885047 1.999689 0.819937 0
M  V30 19 C -4.331952 0.696181 0.218615 0
M  V30 20 C -3.226543 -0.202976 -0.122251 0
M  V30 21 C -1.861875 -0.144040 -0.208259 0
M  V30 22 N -1.301944 -1.304466 -0.588423 0
M  V30 23 C -2.329416 -2.168818 -0.761930 0
M  V30 24 C -3.536761 -1.517153 -0.480936 0
M  V30 25 C -4.802829 -2.272887 -0.604606 0
M  V30 26 O -5.904916 -1.678244 -0.348229 0
M  V30 27 N -4.741306 -3.656550 -1.011435 0
M  V30 28 C -3.513226 -4.323158 -0.563546 0
M  V30 29 C -2.330722 -3.612919 -1.181946 0
M  V30 30 C 3.113732 0.370556 0.831305 0
M  V30 31 H 2.945264 -5.985565 2.082195 0
M  V30 32 H 3.409076 -4.858913 3.406935 0
M  V30 33 H 2.039220 -4.432810 2.330950 0
M  V30 34 H 4.453664 -2.957326 2.900515 0
M  V30 35 H 3.071223 -2.462142 1.925386 0
M  V30 36 H 4.770385 -2.497432 -0.161380 0
M  V30 37 H 6.003854 -2.802001 1.055381 0
M  V30 38 H 6.268205 1.401671 1.566804 0
M  V30 39 H 2.889464 3.726971 1.166043 0
M  V30 40 H 0.649232 -0.236065 0.284832 0
M  V30 41 H -1.013252 4.373470 0.473187 0
M  V30 42 H -3.232168 2.736612 -1.141752 0
M  V30 43 H -3.040971 3.854051 0.236692 0
M  V30 44 H -4.783802 2.617055 1.008446 0
M  V30 45 H -3.376136 1.874234 1.791432 0
M  V30 46 H -5.108337 0.211253 0.811677 0
M  V30 47 H -4.809817 0.978723 -0.767168 0
M  V30 48 H -0.312121 -1.573551 -0.745417 0
M  V30 49 H -5.560470 -3.998465 -1.560209 0
M  V30 50 H -3.479710 -5.373894 -0.913910 0
M  V30 51 H -3.391537 -4.269518 0.532841 0
M  V30 52 H -1.391975 -4.110541 -0.894681 0
M  V30 53 H -2.430835 -3.661612 -2.276165 0
M  V30 54 H 2.606448 -0.551262 0.622709 0
M  V30 END ATOM
M  V30 BEGIN BOND
M  V30 1 1 1 2
M  V30 2 1 2 3
M  V30 3 1 3 4
M  V30 4 1 4 5
M  V30 5 1 5 6
M  V30 6 2 6 7
M  V30 7 1 7 8
M  V30 8 2 8 9
M  V30 9 1 9 10
M  V30 10 1 10 11
M  V30 11 2 11 12
M  V30 12 1 12 13
M  V30 13 2 13 14
M  V30 14 1 14 15
M  V30 15 2 15 16
M  V30 16 1 14 17
M  V30 17 1 17 18
M  V30 18 1 18 19
M  V30 19 1 19 20
M  V30 20 2 20 21
M  V30 21 1 21 22
M  V30 22 1 22 23
M  V30 23 2 23 24
M  V30 24 1 24 25
M  V30 25 2 25 26
M  V30 26 1 25 27
M  V30 27 1 27 28
M  V30 28 1 28 29
M  V30 29 2 10 30
M  V30 30 1 30 6
M  V30 31 1 16 11
M  V30 32 1 24 20
M  V30 33 1 21 13
M  V30 34 1 29 23
M  V30 35 1 1 31
M  V30 36 1 1 32
M  V30 37 1 1 33
M  V30 38 1 3 34
M  V30 39 1 3 35
M  V30 40 1 4 36
M  V30 41 1 4 37
M  V30 42 1 7 38
M  V30 43 1 9 39
M  V30 44 1 12 40
M  V30 45 1 15 41
M  V30 46 1 17 42
M  V30 47 1 17 43
M  V30 48 1 18 44
M  V30 49 1 18 45
M  V30 50 1 19 46
M  V30 51 1 19 47
M  V30 52 1 22 48
M  V30 53 1 27 49
M  V30 54 1 28 50
M  V30 55 1 28 51
M  V30 56 1 29 52
M  V30 57 1 29 53
M  V30 58 1 30 54
M  V30 END BOND
M  V30 END CTAB
M  END
>  <Dataset>  (140) 
ChEMBL_Kinases

>  <Ligand_Instance>  (140) 
nan

>  <PDB_ID>  (140) 
nan

>  <Standardized_SMILES>  (140) 
COCCOc1cncc(-c2cc3c(cn2)CCCc2c-3[nH]c3c2C(=O)NCC3)c1

>  <Name>  (140) 
nan

>  <Pocket>  (140) 
nan

>  <ATP_Site>  (140) 
nan

>  <Peripheral>  (140) 
nan

>  <Num_H_Atoms_ProtBoundConf>  (140) 
nan

>  <Num_Resolved_Atoms>  (140) 
nan

>  <Num_Not_Resolved_Atoms>  (140) 
nan

$$$$
CHEMBL1801195
     RDKit          3D

  0  0  0  0  0  0  0  0  0  0999 V3000
M  V30 BEGIN CTAB
M  V30 COUNTS 51 55 0 0 0
M  V30 BEGIN ATOM
M  V30 1 C 0.576684 -0.455042 6.714147 0
M  V30 2 O 1.643087 -0.357305 7.555648 0
M  V30 3 C 2.797646 -0.898284 7.110890 0
M  V30 4 C 3.404752 -0.356068 5.851973 0
M  V30 5 O 2.613888 -0.464663 4.698744 0
M  V30 6 C 3.102624 0.013542 3.489373 0
M  V30 7 C 4.362714 0.601285 3.388593 0
M  V30 8 N 4.822693 1.062442 2.198231 0
M  V30 9 C 4.030780 0.942903 1.092929 0
M  V30 10 C 2.778170 0.367509 1.151682 0
M  V30 11 C 2.011284 0.287982 -0.088723 0
M  V30 12 C 0.749986 -0.263917 -0.158093 0
M  V30 13 C 0.089646 -0.302213 -1.367096 0
M  V30 14 C 0.655560 0.198508 -2.520024 0
M  V30 15 C 1.937193 0.750390 -2.407908 0
M  V30 16 N 2.576759 0.780236 -1.203097 0
M  V30 17 C 0.139078 0.259937 -3.889965 0
M  V30 18 C -1.229594 -0.321407 -4.058267 0
M  V30 19 C -1.764769 -0.835546 -2.773510 0
M  V30 20 C -1.224240 -0.863121 -1.506554 0
M  V30 21 N -2.081664 -1.430067 -0.654824 0
M  V30 22 C -3.196117 -1.787227 -1.326909 0
M  V30 23 C -3.025704 -1.428866 -2.647397 0
M  V30 24 C -4.145927 -1.741403 -3.541328 0
M  V30 25 O -4.035962 -1.431621 -4.761572 0
M  V30 26 N -5.329531 -2.373804 -3.069727 0
M  V30 27 C -5.631958 -2.206746 -1.662568 0
M  V30 28 C -4.413921 -2.447332 -0.798790 0
M  V30 29 C 2.322444 -0.097124 2.367273 0
M  V30 30 H 0.754624 0.080772 5.767611 0
M  V30 31 H 0.423933 -1.529568 6.439881 0
M  V30 32 H -0.350221 -0.093797 7.223545 0
M  V30 33 H 3.614555 -0.778889 7.897650 0
M  V30 34 H 2.737844 -2.011186 6.957688 0
M  V30 35 H 3.736847 0.704325 5.964498 0
M  V30 36 H 4.383966 -0.915233 5.734525 0
M  V30 37 H 4.968153 0.680255 4.291830 0
M  V30 38 H 4.470240 1.338072 0.168067 0
M  V30 39 H 0.281097 -0.659730 0.708156 0
M  V30 40 H 2.532450 1.191579 -3.220835 0
M  V30 41 H 0.111098 1.326771 -4.222505 0
M  V30 42 H 0.861788 -0.230466 -4.579243 0
M  V30 43 H -1.891206 0.438558 -4.508046 0
M  V30 44 H -1.167679 -1.182853 -4.790080 0
M  V30 45 H -1.897592 -1.564092 0.360419 0
M  V30 46 H -5.865761 -2.897443 -3.784522 0
M  V30 47 H -6.406889 -2.946335 -1.376008 0
M  V30 48 H -6.071748 -1.198399 -1.456827 0
M  V30 49 H -4.631807 -2.002071 0.193284 0
M  V30 50 H -4.242599 -3.537151 -0.658919 0
M  V30 51 H 1.361008 -0.542807 2.431363 0
M  V30 END ATOM
M  V30 BEGIN BOND
M  V30 1 1 1 2
M  V30 2 1 2 3
M  V30 3 1 3 4
M  V30 4 1 4 5
M  V30 5 1 5 6
M  V30 6 2 6 7
M  V30 7 1 7 8
M  V30 8 2 8 9
M  V30 9 1 9 10
M  V30 10 1 10 11
M  V30 11 2 11 12
M  V30 12 1 12 13
M  V30 13 2 13 14
M  V30 14 1 14 15
M  V30 15 2 15 16
M  V30 16 1 14 17
M  V30 17 1 17 18
M  V30 18 1 18 19
M  V30 19 2 19 20
M  V30 20 1 20 21
M  V30 21 1 21 22
M  V30 22 2 22 23
M  V30 23 1 23 24
M  V30 24 2 24 25
M  V30 25 1 24 26
M  V30 26 1 26 27
M  V30 27 1 27 28
M  V30 28 2 10 29
M  V30 29 1 29 6
M  V30 30 1 16 11
M  V30 31 1 23 19
M  V30 32 1 20 13
M  V30 33 1 28 22
M  V30 34 1 1 30
M  V30 35 1 1 31
M  V30 36 1 1 32
M  V30 37 1 3 33
M  V30 38 1 3 34
M  V30 39 1 4 35
M  V30 40 1 4 36
M  V30 41 1 7 37
M  V30 42 1 9 38
M  V30 43 1 12 39
M  V30 44 1 15 40
M  V30 45 1 17 41
M  V30 46 1 17 42
M  V30 47 1 18 43
M  V30 48 1 18 44
M  V30 49 1 21 45
M  V30 50 1 26 46
M  V30 51 1 27 47
M  V30 52 1 27 48
M  V30 53 1 28 49
M  V30 54 1 28 50
M  V30 55 1 29 51
M  V30 END BOND
M  V30 END CTAB
M  END
>  <Dataset>  (141) 
ChEMBL_Kinases

>  <Ligand_Instance>  (141) 
nan

>  <PDB_ID>  (141) 
nan

>  <Standardized_SMILES>  (141) 
COCCOc1cncc(-c2cc3c(cn2)CCc2c-3[nH]c3c2C(=O)NCC3)c1

>  <Name>  (141) 
nan

>  <Pocket>  (141) 
nan

>  <ATP_Site>  (141) 
nan

>  <Peripheral>  (141) 
nan

>  <Num_H_Atoms_ProtBoundConf>  (141) 
nan

>  <Num_Resolved_Atoms>  (141) 
nan

>  <Num_Not_Resolved_Atoms>  (141) 
nan

$$$$
CHEMBL1801194
     RDKit          3D

  0  0  0  0  0  0  0  0  0  0999 V3000
M  V30 BEGIN CTAB
M  V30 COUNTS 41 45 0 0 0
M  V30 BEGIN ATOM
M  V30 1 O 2.180017 -2.250357 -3.937703 0
M  V30 2 C 1.950988 -2.964147 -2.922849 0
M  V30 3 N 2.155036 -4.372194 -2.914429 0
M  V30 4 C 1.402985 -5.175266 -1.968795 0
M  V30 5 C 1.417139 -4.568020 -0.584058 0
M  V30 6 C 1.219502 -3.084585 -0.645632 0
M  V30 7 N 0.772366 -2.344352 0.383021 0
M  V30 8 C 0.718784 -1.064688 -0.025412 0
M  V30 9 C 1.136072 -0.966814 -1.337531 0
M  V30 10 C 1.455060 -2.261588 -1.729078 0
M  V30 11 C 1.267186 0.181060 -2.249145 0
M  V30 12 C 0.862967 1.478563 -1.596345 0
M  V30 13 C 0.422892 1.314243 -0.186874 0
M  V30 14 C 0.049772 2.501815 0.416916 0
M  V30 15 N -0.376059 2.543930 1.691794 0
M  V30 16 C -0.468385 1.443724 2.463042 0
M  V30 17 C -0.935183 1.525467 3.844713 0
M  V30 18 C -1.060917 0.454205 4.704080 0
M  V30 19 C -1.520541 0.658689 6.009269 0
M  V30 20 C -1.853106 1.920832 6.457137 0
M  V30 21 C -1.735018 3.024563 5.606536 0
M  V30 22 C -1.282882 2.762111 4.349917 0
M  V30 23 F -1.172999 3.855935 3.528623 0
M  V30 24 C -0.100929 0.247066 1.880499 0
M  V30 25 C 0.329608 0.196063 0.595277 0
M  V30 26 H 2.850444 -4.722948 -3.610641 0
M  V30 27 H 1.950468 -6.149070 -1.892175 0
M  V30 28 H 0.383108 -5.416753 -2.304425 0
M  V30 29 H 2.381378 -4.733262 -0.077797 0
M  V30 30 H 0.616671 -5.067132 -0.017969 0
M  V30 31 H 0.491299 -2.619423 1.360164 0
M  V30 32 H 0.615582 0.019854 -3.139687 0
M  V30 33 H 2.324531 0.257148 -2.574299 0
M  V30 34 H 0.045956 1.964230 -2.172632 0
M  V30 35 H 1.739348 2.158205 -1.608877 0
M  V30 36 H 0.059855 3.482826 -0.051299 0
M  V30 37 H -0.795359 -0.525771 4.334026 0
M  V30 38 H -1.601806 -0.229837 6.652105 0
M  V30 39 H -2.210363 2.073013 7.474706 0
M  V30 40 H -1.990359 4.025234 5.936335 0
M  V30 41 H -0.142274 -0.668618 2.414575 0
M  V30 END ATOM
M  V30 BEGIN BOND
M  V30 1 2 1 2
M  V30 2 1 2 3
M  V30 3 1 3 4
M  V30 4 1 4 5
M  V30 5 1 5 6
M  V30 6 1 6 7
M  V30 7 1 7 8
M  V30 8 2 8 9
M  V30 9 1 9 10
M  V30 10 1 9 11
M  V30 11 1 11 12
M  V30 12 1 12 13
M  V30 13 2 13 14
M  V30 14 1 14 15
M  V30 15 2 15 16
M  V30 16 1 16 17
M  V30 17 2 17 18
M  V30 18 1 18 19
M  V30 19 2 19 20
M  V30 20 1 20 21
M  V30 21 2 21 22
M  V30 22 1 22 23
M  V30 23 1 16 24
M  V30 24 2 24 25
M  V30 25 1 10 2
M  V30 26 1 25 13
M  V30 27 2 10 6
M  V30 28 1 22 17
M  V30 29 1 25 8
M  V30 30 1 3 26
M  V30 31 1 4 27
M  V30 32 1 4 28
M  V30 33 1 5 29
M  V30 34 1 5 30
M  V30 35 1 7 31
M  V30 36 1 11 32
M  V30 37 1 11 33
M  V30 38 1 12 34
M  V30 39 1 12 35
M  V30 40 1 14 36
M  V30 41 1 18 37
M  V30 42 1 19 38
M  V30 43 1 20 39
M  V30 44 1 21 40
M  V30 45 1 24 41
M  V30 END BOND
M  V30 END CTAB
M  END
>  <Dataset>  (142) 
ChEMBL_Kinases

>  <Ligand_Instance>  (142) 
nan

>  <PDB_ID>  (142) 
nan

>  <Standardized_SMILES>  (142) 
O=C1NCCc2[nH]c3c(c21)CCc1cnc(-c2ccccc2F)cc1-3

>  <Name>  (142) 
nan

>  <Pocket>  (142) 
nan

>  <ATP_Site>  (142) 
nan

>  <Peripheral>  (142) 
nan

>  <Num_H_Atoms_ProtBoundConf>  (142) 
nan

>  <Num_Resolved_Atoms>  (142) 
nan

>  <Num_Not_Resolved_Atoms>  (142) 
nan

$$$$
CHEMBL1801091
     RDKit          3D

  0  0  0  0  0  0  0  0  0  0999 V3000
M  V30 BEGIN CTAB
M  V30 COUNTS 46 50 0 0 0
M  V30 BEGIN ATOM
M  V30 1 C -0.124916 -8.715828 -0.894160 0
M  V30 2 O -0.395800 -7.661771 0.008892 0
M  V30 3 C -0.150838 -6.342125 -0.255962 0
M  V30 4 C 0.387970 -5.829377 -1.418746 0
M  V30 5 C 0.595575 -4.454583 -1.580958 0
M  V30 6 C 0.260060 -3.582087 -0.567551 0
M  V30 7 C 0.505235 -2.162772 -0.808705 0
M  V30 8 C 0.238533 -1.144156 0.075845 0
M  V30 9 C 0.488648 0.177457 -0.200838 0
M  V30 10 C 1.034071 0.526198 -1.419306 0
M  V30 11 C 1.286254 1.854232 -1.699363 0
M  V30 12 C 0.988554 2.836385 -0.749600 0
M  V30 13 C 0.443841 2.465489 0.461797 0
M  V30 14 C 0.065831 3.226465 1.549736 0
M  V30 15 C -0.418953 2.305464 2.484377 0
M  V30 16 N -0.342953 1.057232 1.999706 0
M  V30 17 C 0.183522 1.126619 0.758666 0
M  V30 18 C -0.945105 2.706327 3.838825 0
M  V30 19 C 0.145296 3.519553 4.480540 0
M  V30 20 C -0.006616 5.012316 4.232284 0
M  V30 21 N 0.175821 5.379172 2.858245 0
M  V30 22 C 0.188072 4.680115 1.610637 0
M  V30 23 O 0.303005 5.284777 0.536886 0
M  V30 24 C 1.300464 -0.499778 -2.304911 0
M  V30 25 N 1.036407 -1.802565 -1.990345 0
M  V30 26 C -0.280005 -4.066148 0.605205 0
M  V30 27 C -0.480436 -5.434303 0.751890 0
M  V30 28 H -1.056852 -8.864267 -1.485096 0
M  V30 29 H 0.086549 -9.674669 -0.386099 0
M  V30 30 H 0.731942 -8.503990 -1.549872 0
M  V30 31 H 0.640645 -6.516167 -2.189161 0
M  V30 32 H 1.026014 -4.166334 -2.539340 0
M  V30 33 H -0.188947 -1.412223 1.032091 0
M  V30 34 H 1.721268 2.095336 -2.680170 0
M  V30 35 H 1.214685 3.829499 -1.048693 0
M  V30 36 H -0.644985 0.224150 2.519048 0
M  V30 37 H -1.906874 3.247416 3.739737 0
M  V30 38 H -1.106689 1.787936 4.446015 0
M  V30 39 H 0.239475 3.335504 5.550558 0
M  V30 40 H 1.150930 3.246973 4.048948 0
M  V30 41 H -0.970502 5.317757 4.674621 0
M  V30 42 H 0.852797 5.474612 4.801643 0
M  V30 43 H 0.339289 6.413407 2.753146 0
M  V30 44 H 1.735580 -0.226465 -3.278186 0
M  V30 45 H -0.543486 -3.382858 1.400577 0
M  V30 46 H -0.914078 -5.734395 1.715051 0
M  V30 END ATOM
M  V30 BEGIN BOND
M  V30 1 1 1 2
M  V30 2 1 2 3
M  V30 3 2 3 4
M  V30 4 1 4 5
M  V30 5 2 5 6
M  V30 6 1 6 7
M  V30 7 2 7 8
M  V30 8 1 8 9
M  V30 9 2 9 10
M  V30 10 1 10 11
M  V30 11 2 11 12
M  V30 12 1 12 13
M  V30 13 1 13 14
M  V30 14 2 14 15
M  V30 15 1 15 16
M  V30 16 1 16 17
M  V30 17 1 15 18
M  V30 18 1 18 19
M  V30 19 1 19 20
M  V30 20 1 20 21
M  V30 21 1 21 22
M  V30 22 2 22 23
M  V30 23 1 10 24
M  V30 24 2 24 25
M  V30 25 1 6 26
M  V30 26 2 26 27
M  V30 27 1 27 3
M  V30 28 1 25 7
M  V30 29 1 17 9
M  V30 30 2 17 13
M  V30 31 1 22 14
M  V30 32 1 1 28
M  V30 33 1 1 29
M  V30 34 1 1 30
M  V30 35 1 4 31
M  V30 36 1 5 32
M  V30 37 1 8 33
M  V30 38 1 11 34
M  V30 39 1 12 35
M  V30 40 1 16 36
M  V30 41 1 18 37
M  V30 42 1 18 38
M  V30 43 1 19 39
M  V30 44 1 19 40
M  V30 45 1 20 41
M  V30 46 1 20 42
M  V30 47 1 21 43
M  V30 48 1 24 44
M  V30 49 1 26 45
M  V30 50 1 27 46
M  V30 END BOND
M  V30 END CTAB
M  END
>  <Dataset>  (143) 
ChEMBL_Kinases

>  <Ligand_Instance>  (143) 
nan

>  <PDB_ID>  (143) 
nan

>  <Standardized_SMILES>  (143) 
COc1ccc(-c2cc3c(ccc4c5c([nH]c43)CCCNC5=O)cn2)cc1

>  <Name>  (143) 
nan

>  <Pocket>  (143) 
nan

>  <ATP_Site>  (143) 
nan

>  <Peripheral>  (143) 
nan

>  <Num_H_Atoms_ProtBoundConf>  (143) 
nan

>  <Num_Resolved_Atoms>  (143) 
nan

>  <Num_Not_Resolved_Atoms>  (143) 
nan

$$$$
CHEMBL1801090
     RDKit          3D

  0  0  0  0  0  0  0  0  0  0999 V3000
M  V30 BEGIN CTAB
M  V30 COUNTS 52 56 0 0 0
M  V30 BEGIN ATOM
M  V30 1 C 5.900820 -4.299842 2.415540 0
M  V30 2 O 5.380712 -3.633918 1.307414 0
M  V30 3 C 6.355300 -2.774761 0.748266 0
M  V30 4 C 5.679806 -2.120044 -0.427986 0
M  V30 5 O 4.579117 -1.414597 -0.029132 0
M  V30 6 C 4.375676 -0.346112 0.778715 0
M  V30 7 C 5.169840 0.492413 1.527677 0
M  V30 8 N 4.664199 1.500949 2.256223 0
M  V30 9 C 3.336872 1.754249 2.296932 0
M  V30 10 C 2.457538 0.956525 1.569029 0
M  V30 11 C 1.047358 1.296975 1.667701 0
M  V30 12 C 0.012291 0.645908 1.035974 0
M  V30 13 C -1.316558 0.992989 1.149542 0
M  V30 14 C -1.662597 2.064635 1.946081 0
M  V30 15 C -2.973518 2.463959 2.102634 0
M  V30 16 C -3.985598 1.765123 1.436323 0
M  V30 17 C -3.594900 0.718903 0.664956 0
M  V30 18 C -4.347024 -0.155856 -0.108009 0
M  V30 19 C -3.530361 -1.080096 -0.733493 0
M  V30 20 N -2.272227 -0.788437 -0.356235 0
M  V30 21 C -2.294444 0.272787 0.470590 0
M  V30 22 C -3.796667 -2.209832 -1.648098 0
M  V30 23 C -5.200325 -2.245523 -2.165160 0
M  V30 24 C -6.251606 -2.482597 -1.128443 0
M  V30 25 N -6.678980 -1.149601 -0.673120 0
M  V30 26 C -5.799765 -0.112522 -0.246529 0
M  V30 27 O -6.338607 0.962418 0.043416 0
M  V30 28 C -0.615235 2.707100 2.572541 0
M  V30 29 N 0.685075 2.336609 2.437290 0
M  V30 30 C 3.003197 -0.072726 0.829391 0
M  V30 31 H 5.095162 -4.953247 2.806665 0
M  V30 32 H 6.102454 -3.541252 3.191565 0
M  V30 33 H 6.771979 -4.929951 2.167434 0
M  V30 34 H 7.251628 -3.359825 0.444909 0
M  V30 35 H 6.649797 -2.003132 1.469702 0
M  V30 36 H 5.460330 -2.913837 -1.184815 0
M  V30 37 H 6.460182 -1.426167 -0.872398 0
M  V30 38 H 6.217428 0.257681 1.452940 0
M  V30 39 H 3.097391 2.590835 2.922601 0
M  V30 40 H 0.240499 -0.194477 0.406199 0
M  V30 41 H -3.219542 3.304928 2.730743 0
M  V30 42 H -4.982841 2.093488 1.574653 0
M  V30 43 H -1.349217 -1.251688 -0.608796 0
M  V30 44 H -3.514712 -3.187106 -1.206826 0
M  V30 45 H -3.140583 -2.066193 -2.535017 0
M  V30 46 H -5.382603 -1.278745 -2.707872 0
M  V30 47 H -5.219157 -3.015317 -2.976709 0
M  V30 48 H -7.096669 -3.094055 -1.435499 0
M  V30 49 H -5.739001 -3.027605 -0.284842 0
M  V30 50 H -7.695412 -0.905040 -0.645585 0
M  V30 51 H -0.842437 3.565447 3.216470 0
M  V30 52 H 2.210276 -0.606362 0.318136 0
M  V30 END ATOM
M  V30 BEGIN BOND
M  V30 1 1 1 2
M  V30 2 1 2 3
M  V30 3 1 3 4
M  V30 4 1 4 5
M  V30 5 1 5 6
M  V30 6 2 6 7
M  V30 7 1 7 8
M  V30 8 2 8 9
M  V30 9 1 9 10
M  V30 10 1 10 11
M  V30 11 2 11 12
M  V30 12 1 12 13
M  V30 13 2 13 14
M  V30 14 1 14 15
M  V30 15 2 15 16
M  V30 16 1 16 17
M  V30 17 1 17 18
M  V30 18 2 18 19
M  V30 19 1 19 20
M  V30 20 1 20 21
M  V30 21 1 19 22
M  V30 22 1 22 23
M  V30 23 1 23 24
M  V30 24 1 24 25
M  V30 25 1 25 26
M  V30 26 2 26 27
M  V30 27 1 14 28
M  V30 28 2 28 29
M  V30 29 2 10 30
M  V30 30 1 30 6
M  V30 31 1 29 11
M  V30 32 1 21 13
M  V30 33 2 21 17
M  V30 34 1 26 18
M  V30 35 1 1 31
M  V30 36 1 1 32
M  V30 37 1 1 33
M  V30 38 1 3 34
M  V30 39 1 3 35
M  V30 40 1 4 36
M  V30 41 1 4 37
M  V30 42 1 7 38
M  V30 43 1 9 39
M  V30 44 1 12 40
M  V30 45 1 15 41
M  V30 46 1 16 42
M  V30 47 1 20 43
M  V30 48 1 22 44
M  V30 49 1 22 45
M  V30 50 1 23 46
M  V30 51 1 23 47
M  V30 52 1 24 48
M  V30 53 1 24 49
M  V30 54 1 25 50
M  V30 55 1 28 51
M  V30 56 1 30 52
M  V30 END BOND
M  V30 END CTAB
M  END
>  <Dataset>  (144) 
ChEMBL_Kinases

>  <Ligand_Instance>  (144) 
nan

>  <PDB_ID>  (144) 
nan

>  <Standardized_SMILES>  (144) 
COCCOc1cncc(-c2cc3c(ccc4c5c([nH]c43)CCCNC5=O)cn2)c1

>  <Name>  (144) 
nan

>  <Pocket>  (144) 
nan

>  <ATP_Site>  (144) 
nan

>  <Peripheral>  (144) 
nan

>  <Num_H_Atoms_ProtBoundConf>  (144) 
nan

>  <Num_Resolved_Atoms>  (144) 
nan

>  <Num_Not_Resolved_Atoms>  (144) 
nan

$$$$
CHEMBL1800221
     RDKit          3D

  0  0  0  0  0  0  0  0  0  0999 V3000
M  V30 BEGIN CTAB
M  V30 COUNTS 53 57 0 0 0
M  V30 BEGIN ATOM
M  V30 1 C -2.240566 0.562120 4.053566 0
M  V30 2 C -0.941368 0.996540 3.475888 0
M  V30 3 C -0.285251 2.061762 4.058454 0
M  V30 4 C 0.933824 2.444789 3.491031 0
M  V30 5 C 1.487057 1.807544 2.395185 0
M  V30 6 C 2.766093 2.278462 1.871213 0
M  V30 7 O 3.278045 3.257217 2.478301 0
M  V30 8 N 3.379821 1.672915 0.760346 0
M  V30 9 C 4.615876 2.028118 0.150742 0
M  V30 10 C 4.583870 2.958799 -0.869673 0
M  V30 11 C 5.654481 3.426025 -1.573605 0
M  V30 12 C 6.896123 2.901423 -1.214225 0
M  V30 13 C 6.937591 1.958961 -0.182487 0
M  V30 14 N 5.834596 1.545514 0.467864 0
M  V30 15 C 0.772914 0.751832 1.868298 0
M  V30 16 C -0.434500 0.325920 2.382181 0
M  V30 17 C -1.111600 -0.807242 1.745881 0
M  V30 18 C -1.121357 -0.717350 0.350704 0
M  V30 19 C -1.711360 -1.686959 -0.435423 0
M  V30 20 C -2.301834 -2.766195 0.198136 0
M  V30 21 C -2.297804 -2.863818 1.563771 0
M  V30 22 C -1.706464 -1.891384 2.343494 0
M  V30 23 N -2.957145 -4.046436 1.978106 0
M  V30 24 C -3.389228 -4.710412 0.800880 0
M  V30 25 O -4.020338 -5.807467 0.741787 0
M  V30 26 C -2.989655 -3.921060 -0.398536 0
M  V30 27 C -2.114379 -4.703338 -1.326386 0
M  V30 28 C -2.719475 -4.665598 -2.696827 0
M  V30 29 C -3.846321 -3.672875 -2.657912 0
M  V30 30 C -4.210683 -3.502707 -1.193154 0
M  V30 31 H -2.751073 1.477394 4.434312 0
M  V30 32 H -2.940185 0.140519 3.302640 0
M  V30 33 H -2.102475 -0.079703 4.943711 0
M  V30 34 H -0.715187 2.560550 4.913750 0
M  V30 35 H 1.398336 3.289991 3.997597 0
M  V30 36 H 2.958103 0.867528 0.261130 0
M  V30 37 H 3.619859 3.384556 -1.169044 0
M  V30 38 H 5.563636 4.157640 -2.364182 0
M  V30 39 H 7.805669 3.207715 -1.712317 0
M  V30 40 H 7.884742 1.516574 0.138205 0
M  V30 41 H 1.172685 0.233976 1.017126 0
M  V30 42 H -0.669089 0.114892 -0.207768 0
M  V30 43 H -1.713478 -1.607721 -1.517691 0
M  V30 44 H -1.653807 -1.882233 3.423388 0
M  V30 45 H -3.126698 -4.416917 2.950579 0
M  V30 46 H -1.944175 -5.763464 -0.999441 0
M  V30 47 H -1.110058 -4.188425 -1.334467 0
M  V30 48 H -1.975189 -4.322366 -3.452591 0
M  V30 49 H -3.090596 -5.691555 -2.986907 0
M  V30 50 H -3.565693 -2.685085 -3.107186 0
M  V30 51 H -4.735259 -4.018201 -3.228839 0
M  V30 52 H -5.085718 -4.114602 -0.898099 0
M  V30 53 H -4.379253 -2.410142 -0.963905 0
M  V30 END ATOM
M  V30 BEGIN BOND
M  V30 1 1 1 2
M  V30 2 2 2 3
M  V30 3 1 3 4
M  V30 4 2 4 5
M  V30 5 1 5 6
M  V30 6 2 6 7
M  V30 7 1 6 8
M  V30 8 1 8 9
M  V30 9 2 9 10
M  V30 10 1 10 11
M  V30 11 2 11 12
M  V30 12 1 12 13
M  V30 13 2 13 14
M  V30 14 1 5 15
M  V30 15 2 15 16
M  V30 16 1 16 17
M  V30 17 2 17 18
M  V30 18 1 18 19
M  V30 19 2 19 20
M  V30 20 1 20 21
M  V30 21 2 21 22
M  V30 22 1 21 23
M  V30 23 1 23 24
M  V30 24 2 24 25
M  V30 25 1 24 26
M  V30 26 1 26 27
M  V30 27 1 27 28
M  V30 28 1 28 29
M  V30 29 1 29 30
M  V30 30 1 16 2
M  V30 31 1 22 17
M  V30 32 1 30 26
M  V30 33 1 14 9
M  V30 34 1 26 20
M  V30 35 1 1 31
M  V30 36 1 1 32
M  V30 37 1 1 33
M  V30 38 1 3 34
M  V30 39 1 4 35
M  V30 40 1 8 36
M  V30 41 1 10 37
M  V30 42 1 11 38
M  V30 43 1 12 39
M  V30 44 1 13 40
M  V30 45 1 15 41
M  V30 46 1 18 42
M  V30 47 1 19 43
M  V30 48 1 22 44
M  V30 49 1 23 45
M  V30 50 1 27 46
M  V30 51 1 27 47
M  V30 52 1 28 48
M  V30 53 1 28 49
M  V30 54 1 29 50
M  V30 55 1 29 51
M  V30 56 1 30 52
M  V30 57 1 30 53
M  V30 END BOND
M  V30 END CTAB
M  END
>  <Dataset>  (145) 
ChEMBL_Kinases

>  <Ligand_Instance>  (145) 
nan

>  <PDB_ID>  (145) 
nan

>  <Standardized_SMILES>  (145) 
Cc1ccc(C(=O)Nc2ccccn2)cc1-c1ccc2c(c1)NC(=O)C21CCCC1

>  <Name>  (145) 
nan

>  <Pocket>  (145) 
nan

>  <ATP_Site>  (145) 
nan

>  <Peripheral>  (145) 
nan

>  <Num_H_Atoms_ProtBoundConf>  (145) 
nan

>  <Num_Resolved_Atoms>  (145) 
nan

>  <Num_Not_Resolved_Atoms>  (145) 
nan

$$$$
CHEMBL1800222
     RDKit          3D

  0  0  0  0  0  0  0  0  0  0999 V3000
M  V30 BEGIN CTAB
M  V30 COUNTS 50 54 0 0 0
M  V30 BEGIN ATOM
M  V30 1 C -0.957793 1.384722 3.862945 0
M  V30 2 C 0.204134 1.711592 2.999148 0
M  V30 3 C 1.050848 2.726772 3.393520 0
M  V30 4 C 2.143912 3.025781 2.571446 0
M  V30 5 C 2.360816 2.322034 1.404097 0
M  V30 6 C 3.523629 2.686753 0.590960 0
M  V30 7 O 4.242047 3.621647 1.021910 0
M  V30 8 N 3.851827 2.041813 -0.622291 0
M  V30 9 C 4.967395 2.364566 -1.438090 0
M  V30 10 C 6.243747 1.841302 -1.383387 0
M  V30 11 C 7.045375 2.429157 -2.363672 0
M  V30 12 O 6.248576 3.269414 -2.966446 0
M  V30 13 N 5.062633 3.255803 -2.463947 0
M  V30 14 C 1.479064 1.316518 1.061369 0
M  V30 15 C 0.383954 0.985522 1.843602 0
M  V30 16 C -0.490312 -0.093281 1.394398 0
M  V30 17 C -1.869161 -0.155498 1.345742 0
M  V30 18 C -2.481119 -1.292042 0.878731 0
M  V30 19 C -1.796085 -2.394235 0.447765 0
M  V30 20 C -0.414613 -2.362804 0.484064 0
M  V30 21 C 0.214895 -1.220900 0.953543 0
M  V30 22 N 0.062889 -3.611528 -0.009247 0
M  V30 23 C -1.078061 -4.409751 -0.349318 0
M  V30 24 O -1.127219 -5.576992 -0.818858 0
M  V30 25 C -2.353601 -3.658456 -0.069509 0
M  V30 26 C -3.222686 -3.514892 -1.261787 0
M  V30 27 C -4.604434 -3.894854 -0.820528 0
M  V30 28 C -4.514776 -4.438696 0.587123 0
M  V30 29 C -3.067636 -4.423933 0.991413 0
M  V30 30 H -1.224846 0.304195 3.780505 0
M  V30 31 H -1.814794 2.051179 3.650377 0
M  V30 32 H -0.670853 1.586285 4.922912 0
M  V30 33 H 0.882606 3.282444 4.311860 0
M  V30 34 H 2.770674 3.829429 2.932064 0
M  V30 35 H 3.255597 1.264553 -0.981748 0
M  V30 36 H 6.602737 1.091937 -0.701376 0
M  V30 37 H 8.095892 2.185844 -2.526048 0
M  V30 38 H 1.638762 0.760535 0.152044 0
M  V30 39 H -2.333547 0.752112 1.701838 0
M  V30 40 H -3.559208 -1.222096 0.888342 0
M  V30 41 H 1.313840 -1.280859 0.948299 0
M  V30 42 H 1.042569 -3.916200 -0.114818 0
M  V30 43 H -3.269161 -2.520771 -1.711041 0
M  V30 44 H -2.888566 -4.270099 -2.029656 0
M  V30 45 H -5.336374 -3.063296 -0.834355 0
M  V30 46 H -5.044054 -4.700254 -1.465863 0
M  V30 47 H -5.093648 -3.797726 1.286339 0
M  V30 48 H -4.957740 -5.448819 0.660095 0
M  V30 49 H -2.725071 -5.492046 1.035070 0
M  V30 50 H -2.891537 -3.973312 1.999731 0
M  V30 END ATOM
M  V30 BEGIN BOND
M  V30 1 1 1 2
M  V30 2 2 2 3
M  V30 3 1 3 4
M  V30 4 2 4 5
M  V30 5 1 5 6
M  V30 6 2 6 7
M  V30 7 1 6 8
M  V30 8 1 8 9
M  V30 9 1 9 10
M  V30 10 2 10 11
M  V30 11 1 11 12
M  V30 12 1 12 13
M  V30 13 1 5 14
M  V30 14 2 14 15
M  V30 15 1 15 16
M  V30 16 2 16 17
M  V30 17 1 17 18
M  V30 18 2 18 19
M  V30 19 1 19 20
M  V30 20 2 20 21
M  V30 21 1 20 22
M  V30 22 1 22 23
M  V30 23 2 23 24
M  V30 24 1 23 25
M  V30 25 1 25 26
M  V30 26 1 26 27
M  V30 27 1 27 28
M  V30 28 1 28 29
M  V30 29 1 15 2
M  V30 30 1 21 16
M  V30 31 1 29 25
M  V30 32 2 13 9
M  V30 33 1 25 19
M  V30 34 1 1 30
M  V30 35 1 1 31
M  V30 36 1 1 32
M  V30 37 1 3 33
M  V30 38 1 4 34
M  V30 39 1 8 35
M  V30 40 1 10 36
M  V30 41 1 11 37
M  V30 42 1 14 38
M  V30 43 1 17 39
M  V30 44 1 18 40
M  V30 45 1 21 41
M  V30 46 1 22 42
M  V30 47 1 26 43
M  V30 48 1 26 44
M  V30 49 1 27 45
M  V30 50 1 27 46
M  V30 51 1 28 47
M  V30 52 1 28 48
M  V30 53 1 29 49
M  V30 54 1 29 50
M  V30 END BOND
M  V30 END CTAB
M  END
>  <Dataset>  (146) 
ChEMBL_Kinases

>  <Ligand_Instance>  (146) 
nan

>  <PDB_ID>  (146) 
nan

>  <Standardized_SMILES>  (146) 
Cc1ccc(C(=O)Nc2ccon2)cc1-c1ccc2c(c1)NC(=O)C21CCCC1

>  <Name>  (146) 
nan

>  <Pocket>  (146) 
nan

>  <ATP_Site>  (146) 
nan

>  <Peripheral>  (146) 
nan

>  <Num_H_Atoms_ProtBoundConf>  (146) 
nan

>  <Num_Resolved_Atoms>  (146) 
nan

>  <Num_Not_Resolved_Atoms>  (146) 
nan

$$$$
CHEMBL1800223
     RDKit          3D

  0  0  0  0  0  0  0  0  0  0999 V3000
M  V30 BEGIN CTAB
M  V30 COUNTS 50 54 0 0 0
M  V30 BEGIN ATOM
M  V30 1 C -1.240572 1.849425 3.527064 0
M  V30 2 C -0.068431 2.081069 2.658998 0
M  V30 3 C 0.728724 3.186969 2.872038 0
M  V30 4 C 1.831490 3.430332 2.079798 0
M  V30 5 C 2.117476 2.543057 1.071388 0
M  V30 6 C 3.286273 2.810099 0.239447 0
M  V30 7 O 3.970836 3.837619 0.487944 0
M  V30 8 N 3.706083 1.991014 -0.832202 0
M  V30 9 C 4.864402 2.334807 -1.589889 0
M  V30 10 N 5.420732 1.693207 -2.635008 0
M  V30 11 C 6.509198 2.338661 -3.074806 0
M  V30 12 N 6.637805 3.418760 -2.279136 0
M  V30 13 N 5.650562 3.409370 -1.393831 0
M  V30 14 C 1.309378 1.450645 0.879603 0
M  V30 15 C 0.186505 1.168193 1.656943 0
M  V30 16 C -0.612844 -0.019879 1.373012 0
M  V30 17 C -1.979703 -0.186691 1.276662 0
M  V30 18 C -2.487380 -1.432291 0.995927 0
M  V30 19 C -1.679068 -2.525340 0.806239 0
M  V30 20 C -0.314324 -2.391410 0.895633 0
M  V30 21 C 0.200695 -1.142470 1.177417 0
M  V30 22 N 0.222779 -3.685690 0.652029 0
M  V30 23 C -0.820454 -4.618418 0.411833 0
M  V30 24 O -0.647502 -5.852999 0.164131 0
M  V30 25 C -2.119993 -3.910092 0.499700 0
M  V30 26 C -2.876752 -4.012501 -0.805312 0
M  V30 27 C -4.177122 -4.698416 -0.535403 0
M  V30 28 C -4.039550 -5.342836 0.832585 0
M  V30 29 C -3.032871 -4.468794 1.560303 0
M  V30 30 H -1.022370 2.203579 4.576430 0
M  V30 31 H -2.123135 2.414212 3.118934 0
M  V30 32 H -1.547961 0.810722 3.639624 0
M  V30 33 H 0.464961 3.870828 3.688481 0
M  V30 34 H 2.399377 4.310071 2.309201 0
M  V30 35 H 3.164491 1.141516 -1.059686 0
M  V30 36 H 7.119258 1.998445 -3.914040 0
M  V30 37 H 7.419511 4.129303 -2.386432 0
M  V30 38 H 1.524446 0.740145 0.084714 0
M  V30 39 H -2.505466 0.743071 1.444276 0
M  V30 40 H -3.583525 -1.469381 0.938702 0
M  V30 41 H 1.301768 -1.150516 1.225526 0
M  V30 42 H 1.250364 -3.914700 0.651054 0
M  V30 43 H -2.270435 -4.647924 -1.512252 0
M  V30 44 H -2.989073 -3.039191 -1.324773 0
M  V30 45 H -5.057575 -4.027932 -0.577857 0
M  V30 46 H -4.396611 -5.530329 -1.247181 0
M  V30 47 H -3.650407 -6.369316 0.746654 0
M  V30 48 H -5.008176 -5.345661 1.382402 0
M  V30 49 H -2.530131 -5.083562 2.309798 0
M  V30 50 H -3.604161 -3.680217 2.102581 0
M  V30 END ATOM
M  V30 BEGIN BOND
M  V30 1 1 1 2
M  V30 2 2 2 3
M  V30 3 1 3 4
M  V30 4 2 4 5
M  V30 5 1 5 6
M  V30 6 2 6 7
M  V30 7 1 6 8
M  V30 8 1 8 9
M  V30 9 1 9 10
M  V30 10 2 10 11
M  V30 11 1 11 12
M  V30 12 1 12 13
M  V30 13 1 5 14
M  V30 14 2 14 15
M  V30 15 1 15 16
M  V30 16 2 16 17
M  V30 17 1 17 18
M  V30 18 2 18 19
M  V30 19 1 19 20
M  V30 20 2 20 21
M  V30 21 1 20 22
M  V30 22 1 22 23
M  V30 23 2 23 24
M  V30 24 1 23 25
M  V30 25 1 25 26
M  V30 26 1 26 27
M  V30 27 1 27 28
M  V30 28 1 28 29
M  V30 29 1 15 2
M  V30 30 1 21 16
M  V30 31 1 29 25
M  V30 32 2 13 9
M  V30 33 1 25 19
M  V30 34 1 1 30
M  V30 35 1 1 31
M  V30 36 1 1 32
M  V30 37 1 3 33
M  V30 38 1 4 34
M  V30 39 1 8 35
M  V30 40 1 11 36
M  V30 41 1 12 37
M  V30 42 1 14 38
M  V30 43 1 17 39
M  V30 44 1 18 40
M  V30 45 1 21 41
M  V30 46 1 22 42
M  V30 47 1 26 43
M  V30 48 1 26 44
M  V30 49 1 27 45
M  V30 50 1 27 46
M  V30 51 1 28 47
M  V30 52 1 28 48
M  V30 53 1 29 49
M  V30 54 1 29 50
M  V30 END BOND
M  V30 END CTAB
M  END
>  <Dataset>  (147) 
ChEMBL_Kinases

>  <Ligand_Instance>  (147) 
nan

>  <PDB_ID>  (147) 
nan

>  <Standardized_SMILES>  (147) 
Cc1ccc(C(=O)Nc2nc[nH]n2)cc1-c1ccc2c(c1)NC(=O)C21CCCC1

>  <Name>  (147) 
nan

>  <Pocket>  (147) 
nan

>  <ATP_Site>  (147) 
nan

>  <Peripheral>  (147) 
nan

>  <Num_H_Atoms_ProtBoundConf>  (147) 
nan

>  <Num_Resolved_Atoms>  (147) 
nan

>  <Num_Not_Resolved_Atoms>  (147) 
nan

$$$$
CHEMBL1800909
     RDKit          3D

  0  0  0  0  0  0  0  0  0  0999 V3000
M  V30 BEGIN CTAB
M  V30 COUNTS 47 50 0 0 0
M  V30 BEGIN ATOM
M  V30 1 C 1.546186 -1.427487 4.319018 0
M  V30 2 C 2.172017 -0.879154 3.087919 0
M  V30 3 C 3.513556 -0.559906 3.062923 0
M  V30 4 C 4.088742 -0.048340 1.917632 0
M  V30 5 C 3.303256 0.138089 0.801817 0
M  V30 6 C 3.959239 0.681734 -0.382965 0
M  V30 7 O 5.170549 0.950036 -0.341435 0
M  V30 8 N 3.307460 0.937140 -1.616580 0
M  V30 9 C 4.018352 1.474536 -2.743451 0
M  V30 10 C 3.306594 2.663430 -3.405939 0
M  V30 11 C 3.511704 1.364795 -4.124526 0
M  V30 12 C 1.977331 -0.186167 0.852781 0
M  V30 13 C 1.356081 -0.705506 1.989072 0
M  V30 14 C -0.068526 -1.014642 1.915562 0
M  V30 15 C -0.812150 0.011191 1.320415 0
M  V30 16 C -2.169125 -0.081230 1.153704 0
M  V30 17 C -2.848940 -1.190422 1.567593 0
M  V30 18 C -2.120300 -2.203564 2.154446 0
M  V30 19 C -0.762172 -2.132496 2.331305 0
M  V30 20 N -2.945092 -3.293174 2.536917 0
M  V30 21 C -4.272607 -2.913100 2.153821 0
M  V30 22 O -5.315094 -3.598621 2.313914 0
M  V30 23 C -4.281456 -1.585413 1.530519 0
M  V30 24 C -4.667199 -1.731997 0.077909 0
M  V30 25 C -5.164370 -0.600916 2.253461 0
M  V30 26 H 0.477877 -1.184774 4.365430 0
M  V30 27 H 1.634704 -2.546251 4.377081 0
M  V30 28 H 2.024437 -0.956299 5.219494 0
M  V30 29 H 4.063984 -0.735162 3.980032 0
M  V30 30 H 5.147351 0.174575 1.985739 0
M  V30 31 H 2.281456 0.722684 -1.690654 0
M  V30 32 H 5.086188 1.661628 -2.562044 0
M  V30 33 H 3.894247 3.547850 -3.657625 0
M  V30 34 H 2.272312 2.884667 -3.096396 0
M  V30 35 H 4.291169 1.440977 -4.924292 0
M  V30 36 H 2.661852 0.731579 -4.376445 0
M  V30 37 H 1.369056 -0.035593 -0.030066 0
M  V30 38 H -0.387500 0.935944 0.953404 0
M  V30 39 H -2.763872 0.714592 0.689217 0
M  V30 40 H -0.115950 -2.875387 2.777170 0
M  V30 41 H -2.694793 -4.194812 2.997548 0
M  V30 42 H -3.835431 -2.192983 -0.469159 0
M  V30 43 H -4.915890 -0.737258 -0.351971 0
M  V30 44 H -5.546686 -2.400032 -0.001180 0
M  V30 45 H -5.999547 -1.079902 2.811007 0
M  V30 46 H -5.622650 0.060855 1.487740 0
M  V30 47 H -4.536266 0.050017 2.911738 0
M  V30 END ATOM
M  V30 BEGIN BOND
M  V30 1 1 1 2
M  V30 2 2 2 3
M  V30 3 1 3 4
M  V30 4 2 4 5
M  V30 5 1 5 6
M  V30 6 2 6 7
M  V30 7 1 6 8
M  V30 8 1 8 9
M  V30 9 1 9 10
M  V30 10 1 10 11
M  V30 11 1 5 12
M  V30 12 2 12 13
M  V30 13 1 13 14
M  V30 14 2 14 15
M  V30 15 1 15 16
M  V30 16 2 16 17
M  V30 17 1 17 18
M  V30 18 2 18 19
M  V30 19 1 18 20
M  V30 20 1 20 21
M  V30 21 2 21 22
M  V30 22 1 21 23
M  V30 23 1 23 24
M  V30 24 1 23 25
M  V30 25 1 13 2
M  V30 26 1 19 14
M  V30 27 1 11 9
M  V30 28 1 23 17
M  V30 29 1 1 26
M  V30 30 1 1 27
M  V30 31 1 1 28
M  V30 32 1 3 29
M  V30 33 1 4 30
M  V30 34 1 8 31
M  V30 35 1 9 32
M  V30 36 1 10 33
M  V30 37 1 10 34
M  V30 38 1 11 35
M  V30 39 1 11 36
M  V30 40 1 12 37
M  V30 41 1 15 38
M  V30 42 1 16 39
M  V30 43 1 19 40
M  V30 44 1 20 41
M  V30 45 1 24 42
M  V30 46 1 24 43
M  V30 47 1 24 44
M  V30 48 1 25 45
M  V30 49 1 25 46
M  V30 50 1 25 47
M  V30 END BOND
M  V30 END CTAB
M  END
>  <Dataset>  (148) 
ChEMBL_Kinases

>  <Ligand_Instance>  (148) 
nan

>  <PDB_ID>  (148) 
nan

>  <Standardized_SMILES>  (148) 
Cc1ccc(C(=O)NC2CC2)cc1-c1ccc2c(c1)NC(=O)C2(C)C

>  <Name>  (148) 
nan

>  <Pocket>  (148) 
nan

>  <ATP_Site>  (148) 
nan

>  <Peripheral>  (148) 
nan

>  <Num_H_Atoms_ProtBoundConf>  (148) 
nan

>  <Num_Resolved_Atoms>  (148) 
nan

>  <Num_Not_Resolved_Atoms>  (148) 
nan

$$$$
CHEMBL1800910
     RDKit          3D

  0  0  0  0  0  0  0  0  0  0999 V3000
M  V30 BEGIN CTAB
M  V30 COUNTS 48 52 0 0 0
M  V30 BEGIN ATOM
M  V30 1 C 0.394216 0.104210 4.560690 0
M  V30 2 C 1.312903 0.325234 3.414241 0
M  V30 3 C 2.566899 0.785548 3.756416 0
M  V30 4 C 3.463892 1.006288 2.712727 0
M  V30 5 C 3.091576 0.767238 1.395852 0
M  V30 6 C 4.104770 1.030139 0.378925 0
M  V30 7 O 5.217568 1.442477 0.729964 0
M  V30 8 N 3.893721 0.840714 -1.008772 0
M  V30 9 C 4.932530 1.118356 -1.954813 0
M  V30 10 C 5.006684 0.471432 -3.281274 0
M  V30 11 C 4.432617 1.876842 -3.187923 0
M  V30 12 C 1.829987 0.311554 1.139470 0
M  V30 13 C 0.888317 0.070719 2.126860 0
M  V30 14 C -0.452921 -0.415577 1.817454 0
M  V30 15 C -1.679643 0.001327 2.290157 0
M  V30 16 C -2.821518 -0.628174 1.839684 0
M  V30 17 C -2.753817 -1.661993 0.928919 0
M  V30 18 C -1.538195 -2.097486 0.440855 0
M  V30 19 C -0.397352 -1.465194 0.893926 0
M  V30 20 N -1.863509 -3.154218 -0.455337 0
M  V30 21 C -3.276216 -3.360269 -0.511394 0
M  V30 22 O -3.865442 -4.218527 -1.210773 0
M  V30 23 C -3.932507 -2.389059 0.396427 0
M  V30 24 C -4.869727 -2.936345 1.418679 0
M  V30 25 C -6.024299 -2.326127 0.653404 0
M  V30 26 C -5.019799 -1.546592 -0.168172 0
M  V30 27 H -0.300317 -0.730793 4.293050 0
M  V30 28 H 0.955383 -0.263760 5.461872 0
M  V30 29 H -0.118916 1.024917 4.874609 0
M  V30 30 H 2.865563 0.974400 4.778344 0
M  V30 31 H 4.459127 1.372496 2.994577 0
M  V30 32 H 2.957208 0.490577 -1.342160 0
M  V30 33 H 5.892338 1.486285 -1.503350 0
M  V30 34 H 6.016264 0.459170 -3.764088 0
M  V30 35 H 4.381260 -0.372840 -3.574510 0
M  V30 36 H 5.029323 2.736832 -3.549157 0
M  V30 37 H 3.353894 1.917730 -3.378107 0
M  V30 38 H 1.573993 0.137639 0.120350 0
M  V30 39 H -1.592227 0.816572 2.995010 0
M  V30 40 H -3.727856 -0.210730 2.284713 0
M  V30 41 H 0.511043 -1.886650 0.445108 0
M  V30 42 H -1.136411 -3.696233 -0.993625 0
M  V30 43 H -4.680883 -2.459692 2.416359 0
M  V30 44 H -4.894186 -4.038826 1.523696 0
M  V30 45 H -6.686564 -1.674223 1.282261 0
M  V30 46 H -6.592051 -3.098787 0.104197 0
M  V30 47 H -5.175361 -1.623953 -1.269536 0
M  V30 48 H -4.987332 -0.479860 0.178921 0
M  V30 END ATOM
M  V30 BEGIN BOND
M  V30 1 1 1 2
M  V30 2 2 2 3
M  V30 3 1 3 4
M  V30 4 2 4 5
M  V30 5 1 5 6
M  V30 6 2 6 7
M  V30 7 1 6 8
M  V30 8 1 8 9
M  V30 9 1 9 10
M  V30 10 1 10 11
M  V30 11 1 5 12
M  V30 12 2 12 13
M  V30 13 1 13 14
M  V30 14 2 14 15
M  V30 15 1 15 16
M  V30 16 2 16 17
M  V30 17 1 17 18
M  V30 18 2 18 19
M  V30 19 1 18 20
M  V30 20 1 20 21
M  V30 21 2 21 22
M  V30 22 1 21 23
M  V30 23 1 23 24
M  V30 24 1 24 25
M  V30 25 1 25 26
M  V30 26 1 13 2
M  V30 27 1 19 14
M  V30 28 1 26 23
M  V30 29 1 11 9
M  V30 30 1 23 17
M  V30 31 1 1 27
M  V30 32 1 1 28
M  V30 33 1 1 29
M  V30 34 1 3 30
M  V30 35 1 4 31
M  V30 36 1 8 32
M  V30 37 1 9 33
M  V30 38 1 10 34
M  V30 39 1 10 35
M  V30 40 1 11 36
M  V30 41 1 11 37
M  V30 42 1 12 38
M  V30 43 1 15 39
M  V30 44 1 16 40
M  V30 45 1 19 41
M  V30 46 1 20 42
M  V30 47 1 24 43
M  V30 48 1 24 44
M  V30 49 1 25 45
M  V30 50 1 25 46
M  V30 51 1 26 47
M  V30 52 1 26 48
M  V30 END BOND
M  V30 END CTAB
M  END
>  <Dataset>  (149) 
ChEMBL_Kinases

>  <Ligand_Instance>  (149) 
nan

>  <PDB_ID>  (149) 
nan

>  <Standardized_SMILES>  (149) 
Cc1ccc(C(=O)NC2CC2)cc1-c1ccc2c(c1)NC(=O)C21CCC1

>  <Name>  (149) 
nan

>  <Pocket>  (149) 
nan

>  <ATP_Site>  (149) 
nan

>  <Peripheral>  (149) 
nan

>  <Num_H_Atoms_ProtBoundConf>  (149) 
nan

>  <Num_Resolved_Atoms>  (149) 
nan

>  <Num_Not_Resolved_Atoms>  (149) 
nan

$$$$
CHEMBL1800913
     RDKit          3D

  0  0  0  0  0  0  0  0  0  0999 V3000
M  V30 BEGIN CTAB
M  V30 COUNTS 48 52 0 0 0
M  V30 BEGIN ATOM
M  V30 1 O 5.760599 -2.113476 -0.278189 0
M  V30 2 C 4.506497 -2.081535 -0.182385 0
M  V30 3 N 3.714388 -3.233757 -0.436603 0
M  V30 4 C 4.388738 -4.470208 -0.815413 0
M  V30 5 C 3.752850 -5.717043 -0.163695 0
M  V30 6 C 3.656326 -5.464083 -1.627143 0
M  V30 7 C 3.914933 -0.802782 0.202042 0
M  V30 8 C 4.757630 0.264989 0.429938 0
M  V30 9 C 4.205735 1.496959 0.799085 0
M  V30 10 C 2.851826 1.697669 0.947301 0
M  V30 11 Cl 2.252585 3.254747 1.407048 0
M  V30 12 C 2.022753 0.620948 0.716050 0
M  V30 13 C 0.577405 0.761206 0.854343 0
M  V30 14 C -0.032515 -0.285410 1.553489 0
M  V30 15 C -1.414361 -0.254704 1.745548 0
M  V30 16 C -2.147064 0.806473 1.241861 0
M  V30 17 C -1.520937 1.826757 0.555518 0
M  V30 18 C -0.155540 1.817477 0.353538 0
M  V30 19 N -2.447687 2.822877 0.119034 0
M  V30 20 C -3.715092 2.361556 0.578864 0
M  V30 21 O -4.833043 2.928731 0.420065 0
M  V30 22 C -3.616466 1.068674 1.312997 0
M  V30 23 C -4.408288 -0.021798 0.649914 0
M  V30 24 C -5.557401 -0.326897 1.577951 0
M  V30 25 C -5.573985 0.801479 2.600178 0
M  V30 26 C -4.111209 1.162295 2.716682 0
M  V30 27 C 2.560544 -0.593768 0.352518 0
M  V30 28 H 2.674859 -3.202199 -0.355835 0
M  V30 29 H 5.479637 -4.419070 -0.877569 0
M  V30 30 H 2.802585 -5.589514 0.383179 0
M  V30 31 H 4.443180 -6.479064 0.257566 0
M  V30 32 H 2.675923 -5.262258 -2.092978 0
M  V30 33 H 4.276612 -6.157948 -2.259708 0
M  V30 34 H 5.830581 0.195330 0.336468 0
M  V30 35 H 4.876303 2.333421 0.976890 0
M  V30 36 H 0.460268 -1.140076 1.973948 0
M  V30 37 H -1.931035 -1.039882 2.279027 0
M  V30 38 H 0.366170 2.597069 -0.177491 0
M  V30 39 H -2.264880 3.691851 -0.412303 0
M  V30 40 H -4.808819 0.289958 -0.343733 0
M  V30 41 H -3.739941 -0.910670 0.518274 0
M  V30 42 H -6.544629 -0.327299 1.100874 0
M  V30 43 H -5.360813 -1.298681 2.078974 0
M  V30 44 H -6.170041 1.649190 2.237022 0
M  V30 45 H -5.972382 0.425823 3.578809 0
M  V30 46 H -3.613961 0.376428 3.323382 0
M  V30 47 H -4.013185 2.172847 3.156400 0
M  V30 48 H 1.888371 -1.399845 0.182993 0
M  V30 END ATOM
M  V30 BEGIN BOND
M  V30 1 2 1 2
M  V30 2 1 2 3
M  V30 3 1 3 4
M  V30 4 1 4 5
M  V30 5 1 5 6
M  V30 6 1 2 7
M  V30 7 2 7 8
M  V30 8 1 8 9
M  V30 9 2 9 10
M  V30 10 1 10 11
M  V30 11 1 10 12
M  V30 12 1 12 13
M  V30 13 2 13 14
M  V30 14 1 14 15
M  V30 15 2 15 16
M  V30 16 1 16 17
M  V30 17 2 17 18
M  V30 18 1 17 19
M  V30 19 1 19 20
M  V30 20 2 20 21
M  V30 21 1 20 22
M  V30 22 1 22 23
M  V30 23 1 23 24
M  V30 24 1 24 25
M  V30 25 1 25 26
M  V30 26 2 12 27
M  V30 27 1 6 4
M  V30 28 1 27 7
M  V30 29 1 18 13
M  V30 30 1 26 22
M  V30 31 1 22 16
M  V30 32 1 3 28
M  V30 33 1 4 29
M  V30 34 1 5 30
M  V30 35 1 5 31
M  V30 36 1 6 32
M  V30 37 1 6 33
M  V30 38 1 8 34
M  V30 39 1 9 35
M  V30 40 1 14 36
M  V30 41 1 15 37
M  V30 42 1 18 38
M  V30 43 1 19 39
M  V30 44 1 23 40
M  V30 45 1 23 41
M  V30 46 1 24 42
M  V30 47 1 24 43
M  V30 48 1 25 44
M  V30 49 1 25 45
M  V30 50 1 26 46
M  V30 51 1 26 47
M  V30 52 1 27 48
M  V30 END BOND
M  V30 END CTAB
M  END
>  <Dataset>  (150) 
ChEMBL_Kinases

>  <Ligand_Instance>  (150) 
nan

>  <PDB_ID>  (150) 
nan

>  <Standardized_SMILES>  (150) 
O=C(NC1CC1)c1ccc(Cl)c(-c2ccc3c(c2)NC(=O)C32CCCC2)c1

>  <Name>  (150) 
nan

>  <Pocket>  (150) 
nan

>  <ATP_Site>  (150) 
nan

>  <Peripheral>  (150) 
nan

>  <Num_H_Atoms_ProtBoundConf>  (150) 
nan

>  <Num_Resolved_Atoms>  (150) 
nan

>  <Num_Not_Resolved_Atoms>  (150) 
nan

$$$$
CHEMBL1800914
     RDKit          3D

  0  0  0  0  0  0  0  0  0  0999 V3000
M  V30 BEGIN CTAB
M  V30 COUNTS 48 52 0 0 0
M  V30 BEGIN ATOM
M  V30 1 O 3.789926 -3.554050 2.230847 0
M  V30 2 C 3.110694 -3.063612 1.301872 0
M  V30 3 N 3.416047 -3.395090 -0.039683 0
M  V30 4 C 4.495276 -4.291495 -0.415558 0
M  V30 5 C 4.397289 -5.200492 -1.572630 0
M  V30 6 C 5.353051 -4.022688 -1.594708 0
M  V30 7 C 2.021109 -2.159653 1.662684 0
M  V30 8 C 1.829605 -1.912318 3.021985 0
M  V30 9 C 0.803798 -1.056209 3.431022 0
M  V30 10 C -0.041952 -0.434649 2.532636 0
M  V30 11 C 0.187598 -0.711776 1.188462 0
M  V30 12 C -0.719114 -0.042878 0.253915 0
M  V30 13 C -1.035655 -0.674652 -0.931830 0
M  V30 14 C -1.874892 -0.156848 -1.899021 0
M  V30 15 C -2.417640 1.099431 -1.609867 0
M  V30 16 C -2.143184 1.793996 -0.436152 0
M  V30 17 C -1.282301 1.194464 0.488029 0
M  V30 18 N -2.844659 3.032917 -0.446391 0
M  V30 19 C -3.580074 3.100211 -1.678600 0
M  V30 20 O -4.289683 4.124526 -1.919577 0
M  V30 21 C -3.345051 1.875076 -2.473629 0
M  V30 22 C -4.594003 1.063569 -2.665160 0
M  V30 23 C -4.917825 1.069909 -4.147773 0
M  V30 24 C -4.102903 2.254473 -4.669728 0
M  V30 25 C -2.836392 2.127381 -3.853066 0
M  V30 26 C 1.190633 -1.551952 0.743854 0
M  V30 27 H 2.860762 -2.995331 -0.826929 0
M  V30 28 H 5.040057 -4.687234 0.466427 0
M  V30 29 H 3.530720 -5.189616 -2.276144 0
M  V30 30 H 4.858719 -6.222416 -1.513679 0
M  V30 31 H 6.444572 -4.205109 -1.522269 0
M  V30 32 H 5.028697 -3.151484 -2.215822 0
M  V30 33 H 2.437781 -2.350092 3.804682 0
M  V30 34 H 0.629757 -0.843120 4.490396 0
M  V30 35 H -0.827344 0.222602 2.871488 0
M  V30 36 H -0.602424 -1.648864 -1.134059 0
M  V30 37 H -2.104028 -0.677000 -2.818948 0
M  V30 38 H -1.036414 1.697245 1.422144 0
M  V30 39 H -2.801332 3.737894 0.329454 0
M  V30 40 H -4.403964 0.001834 -2.400250 0
M  V30 41 H -5.442761 1.439941 -2.042752 0
M  V30 42 H -5.983973 1.163014 -4.369809 0
M  V30 43 H -4.512480 0.157022 -4.661070 0
M  V30 44 H -3.908716 2.151699 -5.756011 0
M  V30 45 H -4.654213 3.181824 -4.516642 0
M  V30 46 H -2.203402 3.038585 -3.938385 0
M  V30 47 H -2.294118 1.242092 -4.234366 0
M  V30 48 H 1.339453 -1.743011 -0.300431 0
M  V30 END ATOM
M  V30 BEGIN BOND
M  V30 1 2 1 2
M  V30 2 1 2 3
M  V30 3 1 3 4
M  V30 4 1 4 5
M  V30 5 1 5 6
M  V30 6 1 2 7
M  V30 7 2 7 8
M  V30 8 1 8 9
M  V30 9 2 9 10
M  V30 10 1 10 11
M  V30 11 1 11 12
M  V30 12 2 12 13
M  V30 13 1 13 14
M  V30 14 2 14 15
M  V30 15 1 15 16
M  V30 16 2 16 17
M  V30 17 1 16 18
M  V30 18 1 18 19
M  V30 19 2 19 20
M  V30 20 1 19 21
M  V30 21 1 21 22
M  V30 22 1 22 23
M  V30 23 1 23 24
M  V30 24 1 24 25
M  V30 25 2 11 26
M  V30 26 1 6 4
M  V30 27 1 26 7
M  V30 28 1 17 12
M  V30 29 1 25 21
M  V30 30 1 21 15
M  V30 31 1 3 27
M  V30 32 1 4 28
M  V30 33 1 5 29
M  V30 34 1 5 30
M  V30 35 1 6 31
M  V30 36 1 6 32
M  V30 37 1 8 33
M  V30 38 1 9 34
M  V30 39 1 10 35
M  V30 40 1 13 36
M  V30 41 1 14 37
M  V30 42 1 17 38
M  V30 43 1 18 39
M  V30 44 1 22 40
M  V30 45 1 22 41
M  V30 46 1 23 42
M  V30 47 1 23 43
M  V30 48 1 24 44
M  V30 49 1 24 45
M  V30 50 1 25 46
M  V30 51 1 25 47
M  V30 52 1 26 48
M  V30 END BOND
M  V30 END CTAB
M  END
>  <Dataset>  (151) 
ChEMBL_Kinases

>  <Ligand_Instance>  (151) 
nan

>  <PDB_ID>  (151) 
nan

>  <Standardized_SMILES>  (151) 
O=C(NC1CC1)c1cccc(-c2ccc3c(c2)NC(=O)C32CCCC2)c1

>  <Name>  (151) 
nan

>  <Pocket>  (151) 
nan

>  <ATP_Site>  (151) 
nan

>  <Peripheral>  (151) 
nan

>  <Num_H_Atoms_ProtBoundConf>  (151) 
nan

>  <Num_Resolved_Atoms>  (151) 
nan

>  <Num_Not_Resolved_Atoms>  (151) 
nan

$$$$
CHEMBL1800915
     RDKit          3D

  0  0  0  0  0  0  0  0  0  0999 V3000
M  V30 BEGIN CTAB
M  V30 COUNTS 48 52 0 0 0
M  V30 BEGIN ATOM
M  V30 1 O 4.887071 -2.924951 -2.055024 0
M  V30 2 C 3.786676 -2.795718 -1.509885 0
M  V30 3 N 2.942709 -3.935217 -1.399926 0
M  V30 4 C 3.283638 -5.258225 -1.887991 0
M  V30 5 C 2.894972 -6.392970 -1.006770 0
M  V30 6 C 2.213858 -6.180034 -2.343465 0
M  V30 7 C 3.410334 -1.478667 -1.006778 0
M  V30 8 C 4.325148 -0.457786 -1.179439 0
M  V30 9 C 4.076360 0.847714 -0.738683 0
M  V30 10 C 2.860294 1.103260 -0.108031 0
M  V30 11 C 1.947960 0.079588 0.062785 0
M  V30 12 C 0.686737 0.408648 0.732727 0
M  V30 13 C 0.068070 1.584367 0.305580 0
M  V30 14 C -1.126614 2.020037 0.847647 0
M  V30 15 C -1.695538 1.242668 1.839528 0
M  V30 16 C -1.114111 0.086372 2.279222 0
M  V30 17 C 0.092151 -0.347421 1.727355 0
M  V30 18 Cl 0.908503 -1.810619 2.225427 0
M  V30 19 C -2.968993 1.755862 2.381034 0
M  V30 20 C -2.974009 1.988409 3.844808 0
M  V30 21 C -4.390215 1.694505 4.287150 0
M  V30 22 C -5.181332 1.414608 3.035815 0
M  V30 23 C -4.137748 0.870461 2.083225 0
M  V30 24 C -3.128691 2.999590 1.570079 0
M  V30 25 O -4.059486 3.842531 1.617106 0
M  V30 26 N -2.010558 3.122975 0.667082 0
M  V30 27 C 2.212299 -1.203267 -0.379596 0
M  V30 28 H 2.010564 -3.852962 -0.944915 0
M  V30 29 H 4.279909 -5.367740 -2.379609 0
M  V30 30 H 3.481235 -7.312896 -0.909001 0
M  V30 31 H 2.265762 -6.192917 -0.095839 0
M  V30 32 H 2.457364 -6.879054 -3.146474 0
M  V30 33 H 1.146176 -5.885315 -2.318331 0
M  V30 34 H 5.284750 -0.601914 -1.662788 0
M  V30 35 H 4.809437 1.629133 -0.886162 0
M  V30 36 H 2.673462 2.114506 0.230641 0
M  V30 37 H 0.480218 2.228331 -0.473189 0
M  V30 38 H -1.473637 -0.589810 3.043810 0
M  V30 39 H -2.310296 1.221572 4.324761 0
M  V30 40 H -2.633455 2.992647 4.153242 0
M  V30 41 H -4.440362 0.775326 4.930223 0
M  V30 42 H -4.823531 2.523924 4.884261 0
M  V30 43 H -5.573746 2.365109 2.655853 0
M  V30 44 H -5.982525 0.664903 3.198664 0
M  V30 45 H -3.940193 -0.206117 2.240514 0
M  V30 46 H -4.487958 1.083087 1.041729 0
M  V30 47 H -1.788769 3.851502 -0.036599 0
M  V30 48 H 1.500135 -2.005245 -0.247051 0
M  V30 END ATOM
M  V30 BEGIN BOND
M  V30 1 2 1 2
M  V30 2 1 2 3
M  V30 3 1 3 4
M  V30 4 1 4 5
M  V30 5 1 5 6
M  V30 6 1 2 7
M  V30 7 2 7 8
M  V30 8 1 8 9
M  V30 9 2 9 10
M  V30 10 1 10 11
M  V30 11 1 11 12
M  V30 12 2 12 13
M  V30 13 1 13 14
M  V30 14 2 14 15
M  V30 15 1 15 16
M  V30 16 2 16 17
M  V30 17 1 17 18
M  V30 18 1 15 19
M  V30 19 1 19 20
M  V30 20 1 20 21
M  V30 21 1 21 22
M  V30 22 1 22 23
M  V30 23 1 19 24
M  V30 24 2 24 25
M  V30 25 1 24 26
M  V30 26 2 11 27
M  V30 27 1 6 4
M  V30 28 1 27 7
M  V30 29 1 17 12
M  V30 30 1 23 19
M  V30 31 1 26 14
M  V30 32 1 3 28
M  V30 33 1 4 29
M  V30 34 1 5 30
M  V30 35 1 5 31
M  V30 36 1 6 32
M  V30 37 1 6 33
M  V30 38 1 8 34
M  V30 39 1 9 35
M  V30 40 1 10 36
M  V30 41 1 13 37
M  V30 42 1 16 38
M  V30 43 1 20 39
M  V30 44 1 20 40
M  V30 45 1 21 41
M  V30 46 1 21 42
M  V30 47 1 22 43
M  V30 48 1 22 44
M  V30 49 1 23 45
M  V30 50 1 23 46
M  V30 51 1 26 47
M  V30 52 1 27 48
M  V30 END BOND
M  V30 END CTAB
M  END
>  <Dataset>  (152) 
ChEMBL_Kinases

>  <Ligand_Instance>  (152) 
nan

>  <PDB_ID>  (152) 
nan

>  <Standardized_SMILES>  (152) 
O=C(NC1CC1)c1cccc(-c2cc3c(cc2Cl)C2(CCCC2)C(=O)N3)c1

>  <Name>  (152) 
nan

>  <Pocket>  (152) 
nan

>  <ATP_Site>  (152) 
nan

>  <Peripheral>  (152) 
nan

>  <Num_H_Atoms_ProtBoundConf>  (152) 
nan

>  <Num_Resolved_Atoms>  (152) 
nan

>  <Num_Not_Resolved_Atoms>  (152) 
nan

$$$$
CHEMBL1801089
     RDKit          3D

  0  0  0  0  0  0  0  0  0  0999 V3000
M  V30 BEGIN CTAB
M  V30 COUNTS 61 66 0 0 0
M  V30 BEGIN ATOM
M  V30 1 O 3.906644 4.374801 4.145093 0
M  V30 2 C 4.218503 3.336287 3.489805 0
M  V30 3 N 5.584589 2.980474 3.323743 0
M  V30 4 C 6.286286 1.840459 2.781946 0
M  V30 5 C 5.431723 1.007555 1.870783 0
M  V30 6 C 4.302766 0.321664 2.605815 0
M  V30 7 C 3.105086 1.211097 2.533174 0
M  V30 8 N 1.844056 0.931380 2.087932 0
M  V30 9 C 1.086548 2.037167 2.203174 0
M  V30 10 C 1.830999 3.074565 2.728346 0
M  V30 11 C 1.317482 4.312747 2.951648 0
M  V30 12 C -0.026652 4.512703 2.624483 0
M  V30 13 C -0.811232 3.512064 2.098494 0
M  V30 14 C -2.138380 3.672983 1.762767 0
M  V30 15 N -2.887572 2.670237 1.244853 0
M  V30 16 C -2.343251 1.458789 1.038786 0
M  V30 17 C -3.184530 0.408842 0.478609 0
M  V30 18 C -4.507975 0.733417 0.188467 0
M  V30 19 N -5.325728 -0.192968 -0.325637 0
M  V30 20 C -4.954189 -1.443223 -0.588384 0
M  V30 21 C -3.672190 -1.808039 -0.322210 0
M  V30 22 O -3.110014 -3.054395 -0.527583 0
M  V30 23 C -3.882159 -4.107049 -1.065008 0
M  V30 24 C -3.120244 -5.379654 -1.216911 0
M  V30 25 N -1.972480 -5.299981 -2.078014 0
M  V30 26 C -2.259946 -5.098339 -3.462666 0
M  V30 27 C -0.955683 -5.221029 -4.227158 0
M  V30 28 O -0.573511 -6.567372 -4.128053 0
M  V30 29 C -0.097408 -6.730073 -2.837570 0
M  V30 30 C -1.067143 -6.358015 -1.772972 0
M  V30 31 C -2.772128 -0.879851 0.216256 0
M  V30 32 C -1.017827 1.274021 1.366810 0
M  V30 33 C -0.236340 2.274263 1.893137 0
M  V30 34 C 3.092681 2.554108 2.933457 0
M  V30 35 H 6.231012 3.732268 3.684370 0
M  V30 36 H 6.665592 1.232278 3.611380 0
M  V30 37 H 7.168258 2.208106 2.206368 0
M  V30 38 H 6.062810 0.231651 1.406417 0
M  V30 39 H 4.985229 1.589017 1.055802 0
M  V30 40 H 4.584776 0.161866 3.666007 0
M  V30 41 H 4.075722 -0.616422 2.085901 0
M  V30 42 H 1.604313 -0.021505 1.732761 0
M  V30 43 H 1.856802 5.148546 3.357222 0
M  V30 44 H -0.472011 5.482983 2.787056 0
M  V30 45 H -2.607204 4.649497 1.920935 0
M  V30 46 H -4.907093 1.725585 0.366767 0
M  V30 47 H -5.610519 -2.199475 -1.004834 0
M  V30 48 H -4.670403 -4.310234 -0.284701 0
M  V30 49 H -4.437436 -3.804252 -1.960256 0
M  V30 50 H -3.823311 -6.186336 -1.466878 0
M  V30 51 H -2.723403 -5.642323 -0.197702 0
M  V30 52 H -2.981918 -5.812667 -3.890097 0
M  V30 53 H -2.579558 -4.039245 -3.607822 0
M  V30 54 H -0.220244 -4.600241 -3.664107 0
M  V30 55 H -1.042203 -4.897153 -5.282516 0
M  V30 56 H 0.178978 -7.807058 -2.746037 0
M  V30 57 H 0.852570 -6.173707 -2.723802 0
M  V30 58 H -1.558440 -7.287100 -1.398336 0
M  V30 59 H -0.450619 -5.998274 -0.897064 0
M  V30 60 H -1.750279 -1.115199 0.444107 0
M  V30 61 H -0.550017 0.329143 1.219077 0
M  V30 END ATOM
M  V30 BEGIN BOND
M  V30 1 2 1 2
M  V30 2 1 2 3
M  V30 3 1 3 4
M  V30 4 1 4 5
M  V30 5 1 5 6
M  V30 6 1 6 7
M  V30 7 1 7 8
M  V30 8 1 8 9
M  V30 9 2 9 10
M  V30 10 1 10 11
M  V30 11 2 11 12
M  V30 12 1 12 13
M  V30 13 2 13 14
M  V30 14 1 14 15
M  V30 15 2 15 16
M  V30 16 1 16 17
M  V30 17 2 17 18
M  V30 18 1 18 19
M  V30 19 2 19 20
M  V30 20 1 20 21
M  V30 21 1 21 22
M  V30 22 1 22 23
M  V30 23 1 23 24
M  V30 24 1 24 25
M  V30 25 1 25 26
M  V30 26 1 26 27
M  V30 27 1 27 28
M  V30 28 1 28 29
M  V30 29 1 29 30
M  V30 30 2 21 31
M  V30 31 1 16 32
M  V30 32 2 32 33
M  V30 33 1 10 34
M  V30 34 1 34 2
M  V30 35 2 34 7
M  V30 36 1 33 9
M  V30 37 1 33 13
M  V30 38 1 31 17
M  V30 39 1 30 25
M  V30 40 1 3 35
M  V30 41 1 4 36
M  V30 42 1 4 37
M  V30 43 1 5 38
M  V30 44 1 5 39
M  V30 45 1 6 40
M  V30 46 1 6 41
M  V30 47 1 8 42
M  V30 48 1 11 43
M  V30 49 1 12 44
M  V30 50 1 14 45
M  V30 51 1 18 46
M  V30 52 1 20 47
M  V30 53 1 23 48
M  V30 54 1 23 49
M  V30 55 1 24 50
M  V30 56 1 24 51
M  V30 57 1 26 52
M  V30 58 1 26 53
M  V30 59 1 27 54
M  V30 60 1 27 55
M  V30 61 1 29 56
M  V30 62 1 29 57
M  V30 63 1 30 58
M  V30 64 1 30 59
M  V30 65 1 31 60
M  V30 66 1 32 61
M  V30 END BOND
M  V30 END CTAB
M  END
>  <Dataset>  (153) 
ChEMBL_Kinases

>  <Ligand_Instance>  (153) 
nan

>  <PDB_ID>  (153) 
nan

>  <Standardized_SMILES>  (153) 
O=C1NCCCc2[nH]c3c(ccc4cnc(-c5cncc(OCCN6CCOCC6)c5)cc43)c21

>  <Name>  (153) 
nan

>  <Pocket>  (153) 
nan

>  <ATP_Site>  (153) 
nan

>  <Peripheral>  (153) 
nan

>  <Num_H_Atoms_ProtBoundConf>  (153) 
nan

>  <Num_Resolved_Atoms>  (153) 
nan

>  <Num_Not_Resolved_Atoms>  (153) 
nan

$$$$
CHEMBL1800917
     RDKit          3D

  0  0  0  0  0  0  0  0  0  0999 V3000
M  V30 BEGIN CTAB
M  V30 COUNTS 44 47 0 0 0
M  V30 BEGIN ATOM
M  V30 1 C -1.139281 -1.525455 -2.575570 0
M  V30 2 C 0.230264 -2.043411 -2.398602 0
M  V30 3 C 0.755322 -2.867894 -3.371265 0
M  V30 4 C 2.027397 -3.376560 -3.247850 0
M  V30 5 C 2.761904 -3.041618 -2.129446 0
M  V30 6 C 4.109921 -3.585988 -2.007557 0
M  V30 7 N 4.945476 -3.300131 -0.893771 0
M  V30 8 O 4.534128 -4.331145 -2.925100 0
M  V30 9 C 2.216742 -2.215372 -1.169269 0
M  V30 10 C 0.925806 -1.682230 -1.266415 0
M  V30 11 C 0.422148 -0.813144 -0.209095 0
M  V30 12 C -0.241184 0.394328 -0.270997 0
M  V30 13 C -0.618188 1.023392 0.890908 0
M  V30 14 C -0.353062 0.482842 2.131866 0
M  V30 15 C 0.309443 -0.724357 2.222258 0
M  V30 16 C 0.685807 -1.352131 1.055893 0
M  V30 17 N 0.420739 -0.992862 3.615481 0
M  V30 18 C -0.177112 0.056573 4.371154 0
M  V30 19 O -0.261448 0.149437 5.630433 0
M  V30 20 C -0.719678 1.086739 3.431845 0
M  V30 21 C -2.175224 1.314604 3.601843 0
M  V30 22 C -2.362626 2.815257 3.547915 0
M  V30 23 C -1.007631 3.418586 3.353949 0
M  V30 24 C -0.001759 2.365252 3.741545 0
M  V30 25 H -1.656585 -1.292075 -1.606144 0
M  V30 26 H -1.115174 -0.586829 -3.165979 0
M  V30 27 H -1.760444 -2.225580 -3.189483 0
M  V30 28 H 0.150589 -3.114566 -4.243548 0
M  V30 29 H 2.371366 -4.016040 -4.050503 0
M  V30 30 H 5.163243 -3.872492 -0.037833 0
M  V30 31 H 5.227671 -2.346486 -1.267177 0
M  V30 32 H 2.853030 -2.000523 -0.325909 0
M  V30 33 H -0.389995 0.716050 -1.291520 0
M  V30 34 H -1.133393 1.968188 0.693484 0
M  V30 35 H 1.204474 -2.303209 1.251921 0
M  V30 36 H 0.871388 -1.831116 4.035351 0
M  V30 37 H -2.554762 0.892712 4.575230 0
M  V30 38 H -2.820577 0.860844 2.827243 0
M  V30 39 H -2.802618 3.215002 4.496312 0
M  V30 40 H -3.016279 3.101876 2.673112 0
M  V30 41 H -0.849652 4.321933 4.001658 0
M  V30 42 H -0.786041 3.718069 2.300326 0
M  V30 43 H 0.190872 2.400076 4.850607 0
M  V30 44 H 0.962869 2.468632 3.220285 0
M  V30 END ATOM
M  V30 BEGIN BOND
M  V30 1 1 1 2
M  V30 2 2 2 3
M  V30 3 1 3 4
M  V30 4 2 4 5
M  V30 5 1 5 6
M  V30 6 1 6 7
M  V30 7 2 6 8
M  V30 8 1 5 9
M  V30 9 2 9 10
M  V30 10 1 10 11
M  V30 11 2 11 12
M  V30 12 1 12 13
M  V30 13 2 13 14
M  V30 14 1 14 15
M  V30 15 2 15 16
M  V30 16 1 15 17
M  V30 17 1 17 18
M  V30 18 2 18 19
M  V30 19 1 18 20
M  V30 20 1 20 21
M  V30 21 1 21 22
M  V30 22 1 22 23
M  V30 23 1 23 24
M  V30 24 1 10 2
M  V30 25 1 16 11
M  V30 26 1 24 20
M  V30 27 1 20 14
M  V30 28 1 1 25
M  V30 29 1 1 26
M  V30 30 1 1 27
M  V30 31 1 3 28
M  V30 32 1 4 29
M  V30 33 1 7 30
M  V30 34 1 7 31
M  V30 35 1 9 32
M  V30 36 1 12 33
M  V30 37 1 13 34
M  V30 38 1 16 35
M  V30 39 1 17 36
M  V30 40 1 21 37
M  V30 41 1 21 38
M  V30 42 1 22 39
M  V30 43 1 22 40
M  V30 44 1 23 41
M  V30 45 1 23 42
M  V30 46 1 24 43
M  V30 47 1 24 44
M  V30 END BOND
M  V30 END CTAB
M  END
>  <Dataset>  (154) 
ChEMBL_Kinases

>  <Ligand_Instance>  (154) 
nan

>  <PDB_ID>  (154) 
nan

>  <Standardized_SMILES>  (154) 
Cc1ccc(C(N)=O)cc1-c1ccc2c(c1)NC(=O)C21CCCC1

>  <Name>  (154) 
nan

>  <Pocket>  (154) 
nan

>  <ATP_Site>  (154) 
nan

>  <Peripheral>  (154) 
nan

>  <Num_H_Atoms_ProtBoundConf>  (154) 
nan

>  <Num_Resolved_Atoms>  (154) 
nan

>  <Num_Not_Resolved_Atoms>  (154) 
nan

$$$$
CHEMBL1800918
     RDKit          3D

  0  0  0  0  0  0  0  0  0  0999 V3000
M  V30 BEGIN CTAB
M  V30 COUNTS 47 50 0 0 0
M  V30 BEGIN ATOM
M  V30 1 C 2.158060 -5.835682 -2.353778 0
M  V30 2 N 1.815969 -4.458158 -2.035647 0
M  V30 3 C 2.100208 -3.376861 -2.910478 0
M  V30 4 O 2.670059 -3.646243 -3.995916 0
M  V30 5 C 1.774092 -1.983037 -2.629305 0
M  V30 6 C 2.120445 -1.057245 -3.588161 0
M  V30 7 C 1.798144 0.274273 -3.297680 0
M  V30 8 C 1.172491 0.681866 -2.136364 0
M  V30 9 C 0.871609 2.109353 -1.915826 0
M  V30 10 C 0.838139 -0.267268 -1.195518 0
M  V30 11 C 0.175909 0.083386 0.055857 0
M  V30 12 C 0.697577 -0.523542 1.190077 0
M  V30 13 C 0.170074 -0.286161 2.455667 0
M  V30 14 C -0.905217 0.575738 2.612311 0
M  V30 15 C -1.417495 1.174929 1.478078 0
M  V30 16 C -0.894493 0.939782 0.221941 0
M  V30 17 N -2.512846 2.029728 1.786378 0
M  V30 18 C -2.664430 1.934051 3.200789 0
M  V30 19 O -3.510270 2.513675 3.954781 0
M  V30 20 C -1.664966 1.014796 3.812262 0
M  V30 21 C -0.828970 1.635944 4.875078 0
M  V30 22 C -0.534547 0.510477 5.842407 0
M  V30 23 C -1.416454 -0.636378 5.467308 0
M  V30 24 C -2.401434 -0.152423 4.456266 0
M  V30 25 C 1.148317 -1.597042 -1.461805 0
M  V30 26 H 2.908461 -6.179546 -1.582980 0
M  V30 27 H 2.671764 -5.903106 -3.328786 0
M  V30 28 H 1.280563 -6.474541 -2.240739 0
M  V30 29 H 1.347262 -4.261604 -1.136026 0
M  V30 30 H 2.611793 -1.317730 -4.516532 0
M  V30 31 H 2.074819 1.002074 -4.060402 0
M  V30 32 H 1.724306 2.671748 -2.398498 0
M  V30 33 H 0.901079 2.399219 -0.867659 0
M  V30 34 H -0.023136 2.423959 -2.479704 0
M  V30 35 H 1.541009 -1.209957 1.133720 0
M  V30 36 H 0.615854 -0.786581 3.308161 0
M  V30 37 H -1.269232 1.390581 -0.687797 0
M  V30 38 H -3.098726 2.612119 1.148775 0
M  V30 39 H -1.346889 2.445777 5.429868 0
M  V30 40 H 0.104773 2.095508 4.463061 0
M  V30 41 H 0.506044 0.176905 5.814884 0
M  V30 42 H -0.755260 0.805993 6.901128 0
M  V30 43 H -0.881430 -1.512783 5.038594 0
M  V30 44 H -1.919471 -1.055549 6.387383 0
M  V30 45 H -2.720337 -0.890037 3.706553 0
M  V30 46 H -3.319761 0.288957 4.909416 0
M  V30 47 H 0.876632 -2.323635 -0.709546 0
M  V30 END ATOM
M  V30 BEGIN BOND
M  V30 1 1 1 2
M  V30 2 1 2 3
M  V30 3 2 3 4
M  V30 4 1 3 5
M  V30 5 2 5 6
M  V30 6 1 6 7
M  V30 7 2 7 8
M  V30 8 1 8 9
M  V30 9 1 8 10
M  V30 10 1 10 11
M  V30 11 2 11 12
M  V30 12 1 12 13
M  V30 13 2 13 14
M  V30 14 1 14 15
M  V30 15 2 15 16
M  V30 16 1 15 17
M  V30 17 1 17 18
M  V30 18 2 18 19
M  V30 19 1 18 20
M  V30 20 1 20 21
M  V30 21 1 21 22
M  V30 22 1 22 23
M  V30 23 1 23 24
M  V30 24 2 10 25
M  V30 25 1 25 5
M  V30 26 1 16 11
M  V30 27 1 24 20
M  V30 28 1 20 14
M  V30 29 1 1 26
M  V30 30 1 1 27
M  V30 31 1 1 28
M  V30 32 1 2 29
M  V30 33 1 6 30
M  V30 34 1 7 31
M  V30 35 1 9 32
M  V30 36 1 9 33
M  V30 37 1 9 34
M  V30 38 1 12 35
M  V30 39 1 13 36
M  V30 40 1 16 37
M  V30 41 1 17 38
M  V30 42 1 21 39
M  V30 43 1 21 40
M  V30 44 1 22 41
M  V30 45 1 22 42
M  V30 46 1 23 43
M  V30 47 1 23 44
M  V30 48 1 24 45
M  V30 49 1 24 46
M  V30 50 1 25 47
M  V30 END BOND
M  V30 END CTAB
M  END
>  <Dataset>  (155) 
ChEMBL_Kinases

>  <Ligand_Instance>  (155) 
nan

>  <PDB_ID>  (155) 
nan

>  <Standardized_SMILES>  (155) 
CNC(=O)c1ccc(C)c(-c2ccc3c(c2)NC(=O)C32CCCC2)c1

>  <Name>  (155) 
nan

>  <Pocket>  (155) 
nan

>  <ATP_Site>  (155) 
nan

>  <Peripheral>  (155) 
nan

>  <Num_H_Atoms_ProtBoundConf>  (155) 
nan

>  <Num_Resolved_Atoms>  (155) 
nan

>  <Num_Not_Resolved_Atoms>  (155) 
nan

$$$$
CHEMBL1800919
     RDKit          3D

  0  0  0  0  0  0  0  0  0  0999 V3000
M  V30 BEGIN CTAB
M  V30 COUNTS 53 56 0 0 0
M  V30 BEGIN ATOM
M  V30 1 C 1.270828 -4.362933 1.492661 0
M  V30 2 C 2.044378 -3.211336 0.980137 0
M  V30 3 C 3.397015 -3.300397 0.721175 0
M  V30 4 C 4.066228 -2.180182 0.240118 0
M  V30 5 C 3.412130 -0.986148 0.016452 0
M  V30 6 C 4.212046 0.127159 -0.490226 0
M  V30 7 O 5.421268 -0.055024 -0.691062 0
M  V30 8 N 3.659678 1.409884 -0.761913 0
M  V30 9 C 4.496716 2.498204 -1.268910 0
M  V30 10 C 4.547857 3.621486 -0.246817 0
M  V30 11 C 4.062126 2.988786 -2.618051 0
M  V30 12 C 2.069387 -0.919825 0.280224 0
M  V30 13 C 1.365459 -2.027549 0.764827 0
M  V30 14 C -0.065639 -1.829340 1.007341 0
M  V30 15 C -0.762814 -2.243035 2.119835 0
M  V30 16 C -2.124563 -1.977054 2.199679 0
M  V30 17 C -2.835345 -1.310383 1.212671 0
M  V30 18 C -2.119412 -0.904116 0.106427 0
M  V30 19 C -0.753938 -1.154706 -0.005044 0
M  V30 20 N -2.980754 -0.230423 -0.827985 0
M  V30 21 C -4.274789 -0.241156 -0.238490 0
M  V30 22 O -5.381346 0.215469 -0.641820 0
M  V30 23 C -4.270114 -0.928364 1.098185 0
M  V30 24 C -4.738482 -0.022961 2.188993 0
M  V30 25 C -5.678695 -0.829102 3.038941 0
M  V30 26 C -5.600165 -2.254175 2.531044 0
M  V30 27 C -5.146409 -2.137056 1.091523 0
M  V30 28 H 1.735722 -5.298527 1.064879 0
M  V30 29 H 1.429670 -4.485549 2.592411 0
M  V30 30 H 0.225762 -4.394396 1.175422 0
M  V30 31 H 3.863894 -4.256163 0.912198 0
M  V30 32 H 5.127261 -2.313740 0.056277 0
M  V30 33 H 2.642134 1.583231 -0.598957 0
M  V30 34 H 5.528390 2.101942 -1.368793 0
M  V30 35 H 3.554487 3.881361 0.153968 0
M  V30 36 H 5.049152 4.485236 -0.737829 0
M  V30 37 H 5.206946 3.240993 0.567125 0
M  V30 38 H 3.466909 2.182974 -3.139425 0
M  V30 39 H 3.351189 3.837885 -2.538862 0
M  V30 40 H 4.930396 3.201844 -3.242209 0
M  V30 41 H 1.567359 -0.002366 0.108241 0
M  V30 42 H -0.208757 -2.753950 2.872202 0
M  V30 43 H -2.581418 -2.335756 3.099412 0
M  V30 44 H -0.227270 -0.811163 -0.905951 0
M  V30 45 H -2.785418 0.202213 -1.756851 0
M  V30 46 H -5.350131 0.788244 1.716781 0
M  V30 47 H -3.919973 0.413031 2.798770 0
M  V30 48 H -6.740742 -0.515917 2.940669 0
M  V30 49 H -5.405536 -0.775638 4.096064 0
M  V30 50 H -6.585733 -2.757413 2.556855 0
M  V30 51 H -4.915583 -2.896101 3.110224 0
M  V30 52 H -4.616221 -3.065160 0.763465 0
M  V30 53 H -6.049071 -2.026821 0.471603 0
M  V30 END ATOM
M  V30 BEGIN BOND
M  V30 1 1 1 2
M  V30 2 2 2 3
M  V30 3 1 3 4
M  V30 4 2 4 5
M  V30 5 1 5 6
M  V30 6 2 6 7
M  V30 7 1 6 8
M  V30 8 1 8 9
M  V30 9 1 9 10
M  V30 10 1 9 11
M  V30 11 1 5 12
M  V30 12 2 12 13
M  V30 13 1 13 14
M  V30 14 2 14 15
M  V30 15 1 15 16
M  V30 16 2 16 17
M  V30 17 1 17 18
M  V30 18 2 18 19
M  V30 19 1 18 20
M  V30 20 1 20 21
M  V30 21 2 21 22
M  V30 22 1 21 23
M  V30 23 1 23 24
M  V30 24 1 24 25
M  V30 25 1 25 26
M  V30 26 1 26 27
M  V30 27 1 13 2
M  V30 28 1 19 14
M  V30 29 1 27 23
M  V30 30 1 23 17
M  V30 31 1 1 28
M  V30 32 1 1 29
M  V30 33 1 1 30
M  V30 34 1 3 31
M  V30 35 1 4 32
M  V30 36 1 8 33
M  V30 37 1 9 34
M  V30 38 1 10 35
M  V30 39 1 10 36
M  V30 40 1 10 37
M  V30 41 1 11 38
M  V30 42 1 11 39
M  V30 43 1 11 40
M  V30 44 1 12 41
M  V30 45 1 15 42
M  V30 46 1 16 43
M  V30 47 1 19 44
M  V30 48 1 20 45
M  V30 49 1 24 46
M  V30 50 1 24 47
M  V30 51 1 25 48
M  V30 52 1 25 49
M  V30 53 1 26 50
M  V30 54 1 26 51
M  V30 55 1 27 52
M  V30 56 1 27 53
M  V30 END BOND
M  V30 END CTAB
M  END
>  <Dataset>  (156) 
ChEMBL_Kinases

>  <Ligand_Instance>  (156) 
nan

>  <PDB_ID>  (156) 
nan

>  <Standardized_SMILES>  (156) 
Cc1ccc(C(=O)NC(C)C)cc1-c1ccc2c(c1)NC(=O)C21CCCC1

>  <Name>  (156) 
nan

>  <Pocket>  (156) 
nan

>  <ATP_Site>  (156) 
nan

>  <Peripheral>  (156) 
nan

>  <Num_H_Atoms_ProtBoundConf>  (156) 
nan

>  <Num_Resolved_Atoms>  (156) 
nan

>  <Num_Not_Resolved_Atoms>  (156) 
nan

$$$$
CHEMBL1800920
     RDKit          3D

  0  0  0  0  0  0  0  0  0  0999 V3000
M  V30 BEGIN CTAB
M  V30 COUNTS 56 59 0 0 0
M  V30 BEGIN ATOM
M  V30 1 C 1.142985 -3.967650 1.399649 0
M  V30 2 C 1.537468 -2.543663 1.472294 0
M  V30 3 C 2.744443 -2.235635 2.084637 0
M  V30 4 C 3.126604 -0.912307 2.160349 0
M  V30 5 C 2.325652 0.082482 1.638389 0
M  V30 6 C 2.719594 1.484815 1.712781 0
M  V30 7 O 1.970344 2.392315 1.226376 0
M  V30 8 N 3.901005 1.960825 2.295742 0
M  V30 9 C 4.149201 3.389052 2.290041 0
M  V30 10 C 4.212323 3.976841 0.898175 0
M  V30 11 C 3.087251 4.145663 3.059134 0
M  V30 12 C 5.519658 3.599527 2.917417 0
M  V30 13 C 1.152009 -0.262474 1.047336 0
M  V30 14 C 0.703370 -1.583418 0.936034 0
M  V30 15 C -0.568284 -1.890224 0.289284 0
M  V30 16 C -1.531640 -2.760814 0.755425 0
M  V30 17 C -2.703377 -2.977163 0.059975 0
M  V30 18 C -2.967768 -2.344172 -1.118513 0
M  V30 19 C -2.021568 -1.463038 -1.615376 0
M  V30 20 C -0.851687 -1.251328 -0.914592 0
M  V30 21 N -2.580357 -0.976872 -2.830051 0
M  V30 22 C -3.856751 -1.558666 -3.069002 0
M  V30 23 O -4.679477 -1.412071 -4.004552 0
M  V30 24 C -4.171911 -2.487355 -1.951776 0
M  V30 25 C -5.442058 -2.109598 -1.227151 0
M  V30 26 C -6.167277 -3.396411 -0.926511 0
M  V30 27 C -5.490502 -4.496693 -1.700261 0
M  V30 28 C -4.383469 -3.862552 -2.512368 0
M  V30 29 H 0.729556 -4.329617 2.350215 0
M  V30 30 H 2.094596 -4.559392 1.258953 0
M  V30 31 H 0.539354 -4.212605 0.501892 0
M  V30 32 H 3.360323 -3.044894 2.490266 0
M  V30 33 H 4.054182 -0.709937 2.634250 0
M  V30 34 H 4.563857 1.263636 2.715874 0
M  V30 35 H 5.250068 4.295921 0.610598 0
M  V30 36 H 3.475652 4.793673 0.751373 0
M  V30 37 H 3.952547 3.176439 0.171772 0
M  V30 38 H 3.554648 5.123149 3.362353 0
M  V30 39 H 2.724584 3.616536 3.948344 0
M  V30 40 H 2.279571 4.417669 2.351759 0
M  V30 41 H 6.046983 4.488584 2.472140 0
M  V30 42 H 5.470317 3.638107 4.024344 0
M  V30 43 H 6.149480 2.723720 2.617167 0
M  V30 44 H 0.538208 0.529811 0.644451 0
M  V30 45 H -1.314445 -3.258807 1.690643 0
M  V30 46 H -3.386734 -3.694335 0.539908 0
M  V30 47 H -0.194491 -0.547036 -1.397980 0
M  V30 48 H -2.128704 -0.287414 -3.470069 0
M  V30 49 H -6.028910 -1.426551 -1.847982 0
M  V30 50 H -5.149139 -1.651997 -0.266499 0
M  V30 51 H -6.129589 -3.668379 0.163612 0
M  V30 52 H -7.247585 -3.349171 -1.182047 0
M  V30 53 H -6.236950 -5.027986 -2.319120 0
M  V30 54 H -5.043764 -5.268308 -1.016250 0
M  V30 55 H -4.707261 -3.866431 -3.573412 0
M  V30 56 H -3.468634 -4.509662 -2.476593 0
M  V30 END ATOM
M  V30 BEGIN BOND
M  V30 1 1 1 2
M  V30 2 2 2 3
M  V30 3 1 3 4
M  V30 4 2 4 5
M  V30 5 1 5 6
M  V30 6 2 6 7
M  V30 7 1 6 8
M  V30 8 1 8 9
M  V30 9 1 9 10
M  V30 10 1 9 11
M  V30 11 1 9 12
M  V30 12 1 5 13
M  V30 13 2 13 14
M  V30 14 1 14 15
M  V30 15 2 15 16
M  V30 16 1 16 17
M  V30 17 2 17 18
M  V30 18 1 18 19
M  V30 19 2 19 20
M  V30 20 1 19 21
M  V30 21 1 21 22
M  V30 22 2 22 23
M  V30 23 1 22 24
M  V30 24 1 24 25
M  V30 25 1 25 26
M  V30 26 1 26 27
M  V30 27 1 27 28
M  V30 28 1 14 2
M  V30 29 1 20 15
M  V30 30 1 28 24
M  V30 31 1 24 18
M  V30 32 1 1 29
M  V30 33 1 1 30
M  V30 34 1 1 31
M  V30 35 1 3 32
M  V30 36 1 4 33
M  V30 37 1 8 34
M  V30 38 1 10 35
M  V30 39 1 10 36
M  V30 40 1 10 37
M  V30 41 1 11 38
M  V30 42 1 11 39
M  V30 43 1 11 40
M  V30 44 1 12 41
M  V30 45 1 12 42
M  V30 46 1 12 43
M  V30 47 1 13 44
M  V30 48 1 16 45
M  V30 49 1 17 46
M  V30 50 1 20 47
M  V30 51 1 21 48
M  V30 52 1 25 49
M  V30 53 1 25 50
M  V30 54 1 26 51
M  V30 55 1 26 52
M  V30 56 1 27 53
M  V30 57 1 27 54
M  V30 58 1 28 55
M  V30 59 1 28 56
M  V30 END BOND
M  V30 END CTAB
M  END
>  <Dataset>  (157) 
ChEMBL_Kinases

>  <Ligand_Instance>  (157) 
nan

>  <PDB_ID>  (157) 
nan

>  <Standardized_SMILES>  (157) 
Cc1ccc(C(=O)NC(C)(C)C)cc1-c1ccc2c(c1)NC(=O)C21CCCC1

>  <Name>  (157) 
nan

>  <Pocket>  (157) 
nan

>  <ATP_Site>  (157) 
nan

>  <Peripheral>  (157) 
nan

>  <Num_H_Atoms_ProtBoundConf>  (157) 
nan

>  <Num_Resolved_Atoms>  (157) 
nan

>  <Num_Not_Resolved_Atoms>  (157) 
nan

$$$$
CHEMBL1800921
     RDKit          3D

  0  0  0  0  0  0  0  0  0  0999 V3000
M  V30 BEGIN CTAB
M  V30 COUNTS 54 58 0 0 0
M  V30 BEGIN ATOM
M  V30 1 C 0.818293 -3.955064 1.606870 0
M  V30 2 C 1.320524 -2.579388 1.628713 0
M  V30 3 C 2.467744 -2.302461 2.379529 0
M  V30 4 C 2.933950 -1.006854 2.396579 0
M  V30 5 C 2.321006 0.019071 1.709609 0
M  V30 6 C 2.777186 1.402256 1.698139 0
M  V30 7 O 2.187656 2.324941 1.052520 0
M  V30 8 N 3.917500 1.861240 2.400129 0
M  V30 9 C 4.301904 3.260212 2.333423 0
M  V30 10 C 5.546711 3.432403 3.180023 0
M  V30 11 C 5.373245 3.059801 4.665647 0
M  V30 12 C 5.660624 4.461809 4.216741 0
M  V30 13 C 1.188695 -0.280434 0.974908 0
M  V30 14 C 0.676902 -1.580947 0.926523 0
M  V30 15 C -0.520219 -1.824795 0.130524 0
M  V30 16 C -0.791514 -2.839084 -0.764656 0
M  V30 17 C -2.010903 -2.867827 -1.409919 0
M  V30 18 C -2.979112 -1.909076 -1.190317 0
M  V30 19 C -2.738061 -0.880779 -0.300202 0
M  V30 20 C -1.514080 -0.863003 0.339252 0
M  V30 21 N -3.899025 -0.080156 -0.296978 0
M  V30 22 C -4.871099 -0.621550 -1.197913 0
M  V30 23 O -6.043473 -0.208735 -1.489661 0
M  V30 24 C -4.315976 -1.864092 -1.840640 0
M  V30 25 C -4.240749 -1.723929 -3.327786 0
M  V30 26 C -4.913810 -2.925944 -3.934979 0
M  V30 27 C -5.219253 -3.877653 -2.826234 0
M  V30 28 C -5.161538 -3.072320 -1.539770 0
M  V30 29 H 1.091033 -4.441568 2.589601 0
M  V30 30 H 1.327185 -4.586927 0.849121 0
M  V30 31 H -0.273149 -4.059609 1.453071 0
M  V30 32 H 2.993696 -3.066534 2.940758 0
M  V30 33 H 3.814362 -0.779210 2.969086 0
M  V30 34 H 4.464605 1.154202 2.963025 0
M  V30 35 H 4.550929 3.581848 1.312820 0
M  V30 36 H 3.456390 3.859154 2.696988 0
M  V30 37 H 6.465295 3.001971 2.695374 0
M  V30 38 H 6.159422 2.447507 5.126627 0
M  V30 39 H 4.354498 2.758423 4.978687 0
M  V30 40 H 6.695343 4.846964 4.431461 0
M  V30 41 H 4.851546 5.210418 4.300214 0
M  V30 42 H 0.684579 0.503286 0.424523 0
M  V30 43 H 0.024590 -3.535552 -0.867398 0
M  V30 44 H -2.090491 -3.721377 -2.087097 0
M  V30 45 H -1.409114 -0.017283 1.023617 0
M  V30 46 H -4.048418 0.780267 0.268240 0
M  V30 47 H -4.853903 -0.837883 -3.634791 0
M  V30 48 H -3.180797 -1.586682 -3.676963 0
M  V30 49 H -4.175184 -3.398948 -4.632831 0
M  V30 50 H -5.814388 -2.672805 -4.535750 0
M  V30 51 H -4.458617 -4.694470 -2.809552 0
M  V30 52 H -6.206269 -4.358265 -2.903439 0
M  V30 53 H -6.177258 -2.780766 -1.189495 0
M  V30 54 H -4.628054 -3.687256 -0.797273 0
M  V30 END ATOM
M  V30 BEGIN BOND
M  V30 1 1 1 2
M  V30 2 2 2 3
M  V30 3 1 3 4
M  V30 4 2 4 5
M  V30 5 1 5 6
M  V30 6 2 6 7
M  V30 7 1 6 8
M  V30 8 1 8 9
M  V30 9 1 9 10
M  V30 10 1 10 11
M  V30 11 1 11 12
M  V30 12 1 5 13
M  V30 13 2 13 14
M  V30 14 1 14 15
M  V30 15 2 15 16
M  V30 16 1 16 17
M  V30 17 2 17 18
M  V30 18 1 18 19
M  V30 19 2 19 20
M  V30 20 1 19 21
M  V30 21 1 21 22
M  V30 22 2 22 23
M  V30 23 1 22 24
M  V30 24 1 24 25
M  V30 25 1 25 26
M  V30 26 1 26 27
M  V30 27 1 27 28
M  V30 28 1 14 2
M  V30 29 1 20 15
M  V30 30 1 28 24
M  V30 31 1 12 10
M  V30 32 1 24 18
M  V30 33 1 1 29
M  V30 34 1 1 30
M  V30 35 1 1 31
M  V30 36 1 3 32
M  V30 37 1 4 33
M  V30 38 1 8 34
M  V30 39 1 9 35
M  V30 40 1 9 36
M  V30 41 1 10 37
M  V30 42 1 11 38
M  V30 43 1 11 39
M  V30 44 1 12 40
M  V30 45 1 12 41
M  V30 46 1 13 42
M  V30 47 1 16 43
M  V30 48 1 17 44
M  V30 49 1 20 45
M  V30 50 1 21 46
M  V30 51 1 25 47
M  V30 52 1 25 48
M  V30 53 1 26 49
M  V30 54 1 26 50
M  V30 55 1 27 51
M  V30 56 1 27 52
M  V30 57 1 28 53
M  V30 58 1 28 54
M  V30 END BOND
M  V30 END CTAB
M  END
>  <Dataset>  (158) 
ChEMBL_Kinases

>  <Ligand_Instance>  (158) 
nan

>  <PDB_ID>  (158) 
nan

>  <Standardized_SMILES>  (158) 
Cc1ccc(C(=O)NCC2CC2)cc1-c1ccc2c(c1)NC(=O)C21CCCC1

>  <Name>  (158) 
nan

>  <Pocket>  (158) 
nan

>  <ATP_Site>  (158) 
nan

>  <Peripheral>  (158) 
nan

>  <Num_H_Atoms_ProtBoundConf>  (158) 
nan

>  <Num_Resolved_Atoms>  (158) 
nan

>  <Num_Not_Resolved_Atoms>  (158) 
nan

$$$$
CHEMBL1800956
     RDKit          3D

  0  0  0  0  0  0  0  0  0  0999 V3000
M  V30 BEGIN CTAB
M  V30 COUNTS 117 123 0 0 0
M  V30 BEGIN ATOM
M  V30 1 C 3.537278 -2.290827 4.706352 0
M  V30 2 N 2.891864 -1.075147 5.214668 0
M  V30 3 C 1.821910 -1.126430 6.206384 0
M  V30 4 C 3.347585 0.180944 4.718905 0
M  V30 5 C 2.731719 1.325016 5.187863 0
M  V30 6 C 3.175393 2.536378 4.731448 0
M  V30 7 C 4.214949 2.720644 3.816769 0
M  V30 8 C 4.591405 4.010691 3.425355 0
M  V30 9 C 3.887728 5.209639 3.932898 0
M  V30 10 C 2.653620 5.537165 3.198145 0
M  V30 11 O 2.892907 6.059289 2.053335 0
M  V30 12 N 1.290908 5.392387 3.500302 0
M  V30 13 C 0.257623 5.839594 2.581861 0
M  V30 14 C -1.108745 5.493746 3.065291 0
M  V30 15 N -1.331633 4.037994 3.154988 0
M  V30 16 C -1.288820 3.432366 1.871000 0
M  V30 17 O -1.091842 4.267067 0.920250 0
M  V30 18 C -1.423942 2.017726 1.369120 0 CFG=1
M  V30 19 C -0.218030 1.292909 1.997699 0
M  V30 20 C -2.630653 1.318241 1.882332 0
M  V30 21 C -3.867467 1.428633 1.072081 0
M  V30 22 C -3.683300 1.326627 -0.421751 0 CFG=2
M  V30 23 C -4.091150 2.717253 -0.967019 0
M  V30 24 C -4.624021 0.355377 -1.039949 0
M  V30 25 C -4.084941 -0.546101 -2.087430 0
M  V30 26 C -2.842881 -1.271593 -1.669477 0 CFG=2
M  V30 27 C -3.255212 -2.256575 -0.579579 0
M  V30 28 C -1.907818 -0.267474 -1.102301 0
M  V30 29 C -0.706725 -0.808302 -0.889614 0
M  V30 30 C -0.359286 -2.219181 -1.185509 0
M  V30 31 O 0.644104 -2.733192 -0.578032 0
M  V30 32 C -1.190742 -2.945838 -2.162504 0 CFG=2
M  V30 33 C -0.493005 -3.861062 -3.085763 0 CFG=1
M  V30 34 C 0.803967 -3.333544 -3.568743 0
M  V30 35 C -0.080923 -5.121847 -2.299005 0
M  V30 36 C 0.782569 -5.946369 -3.218290 0
M  V30 37 C 0.196401 -6.287198 -4.524547 0 CFG=2
M  V30 38 O 1.262453 -6.441115 -5.443166 0
M  V30 39 C -0.764302 -5.314694 -5.121950 0
M  V30 40 C -1.911662 -6.180208 -5.691375 0
M  V30 41 C -0.199328 -4.585328 -6.317074 0
M  V30 42 C -1.435591 -4.418496 -4.111647 0 CFG=2
M  V30 43 C -2.398768 -3.486192 -4.738309 0
M  V30 44 C -3.122647 -2.711689 -3.678820 0
M  V30 45 C -2.137865 -1.964476 -2.800194 0 CFG=1
M  V30 46 C -1.479998 -0.948977 -3.683745 0
M  V30 47 C -2.262560 1.122530 -0.857560 0 CFG=2
M  V30 48 C -1.278480 1.954162 -0.110385 0
M  V30 49 C 5.641820 4.021883 2.520745 0
M  V30 50 C 6.195933 2.820029 2.105264 0
M  V30 51 O 7.142813 2.796186 1.289908 0
M  V30 52 O 5.785825 1.637156 2.520458 0
M  V30 53 C 4.792060 1.547778 3.382974 0
M  V30 54 C 4.369492 0.311810 3.821293 0
M  V30 55 H 3.542202 -2.266007 3.599199 0
M  V30 56 H 3.045623 -3.207055 5.062169 0
M  V30 57 H 4.602434 -2.277980 5.076113 0
M  V30 58 H 2.168887 -0.456843 7.049611 0
M  V30 59 H 1.744974 -2.180352 6.585125 0
M  V30 60 H 0.869613 -0.727580 5.835277 0
M  V30 61 H 1.925226 1.223445 5.898233 0
M  V30 62 H 2.650625 3.370778 5.148398 0
M  V30 63 H 3.656610 5.076496 5.019357 0
M  V30 64 H 4.624306 6.065960 3.814663 0
M  V30 65 H 1.100925 4.952184 4.424061 0
M  V30 66 H 0.340076 6.966280 2.610571 0
M  V30 67 H 0.533811 5.540691 1.579687 0
M  V30 68 H -1.825013 5.876875 2.302501 0
M  V30 69 H -1.389195 5.984339 4.006591 0
M  V30 70 H -1.517267 3.273841 3.871637 0
M  V30 71 H 0.016749 1.639114 2.999983 0
M  V30 72 H -0.437737 0.204643 2.083473 0
M  V30 73 H 0.685442 1.388529 1.367203 0
M  V30 74 H -2.359731 0.249758 2.086323 0
M  V30 75 H -2.862058 1.730216 2.902943 0
M  V30 76 H -4.380415 2.364930 1.368280 0
M  V30 77 H -4.561428 0.612193 1.437526 0
M  V30 78 H -5.151369 2.718187 -1.301448 0
M  V30 79 H -4.003157 3.498032 -0.191525 0
M  V30 80 H -3.495300 2.964958 -1.868048 0
M  V30 81 H -5.132732 -0.185594 -0.193888 0
M  V30 82 H -5.509612 0.873125 -1.530302 0
M  V30 83 H -4.037940 0.014722 -3.016107 0
M  V30 84 H -4.869721 -1.342459 -2.254756 0
M  V30 85 H -2.417255 -2.527948 0.097304 0
M  V30 86 H -4.022243 -1.833018 0.100487 0
M  V30 87 H -3.771006 -3.143407 -1.028517 0
M  V30 88 H 0.096847 -0.221203 -0.475129 0
M  V30 89 H -1.852073 -3.604523 -1.520348 0
M  V30 90 H 1.580218 -3.448875 -2.751566 0
M  V30 91 H 0.863489 -2.272004 -3.815668 0
M  V30 92 H 1.250030 -3.883334 -4.411882 0
M  V30 93 H -1.006088 -5.651404 -2.005545 0
M  V30 94 H 0.505576 -4.902487 -1.413788 0
M  V30 95 H 1.790862 -5.458686 -3.244608 0
M  V30 96 H 0.997075 -6.882014 -2.620443 0
M  V30 97 H -0.208881 -7.341463 -4.456843 0
M  V30 98 H 2.093240 -6.033010 -5.136798 0
M  V30 99 H -2.507366 -6.649423 -4.909338 0
M  V30 100 H -2.459534 -5.665425 -6.489438 0
M  V30 101 H -1.367222 -7.019012 -6.218194 0
M  V30 102 H -0.226518 -3.490541 -6.251340 0
M  V30 103 H -0.727354 -4.824652 -7.281181 0
M  V30 104 H 0.854761 -4.922572 -6.540257 0
M  V30 105 H -2.112977 -5.122970 -3.530063 0
M  V30 106 H -3.207741 -4.139740 -5.199656 0
M  V30 107 H -2.049872 -2.896968 -5.598943 0
M  V30 108 H -3.870415 -2.036622 -4.088113 0
M  V30 109 H -3.670202 -3.461925 -3.052902 0
M  V30 110 H -0.598157 -0.450378 -3.287356 0
M  V30 111 H -1.160602 -1.343954 -4.683032 0
M  V30 112 H -2.282247 -0.220205 -3.996672 0
M  V30 113 H -2.269731 1.589172 -1.912186 0
M  V30 114 H -1.428807 3.028761 -0.466824 0
M  V30 115 H -0.259139 1.727876 -0.482249 0
M  V30 116 H 5.993546 4.981431 2.168565 0
M  V30 117 H 4.835481 -0.595488 3.465249 0
M  V30 END ATOM
M  V30 BEGIN BOND
M  V30 1 1 1 2
M  V30 2 1 2 3
M  V30 3 1 2 4
M  V30 4 2 4 5
M  V30 5 1 5 6
M  V30 6 2 6 7
M  V30 7 1 7 8
M  V30 8 1 8 9
M  V30 9 1 9 10
M  V30 10 2 10 11
M  V30 11 1 10 12
M  V30 12 1 12 13
M  V30 13 1 13 14
M  V30 14 1 14 15
M  V30 15 1 15 16
M  V30 16 2 16 17
M  V30 17 1 16 18
M  V30 18 1 18 19 CFG=1
M  V30 19 1 18 20
M  V30 20 1 20 21
M  V30 21 1 21 22
M  V30 22 1 22 23 CFG=3
M  V30 23 1 22 24
M  V30 24 1 24 25
M  V30 25 1 25 26
M  V30 26 1 26 27 CFG=1
M  V30 27 1 26 28
M  V30 28 2 28 29
M  V30 29 1 29 30
M  V30 30 2 30 31
M  V30 31 1 30 32
M  V30 32 1 32 33
M  V30 33 1 33 34 CFG=3
M  V30 34 1 33 35
M  V30 35 1 35 36
M  V30 36 1 36 37
M  V30 37 1 37 38
M  V30 38 1 37 39
M  V30 39 1 39 40
M  V30 40 1 39 41
M  V30 41 1 39 42
M  V30 42 1 42 43
M  V30 43 1 43 44
M  V30 44 1 44 45
M  V30 45 1 45 46 CFG=3
M  V30 46 1 28 47
M  V30 47 1 47 48
M  V30 48 2 8 49
M  V30 49 1 49 50
M  V30 50 2 50 51
M  V30 51 1 50 52
M  V30 52 1 52 53
M  V30 53 2 53 54
M  V30 54 1 54 4
M  V30 55 1 53 7
M  V30 56 1 48 18
M  V30 57 1 47 22
M  V30 58 1 45 26
M  V30 59 1 45 32
M  V30 60 1 42 33
M  V30 61 1 1 55
M  V30 62 1 1 56
M  V30 63 1 1 57
M  V30 64 1 3 58
M  V30 65 1 3 59
M  V30 66 1 3 60
M  V30 67 1 5 61
M  V30 68 1 6 62
M  V30 69 1 9 63
M  V30 70 1 9 64
M  V30 71 1 12 65
M  V30 72 1 13 66
M  V30 73 1 13 67
M  V30 74 1 14 68
M  V30 75 1 14 69
M  V30 76 1 15 70
M  V30 77 1 19 71
M  V30 78 1 19 72
M  V30 79 1 19 73
M  V30 80 1 20 74
M  V30 81 1 20 75
M  V30 82 1 21 76
M  V30 83 1 21 77
M  V30 84 1 23 78
M  V30 85 1 23 79
M  V30 86 1 23 80
M  V30 87 1 24 81
M  V30 88 1 24 82
M  V30 89 1 25 83
M  V30 90 1 25 84
M  V30 91 1 27 85
M  V30 92 1 27 86
M  V30 93 1 27 87
M  V30 94 1 29 88
M  V30 95 1 32 89 CFG=1
M  V30 96 1 34 90
M  V30 97 1 34 91
M  V30 98 1 34 92
M  V30 99 1 35 93
M  V30 100 1 35 94
M  V30 101 1 36 95
M  V30 102 1 36 96
M  V30 103 1 37 97 CFG=1
M  V30 104 1 38 98
M  V30 105 1 40 99
M  V30 106 1 40 100
M  V30 107 1 40 101
M  V30 108 1 41 102
M  V30 109 1 41 103
M  V30 110 1 41 104
M  V30 111 1 42 105 CFG=1
M  V30 112 1 43 106
M  V30 113 1 43 107
M  V30 114 1 44 108
M  V30 115 1 44 109
M  V30 116 1 46 110
M  V30 117 1 46 111
M  V30 118 1 46 112
M  V30 119 1 47 113 CFG=3
M  V30 120 1 48 114
M  V30 121 1 48 115
M  V30 122 1 49 116
M  V30 123 1 54 117
M  V30 END BOND
M  V30 END CTAB
M  END
>  <Dataset>  (159) 
ChEMBL_Kinases

>  <Ligand_Instance>  (159) 
nan

>  <PDB_ID>  (159) 
nan

>  <Standardized_SMILES>  (159) 
CN(C)c1ccc2c(CC(=O)NCCNC(=O)[C@@]3(C)CC[C@]4(C)CC[C@]5(C)C(=CC(=O)[C@@H]6[C@@]7(C)CC[C@H](O)C(C)(C)[C@@H]7CC[C@]65C)[C@@H]4C3)cc(=O)oc2c1

>  <Name>  (159) 
nan

>  <Pocket>  (159) 
nan

>  <ATP_Site>  (159) 
nan

>  <Peripheral>  (159) 
nan

>  <Num_H_Atoms_ProtBoundConf>  (159) 
nan

>  <Num_Resolved_Atoms>  (159) 
nan

>  <Num_Not_Resolved_Atoms>  (159) 
nan

$$$$
CHEMBL180101
     RDKit          3D

  0  0  0  0  0  0  0  0  0  0999 V3000
M  V30 BEGIN CTAB
M  V30 COUNTS 46 48 0 0 0
M  V30 BEGIN ATOM
M  V30 1 C 2.203682 -0.951676 5.264473 0
M  V30 2 C 1.816830 -2.198674 4.477860 0
M  V30 3 O 1.284483 -1.755406 3.263892 0
M  V30 4 C 0.821159 -2.664598 2.329709 0
M  V30 5 C 0.888358 -4.013165 2.619255 0
M  V30 6 C 0.415766 -4.920892 1.671737 0
M  V30 7 C -0.105458 -4.509322 0.476421 0
M  V30 8 C -0.134631 -3.148692 0.267087 0
M  V30 9 C 0.295594 -2.179936 1.115998 0
M  V30 10 O 0.308735 -0.844623 1.004539 0
M  V30 11 C -0.083215 0.067973 0.048603 0 CFG=1
M  V30 12 C -1.183428 0.922440 0.476967 0
M  V30 13 C -2.209109 1.298886 -0.395514 0
M  V30 14 C -3.217065 2.112682 0.151622 0
M  V30 15 C -3.291394 2.568590 1.445755 0
M  V30 16 C -2.247438 2.160321 2.251472 0
M  V30 17 C -1.224742 1.369733 1.807224 0
M  V30 18 C 1.118632 0.711617 -0.552682 0 CFG=2
M  V30 19 C 0.931591 1.940513 -1.348389 0
M  V30 20 N 1.053773 1.735694 -2.787927 0
M  V30 21 C 0.714665 0.393223 -3.184393 0
M  V30 22 C 1.490931 -0.639947 -2.422771 0
M  V30 23 O 1.932581 -0.230466 -1.176843 0
M  V30 24 H 2.004929 -1.147223 6.339578 0
M  V30 25 H 3.292893 -0.759217 5.088845 0
M  V30 26 H 1.615455 -0.114978 4.875840 0
M  V30 27 H 1.119554 -2.775699 5.101093 0
M  V30 28 H 2.710667 -2.852774 4.333284 0
M  V30 29 H 1.303846 -4.335542 3.574468 0
M  V30 30 H 0.455586 -5.978206 1.866536 0
M  V30 31 H -0.472581 -5.211302 -0.257008 0
M  V30 32 H -0.544518 -2.784714 -0.668582 0
M  V30 33 H -0.526936 -0.564590 -0.785384 0
M  V30 34 H -2.223057 0.989782 -1.413878 0
M  V30 35 H -3.978277 2.365138 -0.592430 0
M  V30 36 H -4.137081 3.187769 1.701005 0
M  V30 37 H -2.297273 2.521258 3.289065 0
M  V30 38 H -0.418732 1.059428 2.455720 0
M  V30 39 H 1.767753 1.011589 0.333086 0
M  V30 40 H -0.014662 2.476688 -1.184147 0
M  V30 41 H 1.719214 2.723795 -1.123908 0
M  V30 42 H 2.050417 1.876275 -3.089408 0
M  V30 43 H -0.383896 0.185066 -3.046898 0
M  V30 44 H 0.856117 0.341454 -4.282808 0
M  V30 45 H 0.980032 -1.638902 -2.415538 0
M  V30 46 H 2.428547 -0.845837 -3.014727 0
M  V30 END ATOM
M  V30 BEGIN BOND
M  V30 1 1 1 2
M  V30 2 1 2 3
M  V30 3 1 3 4
M  V30 4 2 4 5
M  V30 5 1 5 6
M  V30 6 2 6 7
M  V30 7 1 7 8
M  V30 8 2 8 9
M  V30 9 1 9 10
M  V30 10 1 10 11
M  V30 11 1 11 12
M  V30 12 2 12 13
M  V30 13 1 13 14
M  V30 14 2 14 15
M  V30 15 1 15 16
M  V30 16 2 16 17
M  V30 17 1 11 18
M  V30 18 1 18 19
M  V30 19 1 19 20
M  V30 20 1 20 21
M  V30 21 1 21 22
M  V30 22 1 22 23
M  V30 23 1 9 4
M  V30 24 1 17 12
M  V30 25 1 23 18
M  V30 26 1 1 24
M  V30 27 1 1 25
M  V30 28 1 1 26
M  V30 29 1 2 27
M  V30 30 1 2 28
M  V30 31 1 5 29
M  V30 32 1 6 30
M  V30 33 1 7 31
M  V30 34 1 8 32
M  V30 35 1 11 33 CFG=3
M  V30 36 1 13 34
M  V30 37 1 14 35
M  V30 38 1 15 36
M  V30 39 1 16 37
M  V30 40 1 17 38
M  V30 41 1 18 39 CFG=1
M  V30 42 1 19 40
M  V30 43 1 19 41
M  V30 44 1 20 42
M  V30 45 1 21 43
M  V30 46 1 21 44
M  V30 47 1 22 45
M  V30 48 1 22 46
M  V30 END BOND
M  V30 END CTAB
M  END
>  <Dataset>  (160) 
ChEMBL_Kinases

>  <Ligand_Instance>  (160) 
nan

>  <PDB_ID>  (160) 
nan

>  <Standardized_SMILES>  (160) 
CCOc1ccccc1O[C@@H](c1ccccc1)[C@@H]1CNCCO1

>  <Name>  (160) 
ESREBOXETINE

>  <Pocket>  (160) 
nan

>  <ATP_Site>  (160) 
nan

>  <Peripheral>  (160) 
nan

>  <Num_H_Atoms_ProtBoundConf>  (160) 
nan

>  <Num_Resolved_Atoms>  (160) 
nan

>  <Num_Not_Resolved_Atoms>  (160) 
nan

$$$$
CHEMBL1801088
     RDKit          3D

  0  0  0  0  0  0  0  0  0  0999 V3000
M  V30 BEGIN CTAB
M  V30 COUNTS 62 67 0 0 0
M  V30 BEGIN ATOM
M  V30 1 O 4.113443 3.270364 2.192799 0
M  V30 2 C 4.113485 2.036283 1.970556 0
M  V30 3 N 5.312359 1.256921 2.162889 0
M  V30 4 C 5.525694 -0.129730 1.724681 0
M  V30 5 C 5.000824 -0.202277 0.322514 0
M  V30 6 C 3.567522 -0.598851 0.207916 0
M  V30 7 C 2.621376 0.377603 0.755015 0
M  V30 8 N 1.301449 0.270823 0.563778 0
M  V30 9 C 0.654359 1.277144 1.157928 0
M  V30 10 C 1.583855 2.102545 1.780062 0
M  V30 11 C 1.279329 3.229270 2.484085 0
M  V30 12 C -0.074815 3.531808 2.555668 0
M  V30 13 C -1.023208 2.743406 1.955827 0
M  V30 14 C -2.367977 3.015362 2.008418 0
M  V30 15 N -3.276863 2.230190 1.414344 0
M  V30 16 C -2.990996 1.114336 0.715670 0
M  V30 17 C -4.080789 0.377019 0.135952 0
M  V30 18 C -5.360791 0.860754 0.331756 0
M  V30 19 C -6.480316 0.237242 -0.176828 0
M  V30 20 C -6.378833 -0.919889 -0.919073 0
M  V30 21 C -5.117160 -1.431793 -1.134871 0
M  V30 22 C -4.039164 -0.762462 -0.600363 0
M  V30 23 O -2.806024 -1.332658 -0.856618 0
M  V30 24 C -2.592677 -2.506406 -1.599336 0
M  V30 25 C -1.151113 -2.894546 -1.717865 0
M  V30 26 N -0.494822 -3.142347 -0.460288 0
M  V30 27 C 0.874841 -3.501078 -0.772916 0
M  V30 28 C 1.407505 -4.597679 0.100579 0
M  V30 29 O 0.875204 -4.429566 1.373618 0
M  V30 30 C -0.448435 -4.884181 1.294225 0
M  V30 31 C -1.219563 -4.200807 0.213266 0
M  V30 32 C -1.645950 0.854328 0.670866 0
M  V30 33 C -0.671512 1.616223 1.255867 0
M  V30 34 C 2.807836 1.521475 1.515490 0
M  V30 35 H 6.018299 1.829198 2.666515 0
M  V30 36 H 4.998237 -0.787329 2.442651 0
M  V30 37 H 6.606442 -0.359223 1.798555 0
M  V30 38 H 5.588045 -1.028301 -0.176222 0
M  V30 39 H 5.252247 0.714879 -0.226320 0
M  V30 40 H 3.351734 -0.718984 -0.872088 0
M  V30 41 H 3.434049 -1.602345 0.655771 0
M  V30 42 H 0.797432 -0.468447 0.036863 0
M  V30 43 H 1.985011 3.863120 2.961069 0
M  V30 44 H -0.437736 4.391725 3.080915 0
M  V30 45 H -2.715862 3.890463 2.544924 0
M  V30 46 H -5.566822 1.775750 0.907002 0
M  V30 47 H -7.462296 0.636735 -0.008146 0
M  V30 48 H -7.244523 -1.405422 -1.314554 0
M  V30 49 H -5.013548 -2.329685 -1.708514 0
M  V30 50 H -3.236491 -3.320222 -1.213707 0
M  V30 51 H -2.952781 -2.315271 -2.631127 0
M  V30 52 H -1.102405 -3.796417 -2.360953 0
M  V30 53 H -0.643014 -2.085285 -2.286146 0
M  V30 54 H 1.543216 -2.625628 -0.703707 0
M  V30 55 H 0.977950 -3.846194 -1.839863 0
M  V30 56 H 1.029755 -5.558213 -0.295189 0
M  V30 57 H 2.508782 -4.548838 0.126183 0
M  V30 58 H -0.960339 -4.931601 2.265432 0
M  V30 59 H -0.349622 -5.961661 0.971335 0
M  V30 60 H -2.116098 -3.731279 0.670430 0
M  V30 61 H -1.589272 -4.889951 -0.577163 0
M  V30 62 H -1.319645 -0.002641 0.144150 0
M  V30 END ATOM
M  V30 BEGIN BOND
M  V30 1 2 1 2
M  V30 2 1 2 3
M  V30 3 1 3 4
M  V30 4 1 4 5
M  V30 5 1 5 6
M  V30 6 1 6 7
M  V30 7 1 7 8
M  V30 8 1 8 9
M  V30 9 2 9 10
M  V30 10 1 10 11
M  V30 11 2 11 12
M  V30 12 1 12 13
M  V30 13 2 13 14
M  V30 14 1 14 15
M  V30 15 2 15 16
M  V30 16 1 16 17
M  V30 17 2 17 18
M  V30 18 1 18 19
M  V30 19 2 19 20
M  V30 20 1 20 21
M  V30 21 2 21 22
M  V30 22 1 22 23
M  V30 23 1 23 24
M  V30 24 1 24 25
M  V30 25 1 25 26
M  V30 26 1 26 27
M  V30 27 1 27 28
M  V30 28 1 28 29
M  V30 29 1 29 30
M  V30 30 1 30 31
M  V30 31 1 16 32
M  V30 32 2 32 33
M  V30 33 1 10 34
M  V30 34 1 34 2
M  V30 35 2 34 7
M  V30 36 1 33 9
M  V30 37 1 33 13
M  V30 38 1 22 17
M  V30 39 1 31 26
M  V30 40 1 3 35
M  V30 41 1 4 36
M  V30 42 1 4 37
M  V30 43 1 5 38
M  V30 44 1 5 39
M  V30 45 1 6 40
M  V30 46 1 6 41
M  V30 47 1 8 42
M  V30 48 1 11 43
M  V30 49 1 12 44
M  V30 50 1 14 45
M  V30 51 1 18 46
M  V30 52 1 19 47
M  V30 53 1 20 48
M  V30 54 1 21 49
M  V30 55 1 24 50
M  V30 56 1 24 51
M  V30 57 1 25 52
M  V30 58 1 25 53
M  V30 59 1 27 54
M  V30 60 1 27 55
M  V30 61 1 28 56
M  V30 62 1 28 57
M  V30 63 1 30 58
M  V30 64 1 30 59
M  V30 65 1 31 60
M  V30 66 1 31 61
M  V30 67 1 32 62
M  V30 END BOND
M  V30 END CTAB
M  END
>  <Dataset>  (161) 
ChEMBL_Kinases

>  <Ligand_Instance>  (161) 
nan

>  <PDB_ID>  (161) 
nan

>  <Standardized_SMILES>  (161) 
O=C1NCCCc2[nH]c3c(ccc4cnc(-c5ccccc5OCCN5CCOCC5)cc43)c21

>  <Name>  (161) 
nan

>  <Pocket>  (161) 
nan

>  <ATP_Site>  (161) 
nan

>  <Peripheral>  (161) 
nan

>  <Num_H_Atoms_ProtBoundConf>  (161) 
nan

>  <Num_Resolved_Atoms>  (161) 
nan

>  <Num_Not_Resolved_Atoms>  (161) 
nan

$$$$
CHEMBL1800916
     RDKit          3D

  0  0  0  0  0  0  0  0  0  0999 V3000
M  V30 BEGIN CTAB
M  V30 COUNTS 51 55 0 0 0
M  V30 BEGIN ATOM
M  V30 1 C 1.473910 -1.383234 3.979481 0
M  V30 2 C 1.730339 -0.297199 3.035059 0
M  V30 3 C 2.561178 0.729015 3.436751 0
M  V30 4 F 3.132966 0.750773 4.661796 0
M  V30 5 C 2.831707 1.775897 2.579811 0
M  V30 6 C 2.262377 1.780627 1.323472 0
M  V30 7 C 2.448183 2.811105 0.303347 0
M  V30 8 O 1.934348 2.821851 -0.839660 0
M  V30 9 N 3.272133 3.951731 0.531613 0
M  V30 10 C 3.505204 5.010824 -0.424402 0
M  V30 11 C 4.744007 5.781194 -0.476886 0
M  V30 12 C 3.473372 6.441637 0.049508 0
M  V30 13 C 1.435456 0.738886 0.951860 0
M  V30 14 C 1.136166 -0.340601 1.790804 0
M  V30 15 C 0.253966 -1.408432 1.331665 0
M  V30 16 C 0.387897 -2.774291 1.434543 0
M  V30 17 C -0.598953 -3.587841 0.913582 0
M  V30 18 C -1.712888 -3.061766 0.294028 0
M  V30 19 C -1.868676 -1.694172 0.179155 0
M  V30 20 C -0.881017 -0.879278 0.700539 0
M  V30 21 N -3.105792 -1.477939 -0.500890 0
M  V30 22 C -3.732889 -2.714364 -0.816252 0
M  V30 23 O -4.834717 -2.812464 -1.415603 0
M  V30 24 C -2.842087 -3.777256 -0.306778 0
M  V30 25 C -3.590210 -4.647542 0.666971 0
M  V30 26 C -4.483359 -5.478674 -0.262016 0
M  V30 27 C -3.796285 -5.492125 -1.590605 0
M  V30 28 C -2.499813 -4.732658 -1.396065 0
M  V30 29 H 1.482870 -1.027562 5.051992 0
M  V30 30 H 2.279044 -2.140836 3.917997 0
M  V30 31 H 0.504460 -1.897781 3.876968 0
M  V30 32 H 3.471054 2.611169 2.825748 0
M  V30 33 H 3.772777 4.084083 1.447363 0
M  V30 34 H 2.973947 4.866223 -1.390511 0
M  V30 35 H 5.571942 5.691156 0.253155 0
M  V30 36 H 5.109352 6.168930 -1.451656 0
M  V30 37 H 3.385726 6.649381 1.133193 0
M  V30 38 H 2.998272 7.220799 -0.586312 0
M  V30 39 H 0.958121 0.697154 -0.038155 0
M  V30 40 H 1.294259 -3.062966 1.935109 0
M  V30 41 H -0.418108 -4.652392 1.035524 0
M  V30 42 H -1.100544 0.187755 0.557430 0
M  V30 43 H -3.500590 -0.523248 -0.737230 0
M  V30 44 H -2.905792 -5.290007 1.255673 0
M  V30 45 H -4.221081 -4.055826 1.359276 0
M  V30 46 H -4.581348 -6.522956 0.129660 0
M  V30 47 H -5.513135 -5.065682 -0.309632 0
M  V30 48 H -4.412531 -4.924471 -2.324601 0
M  V30 49 H -3.621661 -6.513582 -1.984300 0
M  V30 50 H -2.222864 -4.247770 -2.354819 0
M  V30 51 H -1.692988 -5.411984 -1.012041 0
M  V30 END ATOM
M  V30 BEGIN BOND
M  V30 1 1 1 2
M  V30 2 2 2 3
M  V30 3 1 3 4
M  V30 4 1 3 5
M  V30 5 2 5 6
M  V30 6 1 6 7
M  V30 7 2 7 8
M  V30 8 1 7 9
M  V30 9 1 9 10
M  V30 10 1 10 11
M  V30 11 1 11 12
M  V30 12 1 6 13
M  V30 13 2 13 14
M  V30 14 1 14 15
M  V30 15 2 15 16
M  V30 16 1 16 17
M  V30 17 2 17 18
M  V30 18 1 18 19
M  V30 19 2 19 20
M  V30 20 1 19 21
M  V30 21 1 21 22
M  V30 22 2 22 23
M  V30 23 1 22 24
M  V30 24 1 24 25
M  V30 25 1 25 26
M  V30 26 1 26 27
M  V30 27 1 27 28
M  V30 28 1 14 2
M  V30 29 1 20 15
M  V30 30 1 28 24
M  V30 31 1 12 10
M  V30 32 1 24 18
M  V30 33 1 1 29
M  V30 34 1 1 30
M  V30 35 1 1 31
M  V30 36 1 5 32
M  V30 37 1 9 33
M  V30 38 1 10 34
M  V30 39 1 11 35
M  V30 40 1 11 36
M  V30 41 1 12 37
M  V30 42 1 12 38
M  V30 43 1 13 39
M  V30 44 1 16 40
M  V30 45 1 17 41
M  V30 46 1 20 42
M  V30 47 1 21 43
M  V30 48 1 25 44
M  V30 49 1 25 45
M  V30 50 1 26 46
M  V30 51 1 26 47
M  V30 52 1 27 48
M  V30 53 1 27 49
M  V30 54 1 28 50
M  V30 55 1 28 51
M  V30 END BOND
M  V30 END CTAB
M  END
>  <Dataset>  (162) 
ChEMBL_Kinases

>  <Ligand_Instance>  (162) 
nan

>  <PDB_ID>  (162) 
nan

>  <Standardized_SMILES>  (162) 
Cc1c(F)cc(C(=O)NC2CC2)cc1-c1ccc2c(c1)NC(=O)C21CCCC1

>  <Name>  (162) 
nan

>  <Pocket>  (162) 
nan

>  <ATP_Site>  (162) 
nan

>  <Peripheral>  (162) 
nan

>  <Num_H_Atoms_ProtBoundConf>  (162) 
nan

>  <Num_Resolved_Atoms>  (162) 
nan

>  <Num_Not_Resolved_Atoms>  (162) 
nan

$$$$
CHEMBL1773735
     RDKit          3D

  0  0  0  0  0  0  0  0  0  0999 V3000
M  V30 BEGIN CTAB
M  V30 COUNTS 45 48 0 0 0
M  V30 BEGIN ATOM
M  V30 1 C 5.688833 -4.062113 4.936775 0
M  V30 2 C 4.855194 -3.262254 4.002638 0
M  V30 3 O 3.740516 -2.838798 4.405639 0
M  V30 4 N 5.280795 -2.973850 2.697886 0
M  V30 5 C 4.300902 -2.160056 1.922877 0
M  V30 6 N 4.181025 -1.048464 1.812563 0
M  V30 7 C 3.343809 -0.288408 1.149826 0
M  V30 8 C 3.260210 1.087059 1.063189 0
M  V30 9 C 2.284676 1.672172 0.295247 0
M  V30 10 C 1.336235 0.983619 -0.431621 0
M  V30 11 C 0.280321 1.542599 -1.263562 0
M  V30 12 C 0.473887 2.734535 -1.930730 0
M  V30 13 N -0.543916 3.193372 -2.681442 0
M  V30 14 C -1.714303 2.551962 -2.804541 0
M  V30 15 Cl -2.968945 3.236126 -3.804857 0
M  V30 16 C -1.978050 1.339901 -2.156282 0
M  V30 17 N -3.209727 0.639054 -2.271318 0
M  V30 18 S -3.564530 -0.805204 -1.430020 0
M  V30 19 O -4.945547 -1.262909 -1.831062 0
M  V30 20 O -2.587918 -1.888121 -1.851366 0
M  V30 21 C -3.551042 -0.633538 0.295833 0
M  V30 22 C -3.304757 0.482592 1.057451 0
M  V30 23 C -3.347907 0.394066 2.446641 0
M  V30 24 C -3.627422 -0.765570 3.103548 0
M  V30 25 C -3.874822 -1.886059 2.345187 0
M  V30 26 C -3.837949 -1.823474 0.971535 0
M  V30 27 F -4.104332 -3.015783 0.353175 0
M  V30 28 C -0.926171 0.882973 -1.391369 0
M  V30 29 C 1.400450 -0.391801 -0.360054 0
M  V30 30 C 2.423861 -0.964143 0.444901 0
M  V30 31 S 2.832595 -2.679200 0.789087 0
M  V30 32 H 5.267704 -5.084173 5.120992 0
M  V30 33 H 6.719083 -4.198100 4.565396 0
M  V30 34 H 5.681200 -3.575120 5.932555 0
M  V30 35 H 6.175292 -3.290822 2.316382 0
M  V30 36 H 3.926628 1.803449 1.570349 0
M  V30 37 H 2.199317 2.767690 0.211743 0
M  V30 38 H 1.427476 3.220955 -1.807571 0
M  V30 39 H -3.912741 1.086147 -2.932857 0
M  V30 40 H -3.092849 1.358330 0.469794 0
M  V30 41 H -3.142405 1.318601 2.987392 0
M  V30 42 H -3.652710 -0.798373 4.191845 0
M  V30 43 H -4.096811 -2.805050 2.892050 0
M  V30 44 H -1.048898 -0.052555 -0.854339 0
M  V30 45 H 0.782577 -1.114269 -0.829358 0
M  V30 END ATOM
M  V30 BEGIN BOND
M  V30 1 1 1 2
M  V30 2 2 2 3
M  V30 3 1 2 4
M  V30 4 1 4 5
M  V30 5 2 5 6
M  V30 6 1 6 7
M  V30 7 2 7 8
M  V30 8 1 8 9
M  V30 9 2 9 10
M  V30 10 1 10 11
M  V30 11 2 11 12
M  V30 12 1 12 13
M  V30 13 2 13 14
M  V30 14 1 14 15
M  V30 15 1 14 16
M  V30 16 1 16 17
M  V30 17 1 17 18
M  V30 18 2 18 19
M  V30 19 2 18 20
M  V30 20 1 18 21
M  V30 21 2 21 22
M  V30 22 1 22 23
M  V30 23 2 23 24
M  V30 24 1 24 25
M  V30 25 2 25 26
M  V30 26 1 26 27
M  V30 27 2 16 28
M  V30 28 1 10 29
M  V30 29 2 29 30
M  V30 30 1 30 31
M  V30 31 1 31 5
M  V30 32 1 30 7
M  V30 33 1 28 11
M  V30 34 1 26 21
M  V30 35 1 1 32
M  V30 36 1 1 33
M  V30 37 1 1 34
M  V30 38 1 4 35
M  V30 39 1 8 36
M  V30 40 1 9 37
M  V30 41 1 12 38
M  V30 42 1 17 39
M  V30 43 1 22 40
M  V30 44 1 23 41
M  V30 45 1 24 42
M  V30 46 1 25 43
M  V30 47 1 28 44
M  V30 48 1 29 45
M  V30 END BOND
M  V30 END CTAB
M  END
>  <Dataset>  (163) 
ChEMBL_Kinases

>  <Ligand_Instance>  (163) 
nan

>  <PDB_ID>  (163) 
nan

>  <Standardized_SMILES>  (163) 
CC(=O)Nc1nc2ccc(-c3cnc(Cl)c(NS(=O)(=O)c4ccccc4F)c3)cc2s1

>  <Name>  (163) 
nan

>  <Pocket>  (163) 
nan

>  <ATP_Site>  (163) 
nan

>  <Peripheral>  (163) 
nan

>  <Num_H_Atoms_ProtBoundConf>  (163) 
nan

>  <Num_Resolved_Atoms>  (163) 
nan

>  <Num_Not_Resolved_Atoms>  (163) 
nan

$$$$
CHEMBL1773734
     RDKit          3D

  0  0  0  0  0  0  0  0  0  0999 V3000
M  V30 BEGIN CTAB
M  V30 COUNTS 57 60 0 0 0
M  V30 BEGIN ATOM
M  V30 1 C 6.360395 -5.825795 1.241798 0
M  V30 2 C 5.583075 -4.596665 0.937385 0
M  V30 3 O 5.095117 -4.506960 -0.228535 0
M  V30 4 N 5.419195 -3.608822 1.914131 0
M  V30 5 C 4.703337 -2.376710 1.776753 0
M  V30 6 N 4.381211 -1.390740 2.336028 0
M  V30 7 C 3.659950 -0.394089 1.844325 0
M  V30 8 C 3.278162 0.767494 2.496858 0
M  V30 9 C 2.524320 1.707894 1.837388 0
M  V30 10 C 2.099295 1.588803 0.529990 0
M  V30 11 C 1.296351 2.565758 -0.195942 0
M  V30 12 C 1.320027 3.934115 -0.021702 0
M  V30 13 N 0.512720 4.710043 -0.768316 0
M  V30 14 C -0.333881 4.232669 -1.692552 0
M  V30 15 Cl -1.379979 5.267890 -2.656570 0
M  V30 16 C -0.436618 2.862015 -1.948514 0
M  V30 17 N -1.283934 2.238909 -2.893463 0
M  V30 18 S -1.585528 0.584719 -3.162244 0
M  V30 19 O -0.344705 -0.160943 -3.576386 0
M  V30 20 O -2.518549 0.472077 -4.353740 0
M  V30 21 C -2.291459 -0.240759 -1.793735 0
M  V30 22 C -1.661360 -0.988665 -0.824524 0
M  V30 23 C -2.333602 -1.588218 0.218877 0
M  V30 24 C -3.712551 -1.457402 0.336274 0
M  V30 25 C -4.315158 -2.150848 1.503407 0
M  V30 26 C -5.811364 -1.995510 1.589779 0
M  V30 27 C -3.986066 -3.634649 1.438606 0
M  V30 28 C -3.641679 -1.610685 2.761343 0
M  V30 29 C -4.378677 -0.711829 -0.621545 0
M  V30 30 C -3.681656 -0.117956 -1.662250 0
M  V30 31 C 0.414812 2.091860 -1.156178 0
M  V30 32 C 2.471549 0.435994 -0.136675 0
M  V30 33 C 3.217031 -0.483292 0.531821 0
M  V30 34 S 3.913961 -2.115647 0.042999 0
M  V30 35 H 7.335947 -5.521113 1.689410 0
M  V30 36 H 6.601858 -6.402161 0.330429 0
M  V30 37 H 5.832707 -6.490113 1.960889 0
M  V30 38 H 5.808352 -3.655507 2.879185 0
M  V30 39 H 3.525335 1.018948 3.520083 0
M  V30 40 H 2.211279 2.627110 2.321211 0
M  V30 41 H 2.001909 4.310855 0.720895 0
M  V30 42 H -1.765039 2.977044 -3.482334 0
M  V30 43 H -0.602583 -1.079283 -0.942306 0
M  V30 44 H -1.700049 -2.144692 0.903193 0
M  V30 45 H -6.131383 -1.071894 2.090292 0
M  V30 46 H -6.157830 -2.846368 2.234652 0
M  V30 47 H -6.242239 -2.147114 0.602122 0
M  V30 48 H -4.479753 -4.137319 0.598308 0
M  V30 49 H -4.244275 -4.122321 2.405060 0
M  V30 50 H -2.872749 -3.764432 1.293259 0
M  V30 51 H -3.801304 -0.537153 2.853421 0
M  V30 52 H -4.084866 -2.125710 3.657081 0
M  V30 53 H -2.587310 -1.943888 2.727503 0
M  V30 54 H -5.437599 -0.634633 -0.497397 0
M  V30 55 H -4.297083 0.442063 -2.356164 0
M  V30 56 H 0.369598 1.032073 -1.324595 0
M  V30 57 H 2.225347 0.197803 -1.137998 0
M  V30 END ATOM
M  V30 BEGIN BOND
M  V30 1 1 1 2
M  V30 2 2 2 3
M  V30 3 1 2 4
M  V30 4 1 4 5
M  V30 5 2 5 6
M  V30 6 1 6 7
M  V30 7 2 7 8
M  V30 8 1 8 9
M  V30 9 2 9 10
M  V30 10 1 10 11
M  V30 11 2 11 12
M  V30 12 1 12 13
M  V30 13 2 13 14
M  V30 14 1 14 15
M  V30 15 1 14 16
M  V30 16 1 16 17
M  V30 17 1 17 18
M  V30 18 2 18 19
M  V30 19 2 18 20
M  V30 20 1 18 21
M  V30 21 2 21 22
M  V30 22 1 22 23
M  V30 23 2 23 24
M  V30 24 1 24 25
M  V30 25 1 25 26
M  V30 26 1 25 27
M  V30 27 1 25 28
M  V30 28 1 24 29
M  V30 29 2 29 30
M  V30 30 2 16 31
M  V30 31 1 10 32
M  V30 32 2 32 33
M  V30 33 1 33 34
M  V30 34 1 34 5
M  V30 35 1 33 7
M  V30 36 1 31 11
M  V30 37 1 30 21
M  V30 38 1 1 35
M  V30 39 1 1 36
M  V30 40 1 1 37
M  V30 41 1 4 38
M  V30 42 1 8 39
M  V30 43 1 9 40
M  V30 44 1 12 41
M  V30 45 1 17 42
M  V30 46 1 22 43
M  V30 47 1 23 44
M  V30 48 1 26 45
M  V30 49 1 26 46
M  V30 50 1 26 47
M  V30 51 1 27 48
M  V30 52 1 27 49
M  V30 53 1 27 50
M  V30 54 1 28 51
M  V30 55 1 28 52
M  V30 56 1 28 53
M  V30 57 1 29 54
M  V30 58 1 30 55
M  V30 59 1 31 56
M  V30 60 1 32 57
M  V30 END BOND
M  V30 END CTAB
M  END
>  <Dataset>  (164) 
ChEMBL_Kinases

>  <Ligand_Instance>  (164) 
nan

>  <PDB_ID>  (164) 
nan

>  <Standardized_SMILES>  (164) 
CC(=O)Nc1nc2ccc(-c3cnc(Cl)c(NS(=O)(=O)c4ccc(C(C)(C)C)cc4)c3)cc2s1

>  <Name>  (164) 
nan

>  <Pocket>  (164) 
nan

>  <ATP_Site>  (164) 
nan

>  <Peripheral>  (164) 
nan

>  <Num_H_Atoms_ProtBoundConf>  (164) 
nan

>  <Num_Resolved_Atoms>  (164) 
nan

>  <Num_Not_Resolved_Atoms>  (164) 
nan

$$$$
CHEMBL1773733
     RDKit          3D

  0  0  0  0  0  0  0  0  0  0999 V3000
M  V30 BEGIN CTAB
M  V30 COUNTS 57 60 0 0 0
M  V30 BEGIN ATOM
M  V30 1 C 6.876145 -5.352466 1.704777 0
M  V30 2 C 6.344653 -4.244695 0.877798 0
M  V30 3 O 6.695885 -3.618058 -0.160822 0
M  V30 4 N 5.119651 -3.834068 1.470707 0
M  V30 5 C 4.245800 -2.766039 0.984019 0
M  V30 6 N 4.247733 -1.651876 1.237428 0
M  V30 7 C 3.508798 -0.652513 0.842032 0
M  V30 8 C 3.538673 0.694240 1.173891 0
M  V30 9 C 2.633962 1.565246 0.613419 0
M  V30 10 C 1.658856 1.189328 -0.289988 0
M  V30 11 C 0.720267 2.145798 -0.851705 0
M  V30 12 C 1.226687 3.423900 -1.018127 0
M  V30 13 N 0.456768 4.398762 -1.517222 0
M  V30 14 C -0.817942 4.186248 -1.872778 0
M  V30 15 Cl -1.764705 5.519406 -2.516416 0
M  V30 16 C -1.399410 2.923233 -1.734501 0
M  V30 17 N -2.746276 2.664916 -2.092858 0
M  V30 18 S -3.682154 1.244740 -2.208096 0
M  V30 19 O -3.080120 0.324260 -3.254066 0
M  V30 20 O -5.062521 1.582990 -2.752228 0
M  V30 21 C -3.863740 0.378541 -0.705484 0
M  V30 22 C -4.906406 0.872899 0.092527 0
M  V30 23 C -5.145812 0.239352 1.310311 0
M  V30 24 C -4.376475 -0.848294 1.721311 0
M  V30 25 C -3.347684 -1.347252 0.948820 0
M  V30 26 C -2.523893 -2.493809 1.349552 0
M  V30 27 C -3.168641 -3.765131 0.816392 0
M  V30 28 C -2.565096 -2.619504 2.868011 0
M  V30 29 C -1.105485 -2.456552 0.891380 0
M  V30 30 C -3.137272 -0.700030 -0.244973 0
M  V30 31 C -0.590143 1.950380 -1.223456 0
M  V30 32 C 1.570547 -0.129896 -0.665308 0
M  V30 33 C 2.525933 -0.973796 -0.056450 0
M  V30 34 S 2.775727 -2.798762 -0.257998 0
M  V30 35 H 7.122849 -5.022219 2.742646 0
M  V30 36 H 6.155164 -6.190448 1.797498 0
M  V30 37 H 7.771889 -5.763821 1.199267 0
M  V30 38 H 4.589142 -4.161258 2.312936 0
M  V30 39 H 4.263192 1.125760 1.879452 0
M  V30 40 H 2.684933 2.632177 0.899797 0
M  V30 41 H 2.242710 3.712144 -0.768856 0
M  V30 42 H -3.270305 3.565178 -2.339564 0
M  V30 43 H -5.560618 1.704139 -0.124198 0
M  V30 44 H -5.924395 0.534732 2.018123 0
M  V30 45 H -4.584271 -1.336255 2.684387 0
M  V30 46 H -2.400317 -4.558660 0.828376 0
M  V30 47 H -3.546985 -3.619923 -0.215549 0
M  V30 48 H -3.978656 -4.100469 1.478343 0
M  V30 49 H -1.703577 -3.241559 3.238809 0
M  V30 50 H -3.469303 -3.153407 3.216341 0
M  V30 51 H -2.533404 -1.632036 3.370713 0
M  V30 52 H -0.670096 -3.465614 1.137667 0
M  V30 53 H -0.531228 -1.651702 1.407910 0
M  V30 54 H -1.044278 -2.325732 -0.203464 0
M  V30 55 H -2.376199 -0.976682 -0.936701 0
M  V30 56 H -0.921748 0.933154 -1.070577 0
M  V30 57 H 0.885205 -0.572752 -1.342167 0
M  V30 END ATOM
M  V30 BEGIN BOND
M  V30 1 1 1 2
M  V30 2 2 2 3
M  V30 3 1 2 4
M  V30 4 1 4 5
M  V30 5 2 5 6
M  V30 6 1 6 7
M  V30 7 2 7 8
M  V30 8 1 8 9
M  V30 9 2 9 10
M  V30 10 1 10 11
M  V30 11 2 11 12
M  V30 12 1 12 13
M  V30 13 2 13 14
M  V30 14 1 14 15
M  V30 15 1 14 16
M  V30 16 1 16 17
M  V30 17 1 17 18
M  V30 18 2 18 19
M  V30 19 2 18 20
M  V30 20 1 18 21
M  V30 21 2 21 22
M  V30 22 1 22 23
M  V30 23 2 23 24
M  V30 24 1 24 25
M  V30 25 1 25 26
M  V30 26 1 26 27
M  V30 27 1 26 28
M  V30 28 1 26 29
M  V30 29 2 25 30
M  V30 30 2 16 31
M  V30 31 1 10 32
M  V30 32 2 32 33
M  V30 33 1 33 34
M  V30 34 1 34 5
M  V30 35 1 33 7
M  V30 36 1 31 11
M  V30 37 1 30 21
M  V30 38 1 1 35
M  V30 39 1 1 36
M  V30 40 1 1 37
M  V30 41 1 4 38
M  V30 42 1 8 39
M  V30 43 1 9 40
M  V30 44 1 12 41
M  V30 45 1 17 42
M  V30 46 1 22 43
M  V30 47 1 23 44
M  V30 48 1 24 45
M  V30 49 1 27 46
M  V30 50 1 27 47
M  V30 51 1 27 48
M  V30 52 1 28 49
M  V30 53 1 28 50
M  V30 54 1 28 51
M  V30 55 1 29 52
M  V30 56 1 29 53
M  V30 57 1 29 54
M  V30 58 1 30 55
M  V30 59 1 31 56
M  V30 60 1 32 57
M  V30 END BOND
M  V30 END CTAB
M  END
>  <Dataset>  (165) 
ChEMBL_Kinases

>  <Ligand_Instance>  (165) 
nan

>  <PDB_ID>  (165) 
nan

>  <Standardized_SMILES>  (165) 
CC(=O)Nc1nc2ccc(-c3cnc(Cl)c(NS(=O)(=O)c4cccc(C(C)(C)C)c4)c3)cc2s1

>  <Name>  (165) 
nan

>  <Pocket>  (165) 
nan

>  <ATP_Site>  (165) 
nan

>  <Peripheral>  (165) 
nan

>  <Num_H_Atoms_ProtBoundConf>  (165) 
nan

>  <Num_Resolved_Atoms>  (165) 
nan

>  <Num_Not_Resolved_Atoms>  (165) 
nan

$$$$
CHEMBL1773732
     RDKit          3D

  0  0  0  0  0  0  0  0  0  0999 V3000
M  V30 BEGIN CTAB
M  V30 COUNTS 45 48 0 0 0
M  V30 BEGIN ATOM
M  V30 1 C 6.264178 -4.036705 4.716678 0
M  V30 2 C 5.294152 -3.265765 3.912141 0
M  V30 3 O 4.056941 -3.297797 4.165699 0
M  V30 4 N 5.819247 -2.503339 2.861042 0
M  V30 5 C 4.730329 -1.776437 2.133098 0
M  V30 6 N 4.331386 -0.751407 2.352446 0
M  V30 7 C 3.397676 -0.007830 1.805467 0
M  V30 8 C 2.931502 1.258770 2.104408 0
M  V30 9 C 1.926602 1.822350 1.362315 0
M  V30 10 C 1.299847 1.221961 0.290491 0
M  V30 11 C 0.235387 1.794101 -0.516299 0
M  V30 12 C 0.261264 3.152431 -0.674680 0
M  V30 13 N -0.722742 3.703049 -1.422138 0
M  V30 14 C -1.691925 2.971220 -1.993008 0
M  V30 15 Cl -2.919364 3.788879 -2.943780 0
M  V30 16 C -1.766433 1.578116 -1.863489 0
M  V30 17 N -2.797529 0.820398 -2.478106 0
M  V30 18 S -3.167023 -0.820592 -2.203789 0
M  V30 19 O -4.256559 -1.269376 -3.121447 0
M  V30 20 O -1.946739 -1.644899 -2.592140 0
M  V30 21 C -3.638448 -1.180664 -0.569861 0
M  V30 22 C -4.993147 -1.010231 -0.286004 0
M  V30 23 C -5.525730 -1.258603 0.961782 0
M  V30 24 C -4.727785 -1.691412 1.991821 0
M  V30 25 Cl -5.384765 -2.011609 3.581740 0
M  V30 26 C -3.392288 -1.861178 1.717963 0
M  V30 27 C -2.868766 -1.615395 0.485392 0
M  V30 28 C -0.758909 1.041974 -1.101955 0
M  V30 29 C 1.745394 -0.041825 -0.028841 0
M  V30 30 C 2.785731 -0.603941 0.752978 0
M  V30 31 S 3.603880 -2.196405 0.629680 0
M  V30 32 H 6.827935 -4.796255 4.168098 0
M  V30 33 H 7.041021 -3.363165 5.177524 0
M  V30 34 H 5.700795 -4.568229 5.527621 0
M  V30 35 H 6.790287 -2.388281 2.548216 0
M  V30 36 H 3.315595 1.880062 2.922896 0
M  V30 37 H 1.552849 2.832342 1.598499 0
M  V30 38 H 1.020574 3.785775 -0.235280 0
M  V30 39 H -3.386160 1.359904 -3.180780 0
M  V30 40 H -5.744137 -0.673132 -1.001747 0
M  V30 41 H -6.575410 -1.132184 1.202531 0
M  V30 42 H -2.704014 -2.196930 2.470652 0
M  V30 43 H -1.826030 -1.742206 0.239010 0
M  V30 44 H -0.715977 -0.003339 -0.940454 0
M  V30 45 H 1.406140 -0.675206 -0.806245 0
M  V30 END ATOM
M  V30 BEGIN BOND
M  V30 1 1 1 2
M  V30 2 2 2 3
M  V30 3 1 2 4
M  V30 4 1 4 5
M  V30 5 2 5 6
M  V30 6 1 6 7
M  V30 7 2 7 8
M  V30 8 1 8 9
M  V30 9 2 9 10
M  V30 10 1 10 11
M  V30 11 2 11 12
M  V30 12 1 12 13
M  V30 13 2 13 14
M  V30 14 1 14 15
M  V30 15 1 14 16
M  V30 16 1 16 17
M  V30 17 1 17 18
M  V30 18 2 18 19
M  V30 19 2 18 20
M  V30 20 1 18 21
M  V30 21 2 21 22
M  V30 22 1 22 23
M  V30 23 2 23 24
M  V30 24 1 24 25
M  V30 25 1 24 26
M  V30 26 2 26 27
M  V30 27 2 16 28
M  V30 28 1 10 29
M  V30 29 2 29 30
M  V30 30 1 30 31
M  V30 31 1 31 5
M  V30 32 1 30 7
M  V30 33 1 28 11
M  V30 34 1 27 21
M  V30 35 1 1 32
M  V30 36 1 1 33
M  V30 37 1 1 34
M  V30 38 1 4 35
M  V30 39 1 8 36
M  V30 40 1 9 37
M  V30 41 1 12 38
M  V30 42 1 17 39
M  V30 43 1 22 40
M  V30 44 1 23 41
M  V30 45 1 26 42
M  V30 46 1 27 43
M  V30 47 1 28 44
M  V30 48 1 29 45
M  V30 END BOND
M  V30 END CTAB
M  END
>  <Dataset>  (166) 
ChEMBL_Kinases

>  <Ligand_Instance>  (166) 
nan

>  <PDB_ID>  (166) 
nan

>  <Standardized_SMILES>  (166) 
CC(=O)Nc1nc2ccc(-c3cnc(Cl)c(NS(=O)(=O)c4ccc(Cl)cc4)c3)cc2s1

>  <Name>  (166) 
nan

>  <Pocket>  (166) 
nan

>  <ATP_Site>  (166) 
nan

>  <Peripheral>  (166) 
nan

>  <Num_H_Atoms_ProtBoundConf>  (166) 
nan

>  <Num_Resolved_Atoms>  (166) 
nan

>  <Num_Not_Resolved_Atoms>  (166) 
nan

$$$$
CHEMBL1773731
     RDKit          3D

  0  0  0  0  0  0  0  0  0  0999 V3000
M  V30 BEGIN CTAB
M  V30 COUNTS 45 48 0 0 0
M  V30 BEGIN ATOM
M  V30 1 C 6.946920 -3.723135 3.529003 0
M  V30 2 C 5.755447 -3.037922 2.942122 0
M  V30 3 O 4.655900 -2.904801 3.538615 0
M  V30 4 N 5.962346 -2.536618 1.630050 0
M  V30 5 C 4.759961 -1.864491 1.082202 0
M  V30 6 N 4.552579 -0.706143 1.227141 0
M  V30 7 C 3.527622 -0.006020 0.789264 0
M  V30 8 C 3.210170 1.337099 0.912081 0
M  V30 9 C 2.067918 1.834875 0.358857 0
M  V30 10 C 1.145844 1.093859 -0.349992 0
M  V30 11 C -0.081642 1.585530 -0.954779 0
M  V30 12 C -0.169615 2.861573 -1.444773 0
M  V30 13 N -1.318909 3.284239 -1.994826 0
M  V30 14 C -2.389361 2.483167 -2.076900 0
M  V30 15 Cl -3.850203 3.140631 -2.819443 0
M  V30 16 C -2.406501 1.174589 -1.611409 0
M  V30 17 N -3.541597 0.330390 -1.703574 0
M  V30 18 S -3.783453 -1.184218 -0.961528 0
M  V30 19 O -5.089940 -1.777181 -1.378515 0
M  V30 20 O -2.714380 -2.172183 -1.412046 0
M  V30 21 C -3.763686 -1.128307 0.779387 0
M  V30 22 C -4.981458 -0.826813 1.401882 0
M  V30 23 C -5.139276 -0.746740 2.768494 0
M  V30 24 C -4.048736 -0.972682 3.593296 0
M  V30 25 C -2.820574 -1.275920 2.995861 0
M  V30 26 Cl -1.421495 -1.567445 3.989250 0
M  V30 27 C -2.710318 -1.344769 1.640228 0
M  V30 28 C -1.203922 0.793472 -1.058001 0
M  V30 29 C 1.374214 -0.253178 -0.525713 0
M  V30 30 C 2.559022 -0.722313 0.058882 0
M  V30 31 S 3.310941 -2.457282 0.099537 0
M  V30 32 H 6.640877 -4.007094 4.564982 0
M  V30 33 H 7.152144 -4.686903 3.015453 0
M  V30 34 H 7.833152 -3.061267 3.592045 0
M  V30 35 H 6.839232 -2.617547 1.096886 0
M  V30 36 H 3.852436 2.022638 1.444811 0
M  V30 37 H 1.835547 2.907802 0.469301 0
M  V30 38 H 0.708042 3.506898 -1.373361 0
M  V30 39 H -4.315990 0.715448 -2.315225 0
M  V30 40 H -5.887392 -0.635802 0.822143 0
M  V30 41 H -6.082250 -0.513640 3.236447 0
M  V30 42 H -4.072177 -0.932896 4.668764 0
M  V30 43 H -1.779369 -1.579983 1.145625 0
M  V30 44 H -1.095355 -0.206909 -0.664264 0
M  V30 45 H 0.806115 -0.995014 -1.028117 0
M  V30 END ATOM
M  V30 BEGIN BOND
M  V30 1 1 1 2
M  V30 2 2 2 3
M  V30 3 1 2 4
M  V30 4 1 4 5
M  V30 5 2 5 6
M  V30 6 1 6 7
M  V30 7 2 7 8
M  V30 8 1 8 9
M  V30 9 2 9 10
M  V30 10 1 10 11
M  V30 11 2 11 12
M  V30 12 1 12 13
M  V30 13 2 13 14
M  V30 14 1 14 15
M  V30 15 1 14 16
M  V30 16 1 16 17
M  V30 17 1 17 18
M  V30 18 2 18 19
M  V30 19 2 18 20
M  V30 20 1 18 21
M  V30 21 2 21 22
M  V30 22 1 22 23
M  V30 23 2 23 24
M  V30 24 1 24 25
M  V30 25 1 25 26
M  V30 26 2 25 27
M  V30 27 2 16 28
M  V30 28 1 10 29
M  V30 29 2 29 30
M  V30 30 1 30 31
M  V30 31 1 31 5
M  V30 32 1 30 7
M  V30 33 1 28 11
M  V30 34 1 27 21
M  V30 35 1 1 32
M  V30 36 1 1 33
M  V30 37 1 1 34
M  V30 38 1 4 35
M  V30 39 1 8 36
M  V30 40 1 9 37
M  V30 41 1 12 38
M  V30 42 1 17 39
M  V30 43 1 22 40
M  V30 44 1 23 41
M  V30 45 1 24 42
M  V30 46 1 27 43
M  V30 47 1 28 44
M  V30 48 1 29 45
M  V30 END BOND
M  V30 END CTAB
M  END
>  <Dataset>  (167) 
ChEMBL_Kinases

>  <Ligand_Instance>  (167) 
nan

>  <PDB_ID>  (167) 
nan

>  <Standardized_SMILES>  (167) 
CC(=O)Nc1nc2ccc(-c3cnc(Cl)c(NS(=O)(=O)c4cccc(Cl)c4)c3)cc2s1

>  <Name>  (167) 
nan

>  <Pocket>  (167) 
nan

>  <ATP_Site>  (167) 
nan

>  <Peripheral>  (167) 
nan

>  <Num_H_Atoms_ProtBoundConf>  (167) 
nan

>  <Num_Resolved_Atoms>  (167) 
nan

>  <Num_Not_Resolved_Atoms>  (167) 
nan

$$$$
CHEMBL1773730
     RDKit          3D

  0  0  0  0  0  0  0  0  0  0999 V3000
M  V30 BEGIN CTAB
M  V30 COUNTS 45 48 0 0 0
M  V30 BEGIN ATOM
M  V30 1 C 1.086495 -1.795425 6.015837 0
M  V30 2 C 2.166288 -1.127879 5.171999 0
M  V30 3 O 2.007588 -1.755420 4.021426 0
M  V30 4 N 3.292731 -0.111597 5.030157 0
M  V30 5 C 3.539871 -0.457123 3.519448 0
M  V30 6 N 3.331392 -0.223427 2.526183 0
M  V30 7 C 3.087337 0.046258 1.341761 0
M  V30 8 C 3.095416 -0.435235 0.062741 0
M  V30 9 C 2.505023 0.289392 -0.928025 0
M  V30 10 C 1.892475 1.489651 -0.715332 0
M  V30 11 C 0.829791 2.305927 -1.303086 0
M  V30 12 C 0.379942 3.516217 -1.640701 0
M  V30 13 N -0.894507 3.836486 -1.899242 0
M  V30 14 C -1.871419 2.977922 -1.842564 0
M  V30 15 Cl -3.537964 3.356085 -2.163460 0
M  V30 16 C -1.648256 1.634716 -1.512136 0
M  V30 17 N -2.615015 0.583848 -1.286664 0
M  V30 18 S -2.905175 -1.077650 -1.424127 0
M  V30 19 O -4.311193 -1.313632 -0.836096 0
M  V30 20 O -2.962077 -1.500132 -2.914625 0
M  V30 21 C -1.880160 -2.128946 -0.534727 0
M  V30 22 C -0.840683 -2.136799 0.333021 0
M  V30 23 C -0.179211 -3.201324 0.870371 0
M  V30 24 C -0.577496 -4.495306 0.527465 0
M  V30 25 C -1.656668 -4.586607 -0.366643 0
M  V30 26 C -2.269236 -3.427135 -0.863266 0
M  V30 27 Cl -3.591628 -3.931665 -1.928024 0
M  V30 28 C -0.265487 1.387593 -1.268476 0
M  V30 29 C 1.844605 2.092995 0.576928 0
M  V30 30 C 2.503223 1.234831 1.563046 0
M  V30 31 S 2.659899 1.259931 3.362862 0
M  V30 32 H 1.349653 -2.857161 6.083697 0
M  V30 33 H 0.095654 -1.735566 5.464452 0
M  V30 34 H 0.977157 -1.311755 6.977196 0
M  V30 35 H 2.992964 -0.030360 5.942844 0
M  V30 36 H 3.501423 -1.339502 -0.250681 0
M  V30 37 H 2.383223 0.126381 -1.980176 0
M  V30 38 H 1.304728 4.105580 -1.623191 0
M  V30 39 H -3.429224 1.143075 -0.855059 0
M  V30 40 H -0.548675 -1.152537 0.587127 0
M  V30 41 H 0.618452 -3.028499 1.529676 0
M  V30 42 H -0.032107 -5.289991 0.946714 0
M  V30 43 H -1.899264 -5.635715 -0.575172 0
M  V30 44 H -0.164206 0.306019 -1.062286 0
M  V30 45 H 1.463153 3.020475 1.038955 0
M  V30 END ATOM
M  V30 BEGIN BOND
M  V30 1 1 1 2
M  V30 2 2 2 3
M  V30 3 1 2 4
M  V30 4 1 4 5
M  V30 5 2 5 6
M  V30 6 1 6 7
M  V30 7 2 7 8
M  V30 8 1 8 9
M  V30 9 2 9 10
M  V30 10 1 10 11
M  V30 11 2 11 12
M  V30 12 1 12 13
M  V30 13 2 13 14
M  V30 14 1 14 15
M  V30 15 1 14 16
M  V30 16 1 16 17
M  V30 17 1 17 18
M  V30 18 2 18 19
M  V30 19 2 18 20
M  V30 20 1 18 21
M  V30 21 2 21 22
M  V30 22 1 22 23
M  V30 23 2 23 24
M  V30 24 1 24 25
M  V30 25 2 25 26
M  V30 26 1 26 27
M  V30 27 2 16 28
M  V30 28 1 10 29
M  V30 29 2 29 30
M  V30 30 1 30 31
M  V30 31 1 31 5
M  V30 32 1 30 7
M  V30 33 1 28 11
M  V30 34 1 26 21
M  V30 35 1 1 32
M  V30 36 1 1 33
M  V30 37 1 1 34
M  V30 38 1 4 35
M  V30 39 1 8 36
M  V30 40 1 9 37
M  V30 41 1 12 38
M  V30 42 1 17 39
M  V30 43 1 22 40
M  V30 44 1 23 41
M  V30 45 1 24 42
M  V30 46 1 25 43
M  V30 47 1 28 44
M  V30 48 1 29 45
M  V30 END BOND
M  V30 END CTAB
M  END
>  <Dataset>  (168) 
ChEMBL_Kinases

>  <Ligand_Instance>  (168) 
nan

>  <PDB_ID>  (168) 
nan

>  <Standardized_SMILES>  (168) 
CC(=O)Nc1nc2ccc(-c3cnc(Cl)c(NS(=O)(=O)c4ccccc4Cl)c3)cc2s1

>  <Name>  (168) 
nan

>  <Pocket>  (168) 
nan

>  <ATP_Site>  (168) 
nan

>  <Peripheral>  (168) 
nan

>  <Num_H_Atoms_ProtBoundConf>  (168) 
nan

>  <Num_Resolved_Atoms>  (168) 
nan

>  <Num_Not_Resolved_Atoms>  (168) 
nan

$$$$
CHEMBL1773729
     RDKit          3D

  0  0  0  0  0  0  0  0  0  0999 V3000
M  V30 BEGIN CTAB
M  V30 COUNTS 48 51 0 0 0
M  V30 BEGIN ATOM
M  V30 1 C 4.337736 -4.414311 6.015599 0
M  V30 2 C 3.792557 -3.289153 5.185654 0
M  V30 3 O 3.197177 -3.716795 4.140587 0
M  V30 4 N 3.920727 -1.917749 5.517762 0
M  V30 5 C 3.282494 -1.136712 4.500090 0
M  V30 6 N 3.675340 -0.668542 3.499280 0
M  V30 7 C 3.025549 0.042171 2.607462 0
M  V30 8 C 3.512169 0.590531 1.421330 0
M  V30 9 C 2.662224 1.301259 0.629626 0
M  V30 10 C 1.328631 1.550119 0.873836 0
M  V30 11 C 0.431594 2.310388 0.019846 0
M  V30 12 C 0.818592 3.390245 -0.782568 0
M  V30 13 N -0.089267 4.022310 -1.535902 0
M  V30 14 C -1.386428 3.680067 -1.575421 0
M  V30 15 Cl -2.551168 4.540212 -2.582623 0
M  V30 16 C -1.874407 2.614983 -0.810859 0
M  V30 17 N -3.227753 2.186083 -0.787873 0
M  V30 18 S -3.880440 0.743803 -0.138594 0
M  V30 19 O -5.359342 0.754128 -0.322900 0
M  V30 20 O -3.650027 0.670046 1.362300 0
M  V30 21 C -3.257046 -0.698838 -0.914757 0
M  V30 22 C -2.192909 -1.478759 -0.520619 0
M  V30 23 C -1.832239 -2.585136 -1.258317 0
M  V30 24 C -2.484045 -2.985104 -2.407488 0
M  V30 25 C -2.010728 -4.192092 -3.120798 0
M  V30 26 F -0.759509 -4.551248 -2.643553 0
M  V30 27 F -2.857503 -5.279960 -2.909877 0
M  V30 28 F -1.962767 -4.026983 -4.487624 0
M  V30 29 C -3.554007 -2.225891 -2.828990 0
M  V30 30 C -3.908895 -1.108322 -2.073360 0
M  V30 31 C -0.908523 1.990320 -0.048799 0
M  V30 32 C 0.814347 1.022659 2.038170 0
M  V30 33 C 1.675596 0.289309 2.863353 0
M  V30 34 S 1.445705 -0.564745 4.444139 0
M  V30 35 H 5.171954 -4.028213 6.640048 0
M  V30 36 H 3.577480 -4.843327 6.700083 0
M  V30 37 H 4.781153 -5.205418 5.358487 0
M  V30 38 H 4.425301 -1.665278 6.395714 0
M  V30 39 H 4.550854 0.488762 1.073540 0
M  V30 40 H 3.035610 1.739664 -0.311106 0
M  V30 41 H 1.849162 3.671678 -0.759745 0
M  V30 42 H -3.868010 2.897536 -1.248846 0
M  V30 43 H -1.699962 -1.150526 0.382126 0
M  V30 44 H -0.980791 -3.143929 -0.875648 0
M  V30 45 H -4.073280 -2.514942 -3.712615 0
M  V30 46 H -4.766809 -0.554134 -2.468171 0
M  V30 47 H -1.228306 1.164283 0.565542 0
M  V30 48 H -0.203770 1.118340 2.387205 0
M  V30 END ATOM
M  V30 BEGIN BOND
M  V30 1 1 1 2
M  V30 2 2 2 3
M  V30 3 1 2 4
M  V30 4 1 4 5
M  V30 5 2 5 6
M  V30 6 1 6 7
M  V30 7 2 7 8
M  V30 8 1 8 9
M  V30 9 2 9 10
M  V30 10 1 10 11
M  V30 11 2 11 12
M  V30 12 1 12 13
M  V30 13 2 13 14
M  V30 14 1 14 15
M  V30 15 1 14 16
M  V30 16 1 16 17
M  V30 17 1 17 18
M  V30 18 2 18 19
M  V30 19 2 18 20
M  V30 20 1 18 21
M  V30 21 2 21 22
M  V30 22 1 22 23
M  V30 23 2 23 24
M  V30 24 1 24 25
M  V30 25 1 25 26
M  V30 26 1 25 27
M  V30 27 1 25 28
M  V30 28 1 24 29
M  V30 29 2 29 30
M  V30 30 2 16 31
M  V30 31 1 10 32
M  V30 32 2 32 33
M  V30 33 1 33 34
M  V30 34 1 34 5
M  V30 35 1 33 7
M  V30 36 1 31 11
M  V30 37 1 30 21
M  V30 38 1 1 35
M  V30 39 1 1 36
M  V30 40 1 1 37
M  V30 41 1 4 38
M  V30 42 1 8 39
M  V30 43 1 9 40
M  V30 44 1 12 41
M  V30 45 1 17 42
M  V30 46 1 22 43
M  V30 47 1 23 44
M  V30 48 1 29 45
M  V30 49 1 30 46
M  V30 50 1 31 47
M  V30 51 1 32 48
M  V30 END BOND
M  V30 END CTAB
M  END
>  <Dataset>  (169) 
ChEMBL_Kinases

>  <Ligand_Instance>  (169) 
nan

>  <PDB_ID>  (169) 
nan

>  <Standardized_SMILES>  (169) 
CC(=O)Nc1nc2ccc(-c3cnc(Cl)c(NS(=O)(=O)c4ccc(C(F)(F)F)cc4)c3)cc2s1

>  <Name>  (169) 
nan

>  <Pocket>  (169) 
nan

>  <ATP_Site>  (169) 
nan

>  <Peripheral>  (169) 
nan

>  <Num_H_Atoms_ProtBoundConf>  (169) 
nan

>  <Num_Resolved_Atoms>  (169) 
nan

>  <Num_Not_Resolved_Atoms>  (169) 
nan

$$$$
CHEMBL1773728
     RDKit          3D

  0  0  0  0  0  0  0  0  0  0999 V3000
M  V30 BEGIN CTAB
M  V30 COUNTS 48 51 0 0 0
M  V30 BEGIN ATOM
M  V30 1 C 7.094340 -5.148769 2.130966 0
M  V30 2 C 6.379363 -4.047132 1.420993 0
M  V30 3 O 6.903877 -3.476380 0.440722 0
M  V30 4 N 5.122575 -3.749729 1.957262 0
M  V30 5 C 4.209754 -2.738668 1.481751 0
M  V30 6 N 4.073401 -1.633562 1.736978 0
M  V30 7 C 3.238199 -0.721808 1.298127 0
M  V30 8 C 3.105655 0.614247 1.634792 0
M  V30 9 C 2.143368 1.385868 1.033123 0
M  V30 10 C 1.259708 0.916458 0.078867 0
M  V30 11 C 0.232664 1.715978 -0.574396 0
M  V30 12 C 0.523151 3.049378 -0.768134 0
M  V30 13 N -0.422331 3.791638 -1.367995 0
M  V30 14 C -1.594776 3.294994 -1.768649 0
M  V30 15 Cl -2.772044 4.361962 -2.550505 0
M  V30 16 C -1.964025 1.959954 -1.609376 0
M  V30 17 N -3.191712 1.397082 -2.022987 0
M  V30 18 S -3.855803 -0.114427 -1.609825 0
M  V30 19 O -2.899520 -1.189343 -2.080526 0
M  V30 20 O -5.187929 -0.253732 -2.307657 0
M  V30 21 C -4.147521 -0.260560 0.101899 0
M  V30 22 C -5.349549 0.219076 0.588969 0
M  V30 23 C -5.689938 0.152347 1.918324 0
M  V30 24 C -4.840721 -0.403847 2.851819 0
M  V30 25 C -3.626763 -0.890932 2.374739 0
M  V30 26 C -2.599108 -1.525487 3.269483 0
M  V30 27 F -1.586055 -0.612834 3.445682 0
M  V30 28 F -2.106843 -2.627828 2.569249 0
M  V30 29 F -3.143650 -1.915187 4.473148 0
M  V30 30 C -3.330942 -0.803335 1.045387 0
M  V30 31 C -0.981492 1.217211 -0.993166 0
M  V30 32 C 1.320780 -0.401222 -0.315613 0
M  V30 33 C 2.331156 -1.129346 0.343869 0
M  V30 34 S 2.822833 -2.949136 0.163605 0
M  V30 35 H 6.918749 -5.111033 3.234706 0
M  V30 36 H 6.584063 -6.090268 1.791715 0
M  V30 37 H 8.160685 -5.206520 1.858113 0
M  V30 38 H 4.666880 -4.213980 2.774462 0
M  V30 39 H 3.716989 1.125577 2.358834 0
M  V30 40 H 2.027146 2.454395 1.293154 0
M  V30 41 H 1.423300 3.573385 -0.495095 0
M  V30 42 H -3.715370 2.056882 -2.675081 0
M  V30 43 H -6.088844 0.679673 -0.083557 0
M  V30 44 H -6.635194 0.532338 2.285509 0
M  V30 45 H -5.035415 -0.491060 3.901196 0
M  V30 46 H -2.377096 -1.191914 0.680288 0
M  V30 47 H -1.108154 0.163723 -0.798612 0
M  V30 48 H 0.736184 -0.931342 -1.021830 0
M  V30 END ATOM
M  V30 BEGIN BOND
M  V30 1 1 1 2
M  V30 2 2 2 3
M  V30 3 1 2 4
M  V30 4 1 4 5
M  V30 5 2 5 6
M  V30 6 1 6 7
M  V30 7 2 7 8
M  V30 8 1 8 9
M  V30 9 2 9 10
M  V30 10 1 10 11
M  V30 11 2 11 12
M  V30 12 1 12 13
M  V30 13 2 13 14
M  V30 14 1 14 15
M  V30 15 1 14 16
M  V30 16 1 16 17
M  V30 17 1 17 18
M  V30 18 2 18 19
M  V30 19 2 18 20
M  V30 20 1 18 21
M  V30 21 2 21 22
M  V30 22 1 22 23
M  V30 23 2 23 24
M  V30 24 1 24 25
M  V30 25 1 25 26
M  V30 26 1 26 27
M  V30 27 1 26 28
M  V30 28 1 26 29
M  V30 29 2 25 30
M  V30 30 2 16 31
M  V30 31 1 10 32
M  V30 32 2 32 33
M  V30 33 1 33 34
M  V30 34 1 34 5
M  V30 35 1 33 7
M  V30 36 1 31 11
M  V30 37 1 30 21
M  V30 38 1 1 35
M  V30 39 1 1 36
M  V30 40 1 1 37
M  V30 41 1 4 38
M  V30 42 1 8 39
M  V30 43 1 9 40
M  V30 44 1 12 41
M  V30 45 1 17 42
M  V30 46 1 22 43
M  V30 47 1 23 44
M  V30 48 1 24 45
M  V30 49 1 30 46
M  V30 50 1 31 47
M  V30 51 1 32 48
M  V30 END BOND
M  V30 END CTAB
M  END
>  <Dataset>  (170) 
ChEMBL_Kinases

>  <Ligand_Instance>  (170) 
nan

>  <PDB_ID>  (170) 
nan

>  <Standardized_SMILES>  (170) 
CC(=O)Nc1nc2ccc(-c3cnc(Cl)c(NS(=O)(=O)c4cccc(C(F)(F)F)c4)c3)cc2s1

>  <Name>  (170) 
nan

>  <Pocket>  (170) 
nan

>  <ATP_Site>  (170) 
nan

>  <Peripheral>  (170) 
nan

>  <Num_H_Atoms_ProtBoundConf>  (170) 
nan

>  <Num_Resolved_Atoms>  (170) 
nan

>  <Num_Not_Resolved_Atoms>  (170) 
nan

$$$$
CHEMBL1773606
     RDKit          3D

  0  0  0  0  0  0  0  0  0  0999 V3000
M  V30 BEGIN CTAB
M  V30 COUNTS 48 51 0 0 0
M  V30 BEGIN ATOM
M  V30 1 C 7.170730 -4.259955 3.460113 0
M  V30 2 C 6.392022 -3.303565 2.628926 0
M  V30 3 O 7.003623 -2.778766 1.663447 0
M  V30 4 N 5.056457 -3.058958 2.973630 0
M  V30 5 C 4.118823 -2.159927 2.293189 0
M  V30 6 N 3.901589 -1.050508 2.469925 0
M  V30 7 C 3.080463 -0.208553 1.893525 0
M  V30 8 C 2.823680 1.129969 2.113057 0
M  V30 9 C 1.897715 1.804071 1.361104 0
M  V30 10 C 1.160255 1.224777 0.347397 0
M  V30 11 C 0.163366 1.898276 -0.480026 0
M  V30 12 C 0.291088 3.248495 -0.796875 0
M  V30 13 N -0.644348 3.840048 -1.560783 0
M  V30 14 C -1.697826 3.147318 -2.021013 0
M  V30 15 Cl -2.847426 4.026333 -3.005027 0
M  V30 16 C -1.915814 1.809810 -1.764734 0
M  V30 17 N -3.038732 1.093000 -2.270675 0
M  V30 18 S -3.402107 -0.540807 -1.775452 0
M  V30 19 O -2.189659 -1.418497 -2.056827 0
M  V30 20 O -4.573357 -0.982154 -2.602160 0
M  V30 21 C -3.720458 -0.618488 -0.076976 0
M  V30 22 C -3.693973 0.510068 0.744890 0
M  V30 23 C -3.948808 0.481250 2.097482 0
M  V30 24 C -4.250316 -0.739188 2.681542 0
M  V30 25 C -4.275827 -1.846765 1.871030 0
M  V30 26 C -4.022177 -1.856160 0.492983 0
M  V30 27 C -4.085138 -3.124706 -0.253069 0
M  V30 28 F -4.429264 -4.157684 0.634473 0
M  V30 29 F -2.855881 -3.527009 -0.767313 0
M  V30 30 F -4.994350 -3.159549 -1.262772 0
M  V30 31 C -0.936242 1.229731 -0.976423 0
M  V30 32 C 1.342163 -0.108635 0.048908 0
M  V30 33 C 2.306017 -0.738788 0.858144 0
M  V30 34 S 2.906114 -2.528745 0.843507 0
M  V30 35 H 6.795045 -4.281551 4.522361 0
M  V30 36 H 7.025458 -5.291324 3.078818 0
M  V30 37 H 8.238490 -3.977743 3.524816 0
M  V30 38 H 4.584933 -3.528136 3.798845 0
M  V30 39 H 3.323701 1.708622 2.869520 0
M  V30 40 H 1.698562 2.873014 1.542569 0
M  V30 41 H 1.126039 3.826663 -0.440541 0
M  V30 42 H -3.632367 1.617324 -2.962873 0
M  V30 43 H -3.471685 1.479885 0.345913 0
M  V30 44 H -3.925629 1.354157 2.721471 0
M  V30 45 H -4.467955 -0.867203 3.747853 0
M  V30 46 H -4.513097 -2.804625 2.333100 0
M  V30 47 H -1.016679 0.181135 -0.718197 0
M  V30 48 H 0.886807 -0.733170 -0.676076 0
M  V30 END ATOM
M  V30 BEGIN BOND
M  V30 1 1 1 2
M  V30 2 2 2 3
M  V30 3 1 2 4
M  V30 4 1 4 5
M  V30 5 2 5 6
M  V30 6 1 6 7
M  V30 7 2 7 8
M  V30 8 1 8 9
M  V30 9 2 9 10
M  V30 10 1 10 11
M  V30 11 2 11 12
M  V30 12 1 12 13
M  V30 13 2 13 14
M  V30 14 1 14 15
M  V30 15 1 14 16
M  V30 16 1 16 17
M  V30 17 1 17 18
M  V30 18 2 18 19
M  V30 19 2 18 20
M  V30 20 1 18 21
M  V30 21 2 21 22
M  V30 22 1 22 23
M  V30 23 2 23 24
M  V30 24 1 24 25
M  V30 25 2 25 26
M  V30 26 1 26 27
M  V30 27 1 27 28
M  V30 28 1 27 29
M  V30 29 1 27 30
M  V30 30 2 16 31
M  V30 31 1 10 32
M  V30 32 2 32 33
M  V30 33 1 33 34
M  V30 34 1 34 5
M  V30 35 1 33 7
M  V30 36 1 31 11
M  V30 37 1 26 21
M  V30 38 1 1 35
M  V30 39 1 1 36
M  V30 40 1 1 37
M  V30 41 1 4 38
M  V30 42 1 8 39
M  V30 43 1 9 40
M  V30 44 1 12 41
M  V30 45 1 17 42
M  V30 46 1 22 43
M  V30 47 1 23 44
M  V30 48 1 24 45
M  V30 49 1 25 46
M  V30 50 1 31 47
M  V30 51 1 32 48
M  V30 END BOND
M  V30 END CTAB
M  END
>  <Dataset>  (171) 
ChEMBL_Kinases

>  <Ligand_Instance>  (171) 
nan

>  <PDB_ID>  (171) 
nan

>  <Standardized_SMILES>  (171) 
CC(=O)Nc1nc2ccc(-c3cnc(Cl)c(NS(=O)(=O)c4ccccc4C(F)(F)F)c3)cc2s1

>  <Name>  (171) 
nan

>  <Pocket>  (171) 
nan

>  <ATP_Site>  (171) 
nan

>  <Peripheral>  (171) 
nan

>  <Num_H_Atoms_ProtBoundConf>  (171) 
nan

>  <Num_Resolved_Atoms>  (171) 
nan

>  <Num_Not_Resolved_Atoms>  (171) 
nan

$$$$
CHEMBL1773605
     RDKit          3D

  0  0  0  0  0  0  0  0  0  0999 V3000
M  V30 BEGIN CTAB
M  V30 COUNTS 45 48 0 0 0
M  V30 BEGIN ATOM
M  V30 1 C 6.997082 -5.362178 2.036766 0
M  V30 2 C 5.860954 -4.458253 1.745809 0
M  V30 3 O 4.608376 -4.673334 1.763598 0
M  V30 4 N 6.178179 -3.132828 1.386170 0
M  V30 5 C 5.070744 -2.265993 1.107147 0
M  V30 6 N 4.387657 -1.896366 0.272613 0
M  V30 7 C 3.385623 -1.049583 0.272212 0
M  V30 8 C 2.568277 -0.612852 -0.748948 0
M  V30 9 C 1.567449 0.292459 -0.510844 0
M  V30 10 C 1.291545 0.834520 0.730423 0
M  V30 11 C 0.241577 1.800113 1.044492 0
M  V30 12 C 0.430587 2.728651 2.069619 0
M  V30 13 N -0.563472 3.598059 2.322134 0
M  V30 14 C -1.720532 3.617157 1.642153 0
M  V30 15 Cl -2.970567 4.797858 2.045039 0
M  V30 16 C -1.989285 2.720888 0.600782 0
M  V30 17 N -3.198779 2.712052 -0.147004 0
M  V30 18 S -3.762752 1.498841 -1.198143 0
M  V30 19 O -2.674137 1.282417 -2.236071 0
M  V30 20 O -5.023598 1.973715 -1.856755 0
M  V30 21 C -4.015334 -0.011991 -0.354626 0
M  V30 22 C -5.282048 -0.100031 0.218971 0
M  V30 23 C -5.673609 -1.214379 0.921967 0
M  V30 24 C -4.842485 -2.285216 1.091375 0
M  V30 25 C -3.589648 -2.186063 0.518110 0
M  V30 26 C -3.170785 -1.082165 -0.191427 0
M  V30 27 C -0.961483 1.851625 0.368483 0
M  V30 28 C 2.076505 0.435588 1.794039 0
M  V30 29 C 3.080871 -0.485583 1.503915 0
M  V30 30 S 4.346391 -1.283485 2.595159 0
M  V30 31 H 7.638788 -4.852777 2.802969 0
M  V30 32 H 7.581891 -5.665187 1.159647 0
M  V30 33 H 6.663325 -6.296701 2.548312 0
M  V30 34 H 7.128195 -2.734891 1.306088 0
M  V30 35 H 2.643922 -0.932976 -1.778431 0
M  V30 36 H 0.901547 0.656176 -1.312153 0
M  V30 37 H 1.365723 2.707840 2.613360 0
M  V30 38 H -3.774918 3.594101 0.010976 0
M  V30 39 H -6.054148 0.675693 0.167711 0
M  V30 40 H -6.657658 -1.306414 1.379131 0
M  V30 41 H -5.135069 -3.168787 1.641350 0
M  V30 42 H -2.891232 -3.002917 0.620814 0
M  V30 43 H -2.218913 -0.938253 -0.663567 0
M  V30 44 H -1.034504 1.106428 -0.412370 0
M  V30 45 H 2.018581 0.742020 2.829150 0
M  V30 END ATOM
M  V30 BEGIN BOND
M  V30 1 1 1 2
M  V30 2 2 2 3
M  V30 3 1 2 4
M  V30 4 1 4 5
M  V30 5 2 5 6
M  V30 6 1 6 7
M  V30 7 2 7 8
M  V30 8 1 8 9
M  V30 9 2 9 10
M  V30 10 1 10 11
M  V30 11 2 11 12
M  V30 12 1 12 13
M  V30 13 2 13 14
M  V30 14 1 14 15
M  V30 15 1 14 16
M  V30 16 1 16 17
M  V30 17 1 17 18
M  V30 18 2 18 19
M  V30 19 2 18 20
M  V30 20 1 18 21
M  V30 21 2 21 22
M  V30 22 1 22 23
M  V30 23 2 23 24
M  V30 24 1 24 25
M  V30 25 2 25 26
M  V30 26 2 16 27
M  V30 27 1 10 28
M  V30 28 2 28 29
M  V30 29 1 29 30
M  V30 30 1 30 5
M  V30 31 1 29 7
M  V30 32 1 27 11
M  V30 33 1 26 21
M  V30 34 1 1 31
M  V30 35 1 1 32
M  V30 36 1 1 33
M  V30 37 1 4 34
M  V30 38 1 8 35
M  V30 39 1 9 36
M  V30 40 1 12 37
M  V30 41 1 17 38
M  V30 42 1 22 39
M  V30 43 1 23 40
M  V30 44 1 24 41
M  V30 45 1 25 42
M  V30 46 1 26 43
M  V30 47 1 27 44
M  V30 48 1 28 45
M  V30 END BOND
M  V30 END CTAB
M  END
>  <Dataset>  (172) 
ChEMBL_Kinases

>  <Ligand_Instance>  (172) 
nan

>  <PDB_ID>  (172) 
nan

>  <Standardized_SMILES>  (172) 
CC(=O)Nc1nc2ccc(-c3cnc(Cl)c(NS(=O)(=O)c4ccccc4)c3)cc2s1

>  <Name>  (172) 
nan

>  <Pocket>  (172) 
nan

>  <ATP_Site>  (172) 
nan

>  <Peripheral>  (172) 
nan

>  <Num_H_Atoms_ProtBoundConf>  (172) 
nan

>  <Num_Resolved_Atoms>  (172) 
nan

>  <Num_Not_Resolved_Atoms>  (172) 
nan

$$$$
CHEMBL1773604
     RDKit          3D

  0  0  0  0  0  0  0  0  0  0999 V3000
M  V30 BEGIN CTAB
M  V30 COUNTS 49 52 0 0 0
M  V30 BEGIN ATOM
M  V30 1 C 5.455432 -4.716493 3.266736 0
M  V30 2 O 4.414200 -4.216530 2.450134 0
M  V30 3 C 4.364725 -2.922253 1.958001 0
M  V30 4 C 5.286623 -1.920229 2.165835 0
M  V30 5 C 5.093953 -0.659136 1.597768 0
M  V30 6 C 3.970258 -0.376888 0.808092 0
M  V30 7 S 3.961420 1.231846 0.223188 0
M  V30 8 O 5.357997 1.686695 -0.164361 0
M  V30 9 O 3.187827 1.233498 -1.089552 0
M  V30 10 N 3.272186 2.412992 1.219412 0
M  V30 11 C 1.955126 2.514005 1.684204 0
M  V30 12 C 0.958164 1.673494 1.184682 0
M  V30 13 C -0.369062 1.695550 1.574023 0
M  V30 14 C -1.339039 0.776700 0.994881 0
M  V30 15 C -1.098220 -0.506803 0.552296 0
M  V30 16 C -2.044196 -1.347151 0.009084 0
M  V30 17 C -3.351509 -0.919963 -0.125367 0
M  V30 18 N -4.420283 -1.524095 -0.605030 0
M  V30 19 C -5.490894 -1.207382 -0.728005 0
M  V30 20 N -6.607661 -2.023232 -1.301386 0
M  V30 21 C -6.823949 -1.925696 -2.696449 0
M  V30 22 C -7.977901 -2.811567 -3.076445 0
M  V30 23 O -6.106789 -1.184561 -3.417628 0
M  V30 24 S -5.351206 0.572540 -0.005471 0
M  V30 25 C -3.595234 0.345679 0.309730 0
M  V30 26 C -2.644717 1.208360 0.862583 0
M  V30 27 C -0.746310 2.616604 2.529805 0
M  V30 28 N 0.186169 3.443450 3.034437 0
M  V30 29 C 1.469427 3.405698 2.642841 0
M  V30 30 Cl 2.668272 4.507946 3.327386 0
M  V30 31 C 3.092525 -1.397753 0.633930 0
M  V30 32 C 3.246105 -2.655755 1.177006 0
M  V30 33 H 6.297204 -5.118276 2.637780 0
M  V30 34 H 5.000429 -5.525353 3.874769 0
M  V30 35 H 5.888977 -3.940089 3.919437 0
M  V30 36 H 6.134320 -2.175795 2.776657 0
M  V30 37 H 5.909820 0.035807 1.849945 0
M  V30 38 H 3.861057 3.224881 1.583682 0
M  V30 39 H 1.202519 0.951358 0.445897 0
M  V30 40 H -0.060176 -0.842950 0.660253 0
M  V30 41 H -1.681858 -2.335632 -0.291081 0
M  V30 42 H -7.097676 -2.576291 -0.575722 0
M  V30 43 H -8.218492 -2.632838 -4.147485 0
M  V30 44 H -8.871621 -2.630052 -2.455920 0
M  V30 45 H -7.643219 -3.882570 -3.024440 0
M  V30 46 H -3.036780 2.156177 1.139825 0
M  V30 47 H -1.762933 2.697383 2.887045 0
M  V30 48 H 2.243131 -1.140492 0.017510 0
M  V30 49 H 2.454762 -3.382285 0.951083 0
M  V30 END ATOM
M  V30 BEGIN BOND
M  V30 1 1 1 2
M  V30 2 1 2 3
M  V30 3 2 3 4
M  V30 4 1 4 5
M  V30 5 2 5 6
M  V30 6 1 6 7
M  V30 7 2 7 8
M  V30 8 2 7 9
M  V30 9 1 7 10
M  V30 10 1 10 11
M  V30 11 2 11 12
M  V30 12 1 12 13
M  V30 13 1 13 14
M  V30 14 2 14 15
M  V30 15 1 15 16
M  V30 16 2 16 17
M  V30 17 1 17 18
M  V30 18 2 18 19
M  V30 19 1 19 20
M  V30 20 1 20 21
M  V30 21 1 21 22
M  V30 22 2 21 23
M  V30 23 1 19 24
M  V30 24 1 24 25
M  V30 25 2 25 26
M  V30 26 2 13 27
M  V30 27 1 27 28
M  V30 28 2 28 29
M  V30 29 1 29 30
M  V30 30 1 6 31
M  V30 31 2 31 32
M  V30 32 1 32 3
M  V30 33 1 29 11
M  V30 34 1 26 14
M  V30 35 1 25 17
M  V30 36 1 1 33
M  V30 37 1 1 34
M  V30 38 1 1 35
M  V30 39 1 4 36
M  V30 40 1 5 37
M  V30 41 1 10 38
M  V30 42 1 12 39
M  V30 43 1 15 40
M  V30 44 1 16 41
M  V30 45 1 20 42
M  V30 46 1 22 43
M  V30 47 1 22 44
M  V30 48 1 22 45
M  V30 49 1 26 46
M  V30 50 1 27 47
M  V30 51 1 31 48
M  V30 52 1 32 49
M  V30 END BOND
M  V30 END CTAB
M  END
>  <Dataset>  (173) 
ChEMBL_Kinases

>  <Ligand_Instance>  (173) 
nan

>  <PDB_ID>  (173) 
nan

>  <Standardized_SMILES>  (173) 
COc1ccc(S(=O)(=O)Nc2cc(-c3ccc4nc(NC(C)=O)sc4c3)cnc2Cl)cc1

>  <Name>  (173) 
nan

>  <Pocket>  (173) 
nan

>  <ATP_Site>  (173) 
nan

>  <Peripheral>  (173) 
nan

>  <Num_H_Atoms_ProtBoundConf>  (173) 
nan

>  <Num_Resolved_Atoms>  (173) 
nan

>  <Num_Not_Resolved_Atoms>  (173) 
nan

$$$$
CHEMBL1773603
     RDKit          3D

  0  0  0  0  0  0  0  0  0  0999 V3000
M  V30 BEGIN CTAB
M  V30 COUNTS 52 55 0 0 0
M  V30 BEGIN ATOM
M  V30 1 C 1.471991 -5.764924 -0.025834 0
M  V30 2 O 2.704432 -5.230156 -0.485051 0
M  V30 3 C 3.104070 -4.003163 0.028750 0
M  V30 4 C 2.297079 -3.343482 0.966050 0
M  V30 5 C 2.717972 -2.141608 1.451148 0
M  V30 6 C 3.889642 -1.512332 1.088850 0
M  V30 7 S 4.488029 0.018786 1.646047 0
M  V30 8 O 3.953762 0.344048 3.024523 0
M  V30 9 O 5.970777 -0.134537 1.824985 0
M  V30 10 N 4.102194 1.263950 0.523266 0
M  V30 11 C 2.845801 1.738231 0.075502 0
M  V30 12 C 1.640062 1.278643 0.601611 0
M  V30 13 C 0.396367 1.715043 0.187270 0
M  V30 14 C -0.851616 1.217472 0.747064 0
M  V30 15 C -1.110041 0.784580 2.028893 0
M  V30 16 C -2.319205 0.318595 2.471579 0
M  V30 17 C -3.404001 0.255966 1.601851 0
M  V30 18 N -4.638068 -0.155045 1.811022 0
M  V30 19 C -5.538998 -0.218942 1.120744 0
M  V30 20 N -6.893659 -0.706585 1.479192 0
M  V30 21 C -6.988154 -2.108135 1.260930 0
M  V30 22 C -8.289225 -2.784211 1.571699 0
M  V30 23 O -6.059599 -2.835293 0.824150 0
M  V30 24 S -4.753022 0.454317 -0.476373 0
M  V30 25 C -3.157861 0.681765 0.334154 0
M  V30 26 C -1.926379 1.163169 -0.139314 0
M  V30 27 C 0.381472 2.666445 -0.810661 0
M  V30 28 N 1.535874 3.117331 -1.325957 0
M  V30 29 C 2.732931 2.689708 -0.920059 0
M  V30 30 C 3.939191 3.266273 -1.573414 0
M  V30 31 C 4.646551 -2.204754 0.163255 0
M  V30 32 C 4.309647 -3.430057 -0.389935 0
M  V30 33 H 1.578267 -5.900431 1.075318 0
M  V30 34 H 1.325330 -6.779526 -0.478581 0
M  V30 35 H 0.591162 -5.178410 -0.310498 0
M  V30 36 H 1.354305 -3.768266 1.309085 0
M  V30 37 H 2.106819 -1.613029 2.194041 0
M  V30 38 H 4.949191 1.753963 0.100327 0
M  V30 39 H 1.633035 0.547007 1.377671 0
M  V30 40 H -0.255351 0.840669 2.697025 0
M  V30 41 H -2.354934 0.016104 3.513185 0
M  V30 42 H -7.650547 -0.103750 1.833967 0
M  V30 43 H -9.085476 -2.058755 1.758668 0
M  V30 44 H -8.593951 -3.428868 0.734246 0
M  V30 45 H -8.132050 -3.486290 2.435687 0
M  V30 46 H -1.959003 1.445220 -1.175775 0
M  V30 47 H -0.577882 3.033680 -1.159936 0
M  V30 48 H 4.341736 2.451492 -2.229971 0
M  V30 49 H 4.687984 3.542531 -0.824305 0
M  V30 50 H 3.663924 4.106045 -2.246592 0
M  V30 51 H 5.600141 -1.792991 -0.195753 0
M  V30 52 H 4.943624 -3.924036 -1.110057 0
M  V30 END ATOM
M  V30 BEGIN BOND
M  V30 1 1 1 2
M  V30 2 1 2 3
M  V30 3 2 3 4
M  V30 4 1 4 5
M  V30 5 2 5 6
M  V30 6 1 6 7
M  V30 7 2 7 8
M  V30 8 2 7 9
M  V30 9 1 7 10
M  V30 10 1 10 11
M  V30 11 2 11 12
M  V30 12 1 12 13
M  V30 13 1 13 14
M  V30 14 2 14 15
M  V30 15 1 15 16
M  V30 16 2 16 17
M  V30 17 1 17 18
M  V30 18 2 18 19
M  V30 19 1 19 20
M  V30 20 1 20 21
M  V30 21 1 21 22
M  V30 22 2 21 23
M  V30 23 1 19 24
M  V30 24 1 24 25
M  V30 25 2 25 26
M  V30 26 2 13 27
M  V30 27 1 27 28
M  V30 28 2 28 29
M  V30 29 1 29 30
M  V30 30 1 6 31
M  V30 31 2 31 32
M  V30 32 1 32 3
M  V30 33 1 29 11
M  V30 34 1 26 14
M  V30 35 1 25 17
M  V30 36 1 1 33
M  V30 37 1 1 34
M  V30 38 1 1 35
M  V30 39 1 4 36
M  V30 40 1 5 37
M  V30 41 1 10 38
M  V30 42 1 12 39
M  V30 43 1 15 40
M  V30 44 1 16 41
M  V30 45 1 20 42
M  V30 46 1 22 43
M  V30 47 1 22 44
M  V30 48 1 22 45
M  V30 49 1 26 46
M  V30 50 1 27 47
M  V30 51 1 30 48
M  V30 52 1 30 49
M  V30 53 1 30 50
M  V30 54 1 31 51
M  V30 55 1 32 52
M  V30 END BOND
M  V30 END CTAB
M  END
>  <Dataset>  (174) 
ChEMBL_Kinases

>  <Ligand_Instance>  (174) 
nan

>  <PDB_ID>  (174) 
nan

>  <Standardized_SMILES>  (174) 
COc1ccc(S(=O)(=O)Nc2cc(-c3ccc4nc(NC(C)=O)sc4c3)cnc2C)cc1

>  <Name>  (174) 
nan

>  <Pocket>  (174) 
nan

>  <ATP_Site>  (174) 
nan

>  <Peripheral>  (174) 
nan

>  <Num_H_Atoms_ProtBoundConf>  (174) 
nan

>  <Num_Resolved_Atoms>  (174) 
nan

>  <Num_Not_Resolved_Atoms>  (174) 
nan

$$$$
CHEMBL1773602
     RDKit          3D

  0  0  0  0  0  0  0  0  0  0999 V3000
M  V30 BEGIN CTAB
M  V30 COUNTS 50 53 0 0 0
M  V30 BEGIN ATOM
M  V30 1 C 5.084811 -4.366032 3.512803 0
M  V30 2 O 4.384032 -3.976901 2.392193 0
M  V30 3 C 4.346634 -2.716459 1.820520 0
M  V30 4 C 5.101170 -1.676472 2.427331 0
M  V30 5 C 4.959589 -0.551208 1.772228 0
M  V30 6 C 4.232799 -0.276549 0.639402 0
M  V30 7 S 4.332203 1.403426 0.243639 0
M  V30 8 O 5.799412 1.597927 -0.211388 0
M  V30 9 O 4.169106 2.310147 1.401508 0
M  V30 10 N 3.321398 1.949893 -1.010534 0
M  V30 11 C 1.941533 2.070121 -1.385318 0
M  V30 12 C 0.953633 1.835308 -0.312661 0
M  V30 13 C -0.375839 1.994842 -0.723697 0
M  V30 14 C -1.319072 1.417131 0.238911 0
M  V30 15 C -1.314390 0.885314 1.474347 0
M  V30 16 C -2.390997 0.118298 1.946762 0
M  V30 17 C -3.717516 -0.282626 1.295942 0
M  V30 18 N -4.143713 -0.966884 2.413383 0
M  V30 19 C -5.170699 -1.560843 1.535533 0
M  V30 20 N -6.257768 -2.396925 1.320327 0
M  V30 21 C -6.934279 -3.573480 1.009869 0
M  V30 22 C -8.380494 -3.565198 0.943801 0
M  V30 23 O -6.043922 -4.428801 0.836611 0
M  V30 24 S -4.772892 -0.712946 -0.223299 0
M  V30 25 C -3.268082 0.383686 0.304753 0
M  V30 26 C -2.546233 1.111936 -0.503228 0
M  V30 27 C -0.643405 2.332791 -1.997558 0
M  V30 28 N 0.272688 2.551103 -3.006568 0
M  V30 29 C 1.581939 2.417229 -2.719020 0
M  V30 30 C 2.517239 2.474721 -3.574207 0
M  V30 31 N 3.523389 2.560410 -4.480229 0
M  V30 32 C 3.552389 -1.345205 0.144240 0
M  V30 33 C 3.557530 -2.636523 0.693540 0
M  V30 34 H 4.606334 -4.154425 4.498192 0
M  V30 35 H 5.340146 -5.458995 3.574004 0
M  V30 36 H 6.043510 -3.836838 3.573360 0
M  V30 37 H 5.706174 -1.911272 3.292602 0
M  V30 38 H 5.569157 0.293620 2.265636 0
M  V30 39 H 3.938613 2.373223 -1.785874 0
M  V30 40 H 1.368779 1.646124 0.652531 0
M  V30 41 H -0.283864 1.211979 1.880390 0
M  V30 42 H -1.811312 -0.082732 2.976346 0
M  V30 43 H -7.010043 -1.662360 1.527864 0
M  V30 44 H -8.838932 -2.525601 0.770852 0
M  V30 45 H -8.639076 -4.224390 0.128979 0
M  V30 46 H -8.770891 -3.969985 1.922058 0
M  V30 47 H -3.006270 1.351856 -1.508633 0
M  V30 48 H -1.670568 2.470658 -2.346733 0
M  V30 49 H 3.006404 -1.103572 -0.727930 0
M  V30 50 H 3.001167 -3.439961 0.255684 0
M  V30 END ATOM
M  V30 BEGIN BOND
M  V30 1 1 1 2
M  V30 2 1 2 3
M  V30 3 2 3 4
M  V30 4 1 4 5
M  V30 5 2 5 6
M  V30 6 1 6 7
M  V30 7 2 7 8
M  V30 8 2 7 9
M  V30 9 1 7 10
M  V30 10 1 10 11
M  V30 11 2 11 12
M  V30 12 1 12 13
M  V30 13 1 13 14
M  V30 14 2 14 15
M  V30 15 1 15 16
M  V30 16 2 16 17
M  V30 17 1 17 18
M  V30 18 2 18 19
M  V30 19 1 19 20
M  V30 20 1 20 21
M  V30 21 1 21 22
M  V30 22 2 21 23
M  V30 23 1 19 24
M  V30 24 1 24 25
M  V30 25 2 25 26
M  V30 26 2 13 27
M  V30 27 1 27 28
M  V30 28 2 28 29
M  V30 29 1 29 30
M  V30 30 3 30 31
M  V30 31 1 6 32
M  V30 32 2 32 33
M  V30 33 1 33 3
M  V30 34 1 29 11
M  V30 35 1 26 14
M  V30 36 1 25 17
M  V30 37 1 1 34
M  V30 38 1 1 35
M  V30 39 1 1 36
M  V30 40 1 4 37
M  V30 41 1 5 38
M  V30 42 1 10 39
M  V30 43 1 12 40
M  V30 44 1 15 41
M  V30 45 1 16 42
M  V30 46 1 20 43
M  V30 47 1 22 44
M  V30 48 1 22 45
M  V30 49 1 22 46
M  V30 50 1 26 47
M  V30 51 1 27 48
M  V30 52 1 32 49
M  V30 53 1 33 50
M  V30 END BOND
M  V30 END CTAB
M  END
>  <Dataset>  (175) 
ChEMBL_Kinases

>  <Ligand_Instance>  (175) 
nan

>  <PDB_ID>  (175) 
nan

>  <Standardized_SMILES>  (175) 
COc1ccc(S(=O)(=O)Nc2cc(-c3ccc4nc(NC(C)=O)sc4c3)cnc2C#N)cc1

>  <Name>  (175) 
nan

>  <Pocket>  (175) 
nan

>  <ATP_Site>  (175) 
nan

>  <Peripheral>  (175) 
nan

>  <Num_H_Atoms_ProtBoundConf>  (175) 
nan

>  <Num_Resolved_Atoms>  (175) 
nan

>  <Num_Not_Resolved_Atoms>  (175) 
nan

$$$$
CHEMBL1773601
     RDKit          3D

  0  0  0  0  0  0  0  0  0  0999 V3000
M  V30 BEGIN CTAB
M  V30 COUNTS 50 53 0 0 0
M  V30 BEGIN ATOM
M  V30 1 C 0.798917 -0.747104 -5.612132 0
M  V30 2 O 1.287016 -1.366304 -4.458710 0
M  V30 3 C 2.123181 -0.698634 -3.577153 0
M  V30 4 C 2.595155 0.594645 -3.660056 0
M  V30 5 C 3.418561 1.102752 -2.697056 0
M  V30 6 C 3.829766 0.359509 -1.584415 0
M  V30 7 S 4.889480 1.198855 -0.479740 0
M  V30 8 O 5.717535 0.163935 0.250318 0
M  V30 9 O 5.791080 2.137932 -1.236035 0
M  V30 10 N 3.991513 2.086541 0.694216 0
M  V30 11 C 3.071617 1.693962 1.693494 0
M  V30 12 C 3.193858 2.192731 2.979779 0
M  V30 13 C 2.367606 1.880630 4.036473 0
M  V30 14 C 1.345245 0.998209 3.761720 0
M  V30 15 C 1.141881 0.448287 2.513378 0
M  V30 16 C 0.045628 -0.478974 2.274366 0
M  V30 17 C 0.020941 -1.522717 1.374863 0
M  V30 18 C -1.036602 -2.374415 1.179884 0
M  V30 19 C -2.191043 -2.210919 1.922708 0
M  V30 20 N -3.281257 -2.940790 1.850562 0
M  V30 21 C -4.277845 -2.817669 2.475387 0
M  V30 22 N -5.586300 -3.336659 2.700665 0
M  V30 23 C -6.538461 -2.843276 3.623973 0
M  V30 24 C -7.859068 -3.524737 3.713745 0
M  V30 25 O -6.305985 -1.850897 4.368808 0
M  V30 26 S -3.819410 -1.300236 3.563825 0
M  V30 27 C -2.160606 -1.155197 2.829717 0
M  V30 28 C -1.091805 -0.290680 3.029998 0
M  V30 29 C 2.030169 0.831841 1.530472 0
M  V30 30 C 3.353198 -0.918089 -1.518811 0
M  V30 31 C 2.521364 -1.441944 -2.484956 0
M  V30 32 H 1.469467 -0.867642 -6.509709 0
M  V30 33 H -0.175174 -1.205296 -5.888627 0
M  V30 34 H 0.634294 0.339939 -5.471719 0
M  V30 35 H 2.257964 1.141055 -4.532505 0
M  V30 36 H 3.744651 2.142528 -2.846461 0
M  V30 37 H 4.109547 3.145086 0.719112 0
M  V30 38 H 4.005136 2.894895 3.203665 0
M  V30 39 H 2.482445 2.278838 5.020964 0
M  V30 40 H 0.678809 0.734332 4.575046 0
M  V30 41 H 0.956898 -1.622817 0.801140 0
M  V30 42 H -0.864260 -3.138958 0.422113 0
M  V30 43 H -5.722936 -4.149702 2.062698 0
M  V30 44 H -8.319591 -3.449037 4.716756 0
M  V30 45 H -7.717284 -4.586556 3.423903 0
M  V30 46 H -8.581882 -3.102065 2.968100 0
M  V30 47 H -1.253759 0.470037 3.779132 0
M  V30 48 H 1.861334 0.398155 0.554526 0
M  V30 49 H 3.704002 -1.460621 -0.627737 0
M  V30 50 H 2.246532 -2.474200 -2.260420 0
M  V30 END ATOM
M  V30 BEGIN BOND
M  V30 1 1 1 2
M  V30 2 1 2 3
M  V30 3 2 3 4
M  V30 4 1 4 5
M  V30 5 2 5 6
M  V30 6 1 6 7
M  V30 7 2 7 8
M  V30 8 2 7 9
M  V30 9 1 7 10
M  V30 10 1 10 11
M  V30 11 2 11 12
M  V30 12 1 12 13
M  V30 13 2 13 14
M  V30 14 1 14 15
M  V30 15 1 15 16
M  V30 16 2 16 17
M  V30 17 1 17 18
M  V30 18 2 18 19
M  V30 19 1 19 20
M  V30 20 2 20 21
M  V30 21 1 21 22
M  V30 22 1 22 23
M  V30 23 1 23 24
M  V30 24 2 23 25
M  V30 25 1 21 26
M  V30 26 1 26 27
M  V30 27 2 27 28
M  V30 28 2 15 29
M  V30 29 1 6 30
M  V30 30 2 30 31
M  V30 31 1 31 3
M  V30 32 1 29 11
M  V30 33 1 28 16
M  V30 34 1 27 19
M  V30 35 1 1 32
M  V30 36 1 1 33
M  V30 37 1 1 34
M  V30 38 1 4 35
M  V30 39 1 5 36
M  V30 40 1 10 37
M  V30 41 1 12 38
M  V30 42 1 13 39
M  V30 43 1 14 40
M  V30 44 1 17 41
M  V30 45 1 18 42
M  V30 46 1 22 43
M  V30 47 1 24 44
M  V30 48 1 24 45
M  V30 49 1 24 46
M  V30 50 1 28 47
M  V30 51 1 29 48
M  V30 52 1 30 49
M  V30 53 1 31 50
M  V30 END BOND
M  V30 END CTAB
M  END
>  <Dataset>  (176) 
ChEMBL_Kinases

>  <Ligand_Instance>  (176) 
nan

>  <PDB_ID>  (176) 
nan

>  <Standardized_SMILES>  (176) 
COc1ccc(S(=O)(=O)Nc2cccc(-c3ccc4nc(NC(C)=O)sc4c3)c2)cc1

>  <Name>  (176) 
nan

>  <Pocket>  (176) 
nan

>  <ATP_Site>  (176) 
nan

>  <Peripheral>  (176) 
nan

>  <Num_H_Atoms_ProtBoundConf>  (176) 
nan

>  <Num_Resolved_Atoms>  (176) 
nan

>  <Num_Not_Resolved_Atoms>  (176) 
nan

$$$$
CHEMBL1773600
     RDKit          3D

  0  0  0  0  0  0  0  0  0  0999 V3000
M  V30 BEGIN CTAB
M  V30 COUNTS 48 51 0 0 0
M  V30 BEGIN ATOM
M  V30 1 C -2.996227 2.724639 -1.985756 0
M  V30 2 O -2.054894 3.758891 -1.711248 0
M  V30 3 C -0.715424 3.493935 -1.526733 0
M  V30 4 C 0.256735 4.459033 -1.256061 0
M  V30 5 C 1.584689 4.134393 -1.080005 0
M  V30 6 C 2.013924 2.803199 -1.167856 0
M  V30 7 S 3.702249 2.396584 -0.952707 0
M  V30 8 O 3.994236 1.097988 -1.691402 0
M  V30 9 O 4.578920 3.425263 -1.598114 0
M  V30 10 N 4.151583 2.216013 0.691329 0
M  V30 11 C 3.642306 1.266949 1.618306 0
M  V30 12 C 4.136225 1.289821 2.911379 0
M  V30 13 N 3.723720 0.441476 3.865790 0
M  V30 14 C 2.790202 -0.481439 3.579469 0
M  V30 15 C 2.276221 -0.534696 2.305588 0
M  V30 16 C 1.272569 -1.523872 1.971275 0
M  V30 17 C 0.702803 -1.664138 0.725679 0
M  V30 18 C -0.251846 -2.577654 0.358945 0
M  V30 19 C -0.723579 -3.476264 1.311476 0
M  V30 20 N -1.631187 -4.442971 1.215780 0
M  V30 21 C -2.004295 -5.174948 2.026528 0
M  V30 22 N -3.008420 -6.224859 1.867869 0
M  V30 23 C -4.296551 -5.701892 2.148883 0
M  V30 24 C -5.505582 -6.555910 2.063843 0
M  V30 25 O -4.579232 -4.513492 2.488736 0
M  V30 26 S -0.972025 -4.636095 3.559552 0
M  V30 27 C -0.134203 -3.316971 2.563670 0
M  V30 28 C 0.818310 -2.401181 2.918321 0
M  V30 29 N 2.723796 0.343341 1.374664 0
M  V30 30 C 1.033164 1.872282 -1.436139 0
M  V30 31 C -0.299749 2.174446 -1.615441 0
M  V30 32 H -3.954987 3.114311 -2.324369 0
M  V30 33 H -2.575652 2.085404 -2.816271 0
M  V30 34 H -3.092987 2.046789 -1.121797 0
M  V30 35 H -0.102810 5.474684 -1.193868 0
M  V30 36 H 2.306965 4.923515 -0.870380 0
M  V30 37 H 4.892899 2.891811 1.052083 0
M  V30 38 H 4.903270 2.017482 3.221641 0
M  V30 39 H 2.519833 -1.118347 4.402457 0
M  V30 40 H 1.060063 -0.965596 -0.048648 0
M  V30 41 H -0.610688 -2.572850 -0.661240 0
M  V30 42 H -2.844744 -7.197230 1.597565 0
M  V30 43 H -6.104378 -6.255101 1.163744 0
M  V30 44 H -5.296018 -7.629859 2.009162 0
M  V30 45 H -6.199735 -6.383299 2.932873 0
M  V30 46 H 1.130931 -2.451345 3.923778 0
M  V30 47 H 1.431953 0.869267 -1.495466 0
M  V30 48 H -0.948328 1.311280 -1.822161 0
M  V30 END ATOM
M  V30 BEGIN BOND
M  V30 1 1 1 2
M  V30 2 1 2 3
M  V30 3 2 3 4
M  V30 4 1 4 5
M  V30 5 2 5 6
M  V30 6 1 6 7
M  V30 7 2 7 8
M  V30 8 2 7 9
M  V30 9 1 7 10
M  V30 10 1 10 11
M  V30 11 2 11 12
M  V30 12 1 12 13
M  V30 13 2 13 14
M  V30 14 1 14 15
M  V30 15 1 15 16
M  V30 16 2 16 17
M  V30 17 1 17 18
M  V30 18 2 18 19
M  V30 19 1 19 20
M  V30 20 2 20 21
M  V30 21 1 21 22
M  V30 22 1 22 23
M  V30 23 1 23 24
M  V30 24 2 23 25
M  V30 25 1 21 26
M  V30 26 1 26 27
M  V30 27 2 27 28
M  V30 28 2 15 29
M  V30 29 1 6 30
M  V30 30 2 30 31
M  V30 31 1 31 3
M  V30 32 1 29 11
M  V30 33 1 28 16
M  V30 34 1 27 19
M  V30 35 1 1 32
M  V30 36 1 1 33
M  V30 37 1 1 34
M  V30 38 1 4 35
M  V30 39 1 5 36
M  V30 40 1 10 37
M  V30 41 1 12 38
M  V30 42 1 14 39
M  V30 43 1 17 40
M  V30 44 1 18 41
M  V30 45 1 22 42
M  V30 46 1 24 43
M  V30 47 1 24 44
M  V30 48 1 24 45
M  V30 49 1 28 46
M  V30 50 1 30 47
M  V30 51 1 31 48
M  V30 END BOND
M  V30 END CTAB
M  END
>  <Dataset>  (177) 
ChEMBL_Kinases

>  <Ligand_Instance>  (177) 
nan

>  <PDB_ID>  (177) 
nan

>  <Standardized_SMILES>  (177) 
COc1ccc(S(=O)(=O)Nc2cncc(-c3ccc4nc(NC(C)=O)sc4c3)n2)cc1

>  <Name>  (177) 
nan

>  <Pocket>  (177) 
nan

>  <ATP_Site>  (177) 
nan

>  <Peripheral>  (177) 
nan

>  <Num_H_Atoms_ProtBoundConf>  (177) 
nan

>  <Num_Resolved_Atoms>  (177) 
nan

>  <Num_Not_Resolved_Atoms>  (177) 
nan

$$$$
CHEMBL1784170
     RDKit          3D

  0  0  0  0  0  0  0  0  0  0999 V3000
M  V30 BEGIN CTAB
M  V30 COUNTS 50 52 0 0 0
M  V30 BEGIN ATOM
M  V30 1 C 6.547054 -5.691338 2.283178 0
M  V30 2 O 6.355783 -5.023174 1.072913 0
M  V30 3 C 5.162933 -4.267994 1.102348 0
M  V30 4 C 5.021160 -3.573513 -0.236919 0
M  V30 5 N 3.814945 -2.763211 -0.310388 0
M  V30 6 C 2.507309 -3.289626 -0.161821 0
M  V30 7 O 2.375563 -4.515612 0.043467 0
M  V30 8 C 1.291060 -2.498003 -0.231509 0
M  V30 9 C 0.081554 -3.130333 -0.070862 0
M  V30 10 C -1.137476 -2.465253 -0.119842 0
M  V30 11 C -1.171324 -1.103352 -0.338777 0
M  V30 12 C -2.357186 -0.253492 -0.420441 0
M  V30 13 C -2.309624 0.940980 0.284269 0
M  V30 14 C -3.370010 1.820928 0.281603 0
M  V30 15 C -3.397113 3.097050 0.997295 0
M  V30 16 O -4.376788 3.893926 0.986202 0
M  V30 17 N -2.306300 3.557299 1.779004 0
M  V30 18 C -2.286747 4.801147 2.498456 0
M  V30 19 C -1.651938 4.690266 3.900503 0
M  V30 20 C -1.027499 5.511763 2.799495 0
M  V30 21 C -4.487574 1.473616 -0.449069 0
M  V30 22 C -4.587610 0.301043 -1.166305 0
M  V30 23 F -5.694466 -0.019473 -1.876574 0
M  V30 24 C -3.500698 -0.547760 -1.133252 0
M  V30 25 C -3.543177 -1.817919 -1.880666 0
M  V30 26 C 0.032919 -0.450893 -0.502418 0
M  V30 27 C 1.228770 -1.137199 -0.448865 0
M  V30 28 H 7.475991 -6.290581 2.285058 0
M  V30 29 H 6.644974 -4.888131 3.052803 0
M  V30 30 H 5.708989 -6.350615 2.563460 0
M  V30 31 H 4.316582 -4.965144 1.259631 0
M  V30 32 H 5.170620 -3.545058 1.920541 0
M  V30 33 H 5.888770 -2.895019 -0.371791 0
M  V30 34 H 5.080730 -4.293506 -1.075440 0
M  V30 35 H 3.857545 -1.734548 -0.479554 0
M  V30 36 H 0.008022 -4.204019 0.106533 0
M  V30 37 H -2.101299 -2.940830 0.004390 0
M  V30 38 H -1.447813 1.204539 0.845297 0
M  V30 39 H -1.426878 2.971956 1.863179 0
M  V30 40 H -3.211738 5.399314 2.399760 0
M  V30 41 H -2.167924 5.201949 4.736825 0
M  V30 42 H -1.140347 3.737717 4.158187 0
M  V30 43 H -0.045345 5.161445 2.420763 0
M  V30 44 H -1.102498 6.612292 2.922319 0
M  V30 45 H -5.335116 2.127469 -0.479401 0
M  V30 46 H -4.064479 -2.640931 -1.338651 0
M  V30 47 H -4.140151 -1.713868 -2.834628 0
M  V30 48 H -2.542272 -2.144182 -2.213076 0
M  V30 49 H 0.097654 0.618464 -0.678693 0
M  V30 50 H 2.163990 -0.610025 -0.579273 0
M  V30 END ATOM
M  V30 BEGIN BOND
M  V30 1 1 1 2
M  V30 2 1 2 3
M  V30 3 1 3 4
M  V30 4 1 4 5
M  V30 5 1 5 6
M  V30 6 2 6 7
M  V30 7 1 6 8
M  V30 8 2 8 9
M  V30 9 1 9 10
M  V30 10 2 10 11
M  V30 11 1 11 12
M  V30 12 2 12 13
M  V30 13 1 13 14
M  V30 14 1 14 15
M  V30 15 2 15 16
M  V30 16 1 15 17
M  V30 17 1 17 18
M  V30 18 1 18 19
M  V30 19 1 19 20
M  V30 20 2 14 21
M  V30 21 1 21 22
M  V30 22 1 22 23
M  V30 23 2 22 24
M  V30 24 1 24 25
M  V30 25 1 11 26
M  V30 26 2 26 27
M  V30 27 1 27 8
M  V30 28 1 24 12
M  V30 29 1 20 18
M  V30 30 1 1 28
M  V30 31 1 1 29
M  V30 32 1 1 30
M  V30 33 1 3 31
M  V30 34 1 3 32
M  V30 35 1 4 33
M  V30 36 1 4 34
M  V30 37 1 5 35
M  V30 38 1 9 36
M  V30 39 1 10 37
M  V30 40 1 13 38
M  V30 41 1 17 39
M  V30 42 1 18 40
M  V30 43 1 19 41
M  V30 44 1 19 42
M  V30 45 1 20 43
M  V30 46 1 20 44
M  V30 47 1 21 45
M  V30 48 1 25 46
M  V30 49 1 25 47
M  V30 50 1 25 48
M  V30 51 1 26 49
M  V30 52 1 27 50
M  V30 END BOND
M  V30 END CTAB
M  END
>  <Dataset>  (178) 
ChEMBL_Kinases

>  <Ligand_Instance>  (178) 
nan

>  <PDB_ID>  (178) 
nan

>  <Standardized_SMILES>  (178) 
COCCNC(=O)c1ccc(-c2cc(C(=O)NC3CC3)cc(F)c2C)cc1

>  <Name>  (178) 
nan

>  <Pocket>  (178) 
nan

>  <ATP_Site>  (178) 
nan

>  <Peripheral>  (178) 
nan

>  <Num_H_Atoms_ProtBoundConf>  (178) 
nan

>  <Num_Resolved_Atoms>  (178) 
nan

>  <Num_Not_Resolved_Atoms>  (178) 
nan

$$$$
CHEMBL1773515
     RDKit          3D

  0  0  0  0  0  0  0  0  0  0999 V3000
M  V30 BEGIN CTAB
M  V30 COUNTS 50 52 0 0 0
M  V30 BEGIN ATOM
M  V30 1 C 1.303098 -3.550115 3.812023 0
M  V30 2 C 1.516467 -2.092181 3.452124 0
M  V30 3 C 1.406595 -1.190222 4.638697 0
M  V30 4 C 2.822784 -1.960789 2.697988 0 CFG=1
M  V30 5 C 4.019417 -2.413817 3.456612 0
M  V30 6 N 2.658824 -2.589763 1.406827 0
M  V30 7 C 1.850423 -2.163786 0.324187 0
M  V30 8 C 1.147619 -1.002493 0.260680 0
M  V30 9 C 0.351551 -0.617520 -0.801647 0
M  V30 10 C -0.377426 0.655459 -0.804553 0
M  V30 11 N 0.385014 1.740061 -0.790563 0
M  V30 12 C -0.435806 2.828127 -0.799118 0
M  V30 13 S -0.251132 4.586337 -0.794005 0 CHG=1 VAL=3
M  V30 14 C -0.178598 5.176362 -2.465525 0
M  V30 15 O 1.212890 4.973747 -0.046589 0 CHG=-1 VAL=1
M  V30 16 N -1.709502 2.397085 -0.818328 0
M  V30 17 C -1.708553 1.044483 -0.822368 0
M  V30 18 C -2.738876 0.014379 -0.838231 0
M  V30 19 C -2.790154 -0.818185 0.284060 0
M  V30 20 C -3.765254 -1.819074 0.305031 0
M  V30 21 C -4.640309 -1.954133 -0.772271 0
M  V30 22 F -5.619991 -2.891501 -0.848853 0
M  V30 23 C -4.571148 -1.117425 -1.873682 0
M  V30 24 C -3.605955 -0.128281 -1.893333 0
M  V30 25 C 0.264197 -1.476000 -1.877789 0
M  V30 26 C 0.980324 -2.653970 -1.809237 0
M  V30 27 N 1.735613 -2.966822 -0.744820 0
M  V30 28 H 1.881465 -4.151648 3.079790 0
M  V30 29 H 1.680323 -3.778070 4.839727 0
M  V30 30 H 0.241117 -3.838876 3.681869 0
M  V30 31 H 0.694188 -1.838018 2.758308 0
M  V30 32 H 0.884445 -1.740207 5.457984 0
M  V30 33 H 0.764143 -0.284418 4.447692 0
M  V30 34 H 2.375755 -0.762465 4.979746 0
M  V30 35 H 2.883252 -0.849351 2.460179 0
M  V30 36 H 4.864709 -1.726469 3.153519 0
M  V30 37 H 4.325131 -3.445632 3.255411 0
M  V30 38 H 3.862501 -2.193124 4.543838 0
M  V30 39 H 3.226098 -3.454903 1.319607 0
M  V30 40 H 1.189354 -0.296651 1.066628 0
M  V30 41 H 1.392462 2.024428 -0.776018 0
M  V30 42 H -0.228373 6.298010 -2.406322 0
M  V30 43 H -1.029216 4.803591 -3.071185 0
M  V30 44 H 0.810629 4.933004 -2.876766 0
M  V30 45 H -2.131838 -0.748982 1.142381 0
M  V30 46 H -3.913718 -2.519582 1.096526 0
M  V30 47 H -5.210754 -1.166721 -2.729872 0
M  V30 48 H -3.461411 0.580615 -2.705381 0
M  V30 49 H -0.352371 -1.191402 -2.716799 0
M  V30 50 H 0.891522 -3.304524 -2.668916 0
M  V30 END ATOM
M  V30 BEGIN BOND
M  V30 1 1 1 2
M  V30 2 1 2 3
M  V30 3 1 2 4
M  V30 4 1 4 5
M  V30 5 1 4 6
M  V30 6 1 6 7
M  V30 7 2 7 8
M  V30 8 1 8 9
M  V30 9 1 9 10
M  V30 10 1 10 11
M  V30 11 1 11 12
M  V30 12 1 12 13
M  V30 13 1 13 14
M  V30 14 1 13 15 CFG=1
M  V30 15 2 12 16
M  V30 16 1 16 17
M  V30 17 1 17 18
M  V30 18 2 18 19
M  V30 19 1 19 20
M  V30 20 2 20 21
M  V30 21 1 21 22
M  V30 22 1 21 23
M  V30 23 2 23 24
M  V30 24 2 9 25
M  V30 25 1 25 26
M  V30 26 2 26 27
M  V30 27 1 27 7
M  V30 28 2 17 10
M  V30 29 1 24 18
M  V30 30 1 1 28
M  V30 31 1 1 29
M  V30 32 1 1 30
M  V30 33 1 2 31
M  V30 34 1 3 32
M  V30 35 1 3 33
M  V30 36 1 3 34
M  V30 37 1 4 35 CFG=3
M  V30 38 1 5 36
M  V30 39 1 5 37
M  V30 40 1 5 38
M  V30 41 1 6 39
M  V30 42 1 8 40
M  V30 43 1 11 41
M  V30 44 1 14 42
M  V30 45 1 14 43
M  V30 46 1 14 44
M  V30 47 1 19 45
M  V30 48 1 20 46
M  V30 49 1 23 47
M  V30 50 1 24 48
M  V30 51 1 25 49
M  V30 52 1 26 50
M  V30 END BOND
M  V30 END CTAB
M  END
>  <Dataset>  (179) 
ChEMBL_Kinases

>  <Ligand_Instance>  (179) 
nan

>  <PDB_ID>  (179) 
nan

>  <Standardized_SMILES>  (179) 
CC(C)[C@@H](C)Nc1cc(-c2[nH]c([S@+](C)[O-])nc2-c2ccc(F)cc2)ccn1

>  <Name>  (179) 
nan

>  <Pocket>  (179) 
nan

>  <ATP_Site>  (179) 
nan

>  <Peripheral>  (179) 
nan

>  <Num_H_Atoms_ProtBoundConf>  (179) 
nan

>  <Num_Resolved_Atoms>  (179) 
nan

>  <Num_Not_Resolved_Atoms>  (179) 
nan

$$$$
CHEMBL1773516
     RDKit          3D

  0  0  0  0  0  0  0  0  0  0999 V3000
M  V30 BEGIN CTAB
M  V30 COUNTS 51 54 0 0 0
M  V30 BEGIN ATOM
M  V30 1 C 1.383533 -4.991456 0.632520 0
M  V30 2 C 0.124902 -4.448286 0.055090 0 CFG=1
M  V30 3 N -0.755704 -3.845720 1.039356 0
M  V30 4 C -0.440489 -2.819296 1.949599 0
M  V30 5 C -0.157699 -1.531979 1.502109 0
M  V30 6 C 0.131449 -0.560421 2.413440 0
M  V30 7 C 0.462387 0.847094 2.187450 0
M  V30 8 N 1.745826 1.177093 2.523018 0
M  V30 9 C 1.953645 2.496762 2.284571 0
M  V30 10 S 3.154560 3.778736 2.355091 0 CHG=1 VAL=3
M  V30 11 C 3.853518 3.943584 0.703339 0
M  V30 12 O 4.397912 3.274433 3.360502 0 CHG=-1 VAL=1
M  V30 13 N 0.791131 3.017906 1.791333 0
M  V30 14 C -0.124011 2.005209 1.730595 0
M  V30 15 C -1.519605 1.920165 1.288603 0
M  V30 16 C -1.633924 1.215102 0.085379 0
M  V30 17 C -2.865831 1.011619 -0.496790 0
M  V30 18 C -4.000873 1.499499 0.095992 0
M  V30 19 F -5.223737 1.303133 -0.468788 0
M  V30 20 C -3.882383 2.196718 1.285161 0
M  V30 21 C -2.659391 2.412524 1.887535 0
M  V30 22 C 0.127136 -0.908518 3.763647 0
M  V30 23 C -0.159045 -2.204950 4.200294 0
M  V30 24 N -0.438960 -3.142772 3.277106 0
M  V30 25 C 0.284843 -3.614449 -1.149193 0
M  V30 26 C -0.968580 -3.165739 -1.570353 0
M  V30 27 C -1.134144 -2.356253 -2.678635 0
M  V30 28 C 0.016986 -1.989501 -3.385505 0
M  V30 29 C 1.256624 -2.437000 -2.964452 0
M  V30 30 C 1.389777 -3.240362 -1.858450 0
M  V30 31 H 1.281572 -5.107340 1.747741 0
M  V30 32 H 2.285865 -4.393933 0.437776 0
M  V30 33 H 1.616290 -6.036231 0.271501 0
M  V30 34 H -0.460595 -5.354726 -0.298391 0
M  V30 35 H -1.753093 -4.100347 1.202289 0
M  V30 36 H -0.147591 -1.254553 0.484200 0
M  V30 37 H 2.632148 0.767875 2.902726 0
M  V30 38 H 4.738028 4.579762 0.708977 0
M  V30 39 H 3.086517 4.416783 0.029125 0
M  V30 40 H 4.129397 2.974894 0.273993 0
M  V30 41 H -0.825249 0.794876 -0.469795 0
M  V30 42 H -2.990561 0.456941 -1.442857 0
M  V30 43 H -4.743567 2.611545 1.806390 0
M  V30 44 H -2.455204 2.936175 2.797333 0
M  V30 45 H 0.342416 -0.216820 4.573863 0
M  V30 46 H -0.167275 -2.504684 5.232334 0
M  V30 47 H -1.951705 -3.371675 -1.120513 0
M  V30 48 H -2.045258 -1.967887 -3.072394 0
M  V30 49 H 0.078838 -1.369909 -4.266923 0
M  V30 50 H 2.198866 -2.193738 -3.461616 0
M  V30 51 H 2.288011 -3.636593 -1.450663 0
M  V30 END ATOM
M  V30 BEGIN BOND
M  V30 1 1 1 2
M  V30 2 1 2 3
M  V30 3 1 3 4
M  V30 4 2 4 5
M  V30 5 1 5 6
M  V30 6 1 6 7
M  V30 7 1 7 8
M  V30 8 1 8 9
M  V30 9 1 9 10
M  V30 10 1 10 11
M  V30 11 1 10 12
M  V30 12 2 9 13
M  V30 13 1 13 14
M  V30 14 1 14 15
M  V30 15 2 15 16
M  V30 16 1 16 17
M  V30 17 2 17 18
M  V30 18 1 18 19
M  V30 19 1 18 20
M  V30 20 2 20 21
M  V30 21 2 6 22
M  V30 22 1 22 23
M  V30 23 2 23 24
M  V30 24 1 2 25
M  V30 25 2 25 26
M  V30 26 1 26 27
M  V30 27 2 27 28
M  V30 28 1 28 29
M  V30 29 2 29 30
M  V30 30 1 24 4
M  V30 31 1 30 25
M  V30 32 2 14 7
M  V30 33 1 21 15
M  V30 34 1 1 31
M  V30 35 1 1 32
M  V30 36 1 1 33
M  V30 37 1 2 34 CFG=3
M  V30 38 1 3 35
M  V30 39 1 5 36
M  V30 40 1 8 37
M  V30 41 1 11 38
M  V30 42 1 11 39
M  V30 43 1 11 40
M  V30 44 1 16 41
M  V30 45 1 17 42
M  V30 46 1 20 43
M  V30 47 1 21 44
M  V30 48 1 22 45
M  V30 49 1 23 46
M  V30 50 1 26 47
M  V30 51 1 27 48
M  V30 52 1 28 49
M  V30 53 1 29 50
M  V30 54 1 30 51
M  V30 END BOND
M  V30 END CTAB
M  END
>  <Dataset>  (180) 
ChEMBL_Kinases

>  <Ligand_Instance>  (180) 
nan

>  <PDB_ID>  (180) 
nan

>  <Standardized_SMILES>  (180) 
C[C@@H](Nc1cc(-c2[nH]c([S+](C)[O-])nc2-c2ccc(F)cc2)ccn1)c1ccccc1

>  <Name>  (180) 
nan

>  <Pocket>  (180) 
nan

>  <ATP_Site>  (180) 
nan

>  <Peripheral>  (180) 
nan

>  <Num_H_Atoms_ProtBoundConf>  (180) 
nan

>  <Num_Resolved_Atoms>  (180) 
nan

>  <Num_Not_Resolved_Atoms>  (180) 
nan

$$$$
CHEMBL1773517
     RDKit          3D

  0  0  0  0  0  0  0  0  0  0999 V3000
M  V30 BEGIN CTAB
M  V30 COUNTS 51 54 0 0 0
M  V30 BEGIN ATOM
M  V30 1 C 1.553591 -4.286394 1.655031 0
M  V30 2 C 0.230187 -4.387041 0.931724 0 CFG=1
M  V30 3 N -0.855977 -3.954848 1.751398 0
M  V30 4 C -1.137585 -2.670703 2.279481 0
M  V30 5 C -0.437726 -1.534912 1.995377 0
M  V30 6 C -0.703159 -0.299855 2.528455 0
M  V30 7 C 0.001844 0.944735 2.263156 0
M  V30 8 N 0.790821 1.605404 3.127396 0
M  V30 9 C 1.251561 2.703630 2.499126 0
M  V30 10 S 2.313271 3.990648 3.019645 0 CHG=1 VAL=3
M  V30 11 C 3.989703 3.606991 2.599399 0
M  V30 12 O 1.854988 5.472078 2.375460 0 CHG=-1 VAL=1
M  V30 13 N 0.737410 2.698159 1.259451 0
M  V30 14 C -0.053577 1.614900 1.061988 0
M  V30 15 C -0.742138 1.357960 -0.195495 0
M  V30 16 C -0.209579 1.177986 -1.454621 0
M  V30 17 C -1.031062 0.946898 -2.537105 0
M  V30 18 C -2.415684 0.885590 -2.409371 0
M  V30 19 F -3.207172 0.656065 -3.494394 0
M  V30 20 C -2.927992 1.067821 -1.142085 0
M  V30 21 C -2.117276 1.302425 -0.035575 0
M  V30 22 C -1.750755 -0.188467 3.415750 0
M  V30 23 C -2.465989 -1.317203 3.713254 0
M  V30 24 N -2.143709 -2.488107 3.150130 0
M  V30 25 C 0.334689 -3.651649 -0.367026 0
M  V30 26 C -0.791065 -3.358083 -1.118973 0
M  V30 27 C -0.694673 -2.685145 -2.323348 0
M  V30 28 C 0.531526 -2.279060 -2.823996 0
M  V30 29 C 1.669560 -2.559986 -2.092658 0
M  V30 30 C 1.531425 -3.228948 -0.903619 0
M  V30 31 H 2.228277 -5.075098 1.290787 0
M  V30 32 H 1.961056 -3.277128 1.565663 0
M  V30 33 H 1.318371 -4.522265 2.729400 0
M  V30 34 H 0.097674 -5.465195 0.699541 0
M  V30 35 H -1.575283 -4.699376 2.016446 0
M  V30 36 H 0.383746 -1.558131 1.306657 0
M  V30 37 H 1.047474 1.378491 4.111845 0
M  V30 38 H 4.461785 4.451630 2.019285 0
M  V30 39 H 4.604713 3.482881 3.510729 0
M  V30 40 H 4.035547 2.696358 1.944200 0
M  V30 41 H 0.866568 1.238034 -1.479993 0
M  V30 42 H -0.577236 0.813922 -3.494916 0
M  V30 43 H -4.026677 1.013438 -1.077880 0
M  V30 44 H -2.692308 1.424481 0.895788 0
M  V30 45 H -2.084571 0.728891 3.923240 0
M  V30 46 H -3.315952 -1.400891 4.388767 0
M  V30 47 H -1.774164 -3.647372 -0.784455 0
M  V30 48 H -1.543505 -2.436148 -2.941420 0
M  V30 49 H 0.652682 -1.746730 -3.766639 0
M  V30 50 H 2.620820 -2.247927 -2.474468 0
M  V30 51 H 2.453227 -3.419463 -0.385871 0
M  V30 END ATOM
M  V30 BEGIN BOND
M  V30 1 1 1 2
M  V30 2 1 2 3
M  V30 3 1 3 4
M  V30 4 2 4 5
M  V30 5 1 5 6
M  V30 6 1 6 7
M  V30 7 1 7 8
M  V30 8 1 8 9
M  V30 9 1 9 10
M  V30 10 1 10 11
M  V30 11 1 10 12 CFG=3
M  V30 12 2 9 13
M  V30 13 1 13 14
M  V30 14 1 14 15
M  V30 15 2 15 16
M  V30 16 1 16 17
M  V30 17 2 17 18
M  V30 18 1 18 19
M  V30 19 1 18 20
M  V30 20 2 20 21
M  V30 21 2 6 22
M  V30 22 1 22 23
M  V30 23 2 23 24
M  V30 24 1 2 25
M  V30 25 2 25 26
M  V30 26 1 26 27
M  V30 27 2 27 28
M  V30 28 1 28 29
M  V30 29 2 29 30
M  V30 30 1 24 4
M  V30 31 1 30 25
M  V30 32 2 14 7
M  V30 33 1 21 15
M  V30 34 1 1 31
M  V30 35 1 1 32
M  V30 36 1 1 33
M  V30 37 1 2 34 CFG=3
M  V30 38 1 3 35
M  V30 39 1 5 36
M  V30 40 1 8 37
M  V30 41 1 11 38
M  V30 42 1 11 39
M  V30 43 1 11 40
M  V30 44 1 16 41
M  V30 45 1 17 42
M  V30 46 1 20 43
M  V30 47 1 21 44
M  V30 48 1 22 45
M  V30 49 1 23 46
M  V30 50 1 26 47
M  V30 51 1 27 48
M  V30 52 1 28 49
M  V30 53 1 29 50
M  V30 54 1 30 51
M  V30 END BOND
M  V30 END CTAB
M  END
>  <Dataset>  (181) 
ChEMBL_Kinases

>  <Ligand_Instance>  (181) 
nan

>  <PDB_ID>  (181) 
nan

>  <Standardized_SMILES>  (181) 
C[C@@H](Nc1cc(-c2[nH]c([S@@+](C)[O-])nc2-c2ccc(F)cc2)ccn1)c1ccccc1

>  <Name>  (181) 
nan

>  <Pocket>  (181) 
nan

>  <ATP_Site>  (181) 
nan

>  <Peripheral>  (181) 
nan

>  <Num_H_Atoms_ProtBoundConf>  (181) 
nan

>  <Num_Resolved_Atoms>  (181) 
nan

>  <Num_Not_Resolved_Atoms>  (181) 
nan

$$$$
CHEMBL1773518
     RDKit          3D

  0  0  0  0  0  0  0  0  0  0999 V3000
M  V30 BEGIN CTAB
M  V30 COUNTS 51 54 0 0 0
M  V30 BEGIN ATOM
M  V30 1 C 1.031448 -4.876777 1.267655 0
M  V30 2 C -0.170052 -4.365617 0.527370 0 CFG=1
M  V30 3 N -1.096907 -3.645747 1.386230 0
M  V30 4 C -0.991831 -2.493666 2.195643 0
M  V30 5 C -0.435160 -1.308271 1.791168 0
M  V30 6 C -0.325310 -0.196656 2.575570 0
M  V30 7 C 0.249420 1.099348 2.249265 0
M  V30 8 N 1.192190 1.686192 2.977639 0
M  V30 9 C 1.553416 2.881498 2.497509 0
M  V30 10 S 2.616811 4.214677 2.822183 0 CHG=1 VAL=3
M  V30 11 C 4.231261 4.022241 2.160261 0
M  V30 12 O 2.602337 4.719544 4.407170 0 CHG=-1 VAL=1
M  V30 13 N 0.796267 3.084590 1.383632 0
M  V30 14 C -0.008929 2.006863 1.212744 0
M  V30 15 C -1.034682 1.580276 0.240435 0
M  V30 16 C -0.402324 1.322161 -0.957392 0
M  V30 17 C -1.186880 0.893026 -2.035328 0
M  V30 18 C -2.543827 0.749046 -1.854709 0
M  V30 19 F -3.339798 0.338275 -2.851350 0
M  V30 20 C -3.166109 1.015523 -0.639792 0
M  V30 21 C -2.392014 1.435626 0.414592 0
M  V30 22 C -0.804980 -0.265260 3.867350 0
M  V30 23 C -1.367212 -1.436377 4.302008 0
M  V30 24 N -1.449124 -2.499257 3.483306 0
M  V30 25 C 0.107082 -3.704455 -0.751368 0
M  V30 26 C -1.067233 -3.282139 -1.374170 0
M  V30 27 C -1.001267 -2.634015 -2.610952 0
M  V30 28 C 0.214309 -2.408844 -3.219923 0
M  V30 29 C 1.381083 -2.825565 -2.607543 0
M  V30 30 C 1.300994 -3.458566 -1.397716 0
M  V30 31 H 1.257804 -4.181399 2.109085 0
M  V30 32 H 1.894912 -5.099210 0.643315 0
M  V30 33 H 0.796732 -5.862968 1.782043 0
M  V30 34 H -0.736362 -5.314031 0.239204 0
M  V30 35 H -2.106482 -3.983482 1.487343 0
M  V30 36 H -0.046827 -1.211432 0.794609 0
M  V30 37 H 1.712386 1.415745 3.842483 0
M  V30 38 H 4.699343 5.022437 2.094745 0
M  V30 39 H 4.861315 3.325490 2.759188 0
M  V30 40 H 4.137114 3.667753 1.114134 0
M  V30 41 H 0.642668 1.395188 -1.227004 0
M  V30 42 H -0.773855 0.662867 -3.024937 0
M  V30 43 H -4.207664 0.932414 -0.410223 0
M  V30 44 H -2.693023 1.684778 1.413234 0
M  V30 45 H -0.805557 0.511791 4.647833 0
M  V30 46 H -1.797220 -1.689058 5.281302 0
M  V30 47 H -2.109988 -3.362624 -1.064642 0
M  V30 48 H -1.857867 -2.264943 -3.181344 0
M  V30 49 H 0.350652 -1.920601 -4.166225 0
M  V30 50 H 2.380747 -2.701628 -2.993844 0
M  V30 51 H 2.155897 -3.801470 -0.877123 0
M  V30 END ATOM
M  V30 BEGIN BOND
M  V30 1 1 1 2
M  V30 2 1 2 3
M  V30 3 1 3 4
M  V30 4 2 4 5
M  V30 5 1 5 6
M  V30 6 1 6 7
M  V30 7 1 7 8
M  V30 8 1 8 9
M  V30 9 1 9 10
M  V30 10 1 10 11
M  V30 11 1 10 12 CFG=1
M  V30 12 2 9 13
M  V30 13 1 13 14
M  V30 14 1 14 15
M  V30 15 2 15 16
M  V30 16 1 16 17
M  V30 17 2 17 18
M  V30 18 1 18 19
M  V30 19 1 18 20
M  V30 20 2 20 21
M  V30 21 2 6 22
M  V30 22 1 22 23
M  V30 23 2 23 24
M  V30 24 1 2 25
M  V30 25 2 25 26
M  V30 26 1 26 27
M  V30 27 2 27 28
M  V30 28 1 28 29
M  V30 29 2 29 30
M  V30 30 1 24 4
M  V30 31 1 30 25
M  V30 32 2 14 7
M  V30 33 1 21 15
M  V30 34 1 1 31
M  V30 35 1 1 32
M  V30 36 1 1 33
M  V30 37 1 2 34 CFG=3
M  V30 38 1 3 35
M  V30 39 1 5 36
M  V30 40 1 8 37
M  V30 41 1 11 38
M  V30 42 1 11 39
M  V30 43 1 11 40
M  V30 44 1 16 41
M  V30 45 1 17 42
M  V30 46 1 20 43
M  V30 47 1 21 44
M  V30 48 1 22 45
M  V30 49 1 23 46
M  V30 50 1 26 47
M  V30 51 1 27 48
M  V30 52 1 28 49
M  V30 53 1 29 50
M  V30 54 1 30 51
M  V30 END BOND
M  V30 END CTAB
M  END
>  <Dataset>  (182) 
ChEMBL_Kinases

>  <Ligand_Instance>  (182) 
nan

>  <PDB_ID>  (182) 
nan

>  <Standardized_SMILES>  (182) 
C[C@@H](Nc1cc(-c2[nH]c([S@+](C)[O-])nc2-c2ccc(F)cc2)ccn1)c1ccccc1

>  <Name>  (182) 
nan

>  <Pocket>  (182) 
nan

>  <ATP_Site>  (182) 
nan

>  <Peripheral>  (182) 
nan

>  <Num_H_Atoms_ProtBoundConf>  (182) 
nan

>  <Num_Resolved_Atoms>  (182) 
nan

>  <Num_Not_Resolved_Atoms>  (182) 
nan

$$$$
CHEMBL1773519
     RDKit          3D

  0  0  0  0  0  0  0  0  0  0999 V3000
M  V30 BEGIN CTAB
M  V30 COUNTS 51 54 0 0 0
M  V30 BEGIN ATOM
M  V30 1 C -3.657092 -3.849683 1.182036 0
M  V30 2 C -2.129289 -3.823747 1.228199 0 CFG=2
M  V30 3 N -1.735470 -2.602181 1.857245 0
M  V30 4 C -0.569716 -1.880859 2.230685 0
M  V30 5 C 0.036292 -0.909119 1.464763 0
M  V30 6 C 1.163074 -0.300191 1.954624 0
M  V30 7 C 1.883292 0.742925 1.235842 0
M  V30 8 N 3.126118 0.731457 0.741729 0
M  V30 9 C 3.408752 1.913759 0.145172 0
M  V30 10 S 4.858672 2.456598 -0.657204 0 CHG=1 VAL=3
M  V30 11 C 4.858046 2.115766 -2.392239 0
M  V30 12 O 6.160543 1.726163 0.078219 0 CHG=-1 VAL=1
M  V30 13 N 2.309773 2.674435 0.275157 0
M  V30 14 C 1.337443 1.991660 0.944566 0
M  V30 15 C 0.023231 2.536621 1.251303 0
M  V30 16 C -0.983959 2.998205 0.426435 0
M  V30 17 C -2.154265 3.471189 0.979764 0
M  V30 18 C -2.364379 3.503376 2.339719 0
M  V30 19 F -3.539654 3.981532 2.812631 0
M  V30 20 C -1.355485 3.040253 3.185749 0
M  V30 21 C -0.199020 2.573166 2.633842 0
M  V30 22 C 1.663613 -0.668665 3.193138 0
M  V30 23 C 1.040135 -1.649691 3.951688 0
M  V30 24 N -0.072188 -2.232102 3.438172 0
M  V30 25 C -1.646881 -4.014281 -0.142015 0
M  V30 26 C -1.118239 -5.268340 -0.469645 0
M  V30 27 C -0.674383 -5.420084 -1.759989 0
M  V30 28 C -0.701672 -4.458830 -2.753194 0
M  V30 29 C -1.235628 -3.222908 -2.387636 0
M  V30 30 C -1.699910 -3.018031 -1.089699 0
M  V30 31 H -4.044494 -4.888262 1.183412 0
M  V30 32 H -3.969452 -3.382717 0.240940 0
M  V30 33 H -4.021373 -3.242488 2.009380 0
M  V30 34 H -1.848419 -4.671981 1.893432 0
M  V30 35 H -2.432336 -1.894229 2.219550 0
M  V30 36 H -0.373441 -0.652882 0.523105 0
M  V30 37 H 3.809021 -0.075384 0.797802 0
M  V30 38 H 5.004260 1.045070 -2.631849 0
M  V30 39 H 3.970395 2.553228 -2.880418 0
M  V30 40 H 5.755193 2.652444 -2.807354 0
M  V30 41 H -0.702939 2.921959 -0.614953 0
M  V30 42 H -2.889978 3.812503 0.272052 0
M  V30 43 H -1.592529 3.097767 4.229146 0
M  V30 44 H 0.496220 2.246113 3.397747 0
M  V30 45 H 2.569208 -0.179997 3.587132 0
M  V30 46 H 1.484825 -1.886396 4.908258 0
M  V30 47 H -1.060760 -6.073713 0.250019 0
M  V30 48 H -0.258223 -6.406552 -2.018337 0
M  V30 49 H -0.315803 -4.716141 -3.732556 0
M  V30 50 H -1.254093 -2.475312 -3.168061 0
M  V30 51 H -2.109333 -2.048132 -0.832841 0
M  V30 END ATOM
M  V30 BEGIN BOND
M  V30 1 1 1 2
M  V30 2 1 2 3
M  V30 3 1 3 4
M  V30 4 2 4 5
M  V30 5 1 5 6
M  V30 6 1 6 7
M  V30 7 1 7 8
M  V30 8 1 8 9
M  V30 9 1 9 10
M  V30 10 1 10 11
M  V30 11 1 10 12
M  V30 12 2 9 13
M  V30 13 1 13 14
M  V30 14 1 14 15
M  V30 15 2 15 16
M  V30 16 1 16 17
M  V30 17 2 17 18
M  V30 18 1 18 19
M  V30 19 1 18 20
M  V30 20 2 20 21
M  V30 21 2 6 22
M  V30 22 1 22 23
M  V30 23 2 23 24
M  V30 24 1 2 25
M  V30 25 2 25 26
M  V30 26 1 26 27
M  V30 27 2 27 28
M  V30 28 1 28 29
M  V30 29 2 29 30
M  V30 30 1 24 4
M  V30 31 1 30 25
M  V30 32 2 14 7
M  V30 33 1 21 15
M  V30 34 1 1 31
M  V30 35 1 1 32
M  V30 36 1 1 33
M  V30 37 1 2 34 CFG=1
M  V30 38 1 3 35
M  V30 39 1 5 36
M  V30 40 1 8 37
M  V30 41 1 11 38
M  V30 42 1 11 39
M  V30 43 1 11 40
M  V30 44 1 16 41
M  V30 45 1 17 42
M  V30 46 1 20 43
M  V30 47 1 21 44
M  V30 48 1 22 45
M  V30 49 1 23 46
M  V30 50 1 26 47
M  V30 51 1 27 48
M  V30 52 1 28 49
M  V30 53 1 29 50
M  V30 54 1 30 51
M  V30 END BOND
M  V30 END CTAB
M  END
>  <Dataset>  (183) 
ChEMBL_Kinases

>  <Ligand_Instance>  (183) 
nan

>  <PDB_ID>  (183) 
nan

>  <Standardized_SMILES>  (183) 
C[C@H](Nc1cc(-c2[nH]c([S+](C)[O-])nc2-c2ccc(F)cc2)ccn1)c1ccccc1

>  <Name>  (183) 
nan

>  <Pocket>  (183) 
nan

>  <ATP_Site>  (183) 
nan

>  <Peripheral>  (183) 
nan

>  <Num_H_Atoms_ProtBoundConf>  (183) 
nan

>  <Num_Resolved_Atoms>  (183) 
nan

>  <Num_Not_Resolved_Atoms>  (183) 
nan

$$$$
CHEMBL1773520
     RDKit          3D

  0  0  0  0  0  0  0  0  0  0999 V3000
M  V30 BEGIN CTAB
M  V30 COUNTS 51 54 0 0 0
M  V30 BEGIN ATOM
M  V30 1 C -2.024172 -1.450715 3.131242 0
M  V30 2 C -1.683111 -2.817435 2.583765 0 CFG=2
M  V30 3 N -0.326584 -3.205479 2.708130 0
M  V30 4 C 0.871616 -2.545960 2.330200 0
M  V30 5 C 0.969238 -1.291270 1.768585 0
M  V30 6 C 2.099434 -0.624585 1.396964 0
M  V30 7 C 2.125805 0.694924 0.815479 0
M  V30 8 N 2.726568 1.644730 1.588075 0
M  V30 9 C 2.703211 2.836792 0.972068 0
M  V30 10 S 3.296674 4.415286 1.430568 0 CHG=1 VAL=3
M  V30 11 C 1.991473 5.261983 2.304147 0
M  V30 12 O 4.585753 4.186924 2.481108 0 CHG=-1 VAL=1
M  V30 13 N 2.083541 2.656107 -0.205476 0
M  V30 14 C 1.718852 1.349452 -0.326462 0
M  V30 15 C 1.034755 0.570051 -1.351911 0
M  V30 16 C 1.492236 -0.502457 -2.087192 0
M  V30 17 C 0.655576 -1.086135 -3.022533 0
M  V30 18 C -0.619795 -0.597244 -3.213491 0
M  V30 19 F -1.434370 -1.187587 -4.145073 0
M  V30 20 C -1.106578 0.479562 -2.488723 0
M  V30 21 C -0.252176 1.059320 -1.547958 0
M  V30 22 C 3.297159 -1.267215 1.599569 0
M  V30 23 C 3.241128 -2.516468 2.155773 0
M  V30 24 N 2.096029 -3.086073 2.485633 0
M  V30 25 C -2.366205 -3.015186 1.315547 0
M  V30 26 C -3.681252 -3.516303 1.263655 0
M  V30 27 C -4.431806 -3.752698 0.147398 0
M  V30 28 C -3.868637 -3.481611 -1.067904 0
M  V30 29 C -2.597035 -2.991984 -1.128601 0
M  V30 30 C -1.902992 -2.779500 0.039871 0
M  V30 31 H -2.996531 -1.525082 3.661402 0
M  V30 32 H -2.210664 -0.712589 2.322008 0
M  V30 33 H -1.279552 -1.110072 3.880539 0
M  V30 34 H -2.248702 -3.519604 3.305116 0
M  V30 35 H -0.114070 -4.156829 3.156911 0
M  V30 36 H 0.038375 -0.740478 1.586874 0
M  V30 37 H 3.195028 1.653040 2.541493 0
M  V30 38 H 1.095038 5.259778 1.641737 0
M  V30 39 H 1.769102 4.693529 3.222141 0
M  V30 40 H 2.271189 6.298103 2.549823 0
M  V30 41 H 2.503362 -0.782875 -1.839260 0
M  V30 42 H 1.065071 -1.921100 -3.569640 0
M  V30 43 H -2.115814 0.818514 -2.683114 0
M  V30 44 H -0.729740 1.891070 -1.037549 0
M  V30 45 H 4.276745 -0.878880 1.360070 0
M  V30 46 H 4.147335 -3.108953 2.355638 0
M  V30 47 H -4.171612 -3.747813 2.225036 0
M  V30 48 H -5.429793 -4.138178 0.224200 0
M  V30 49 H -4.452700 -3.664329 -1.949191 0
M  V30 50 H -2.156174 -2.779920 -2.091557 0
M  V30 51 H -0.902522 -2.393266 -0.070474 0
M  V30 END ATOM
M  V30 BEGIN BOND
M  V30 1 1 1 2
M  V30 2 1 2 3
M  V30 3 1 3 4
M  V30 4 2 4 5
M  V30 5 1 5 6
M  V30 6 1 6 7
M  V30 7 1 7 8
M  V30 8 1 8 9
M  V30 9 1 9 10
M  V30 10 1 10 11
M  V30 11 1 10 12 CFG=1
M  V30 12 2 9 13
M  V30 13 1 13 14
M  V30 14 1 14 15
M  V30 15 2 15 16
M  V30 16 1 16 17
M  V30 17 2 17 18
M  V30 18 1 18 19
M  V30 19 1 18 20
M  V30 20 2 20 21
M  V30 21 2 6 22
M  V30 22 1 22 23
M  V30 23 2 23 24
M  V30 24 1 2 25
M  V30 25 2 25 26
M  V30 26 1 26 27
M  V30 27 2 27 28
M  V30 28 1 28 29
M  V30 29 2 29 30
M  V30 30 1 24 4
M  V30 31 1 30 25
M  V30 32 2 14 7
M  V30 33 1 21 15
M  V30 34 1 1 31
M  V30 35 1 1 32
M  V30 36 1 1 33
M  V30 37 1 2 34 CFG=1
M  V30 38 1 3 35
M  V30 39 1 5 36
M  V30 40 1 8 37
M  V30 41 1 11 38
M  V30 42 1 11 39
M  V30 43 1 11 40
M  V30 44 1 16 41
M  V30 45 1 17 42
M  V30 46 1 20 43
M  V30 47 1 21 44
M  V30 48 1 22 45
M  V30 49 1 23 46
M  V30 50 1 26 47
M  V30 51 1 27 48
M  V30 52 1 28 49
M  V30 53 1 29 50
M  V30 54 1 30 51
M  V30 END BOND
M  V30 END CTAB
M  END
>  <Dataset>  (184) 
ChEMBL_Kinases

>  <Ligand_Instance>  (184) 
nan

>  <PDB_ID>  (184) 
nan

>  <Standardized_SMILES>  (184) 
C[C@H](Nc1cc(-c2[nH]c([S@@+](C)[O-])nc2-c2ccc(F)cc2)ccn1)c1ccccc1

>  <Name>  (184) 
nan

>  <Pocket>  (184) 
nan

>  <ATP_Site>  (184) 
nan

>  <Peripheral>  (184) 
nan

>  <Num_H_Atoms_ProtBoundConf>  (184) 
nan

>  <Num_Resolved_Atoms>  (184) 
nan

>  <Num_Not_Resolved_Atoms>  (184) 
nan

$$$$
CHEMBL1773521
     RDKit          3D

  0  0  0  0  0  0  0  0  0  0999 V3000
M  V30 BEGIN CTAB
M  V30 COUNTS 51 54 0 0 0
M  V30 BEGIN ATOM
M  V30 1 C -2.575391 -1.714637 0.576551 0
M  V30 2 C -1.995586 -3.095383 0.731259 0 CFG=2
M  V30 3 N -1.249578 -3.224937 1.937752 0
M  V30 4 C -0.191011 -2.413514 2.422892 0
M  V30 5 C 0.314450 -1.277198 1.810786 0
M  V30 6 C 1.323295 -0.492288 2.265077 0
M  V30 7 C 1.788254 0.689115 1.548467 0
M  V30 8 N 3.020846 0.807762 1.058400 0
M  V30 9 C 3.091068 2.003022 0.475362 0
M  V30 10 S 4.345009 2.903139 -0.386717 0 CHG=1 VAL=3
M  V30 11 C 4.257278 2.533447 -2.115131 0
M  V30 12 O 5.847841 2.452224 0.212957 0 CHG=-1 VAL=1
M  V30 13 N 1.882305 2.616573 0.615036 0
M  V30 14 C 1.031014 1.809484 1.292220 0
M  V30 15 C -0.350530 2.110384 1.638766 0
M  V30 16 C -1.238235 2.345494 0.606860 0
M  V30 17 C -2.574638 2.638665 0.888004 0
M  V30 18 C -3.015266 2.694587 2.209366 0
M  V30 19 F -4.311197 2.978725 2.485493 0
M  V30 20 C -2.114553 2.456730 3.235330 0
M  V30 21 C -0.787658 2.165468 2.962205 0
M  V30 22 C 1.933741 -0.811071 3.436970 0
M  V30 23 C 1.456853 -1.936049 4.074017 0
M  V30 24 N 0.454053 -2.674475 3.575209 0
M  V30 25 C -1.418591 -3.673337 -0.482669 0
M  V30 26 C -2.229642 -4.385728 -1.384825 0
M  V30 27 C -1.839572 -4.984290 -2.553972 0
M  V30 28 C -0.514629 -4.886021 -2.895096 0
M  V30 29 C 0.362469 -4.213913 -2.086771 0
M  V30 30 C -0.115548 -3.642369 -0.929736 0
M  V30 31 H -3.675091 -1.733965 0.436326 0
M  V30 32 H -2.185761 -1.182025 -0.312471 0
M  V30 33 H -2.417522 -1.172223 1.535696 0
M  V30 34 H -2.937333 -3.735169 0.922775 0
M  V30 35 H -1.471364 -4.028077 2.610118 0
M  V30 36 H -0.129746 -0.973807 0.871898 0
M  V30 37 H 3.852561 0.202115 1.047769 0
M  V30 38 H 3.592668 1.652929 -2.334405 0
M  V30 39 H 3.872987 3.419890 -2.668446 0
M  V30 40 H 5.254345 2.272355 -2.477614 0
M  V30 41 H -0.894276 2.301614 -0.418174 0
M  V30 42 H -3.261574 2.820655 0.091873 0
M  V30 43 H -2.447273 2.497560 4.277357 0
M  V30 44 H -0.054600 1.973645 3.738345 0
M  V30 45 H 2.731733 -0.293184 3.913045 0
M  V30 46 H 1.814691 -2.358396 5.026707 0
M  V30 47 H -3.293297 -4.477442 -1.132707 0
M  V30 48 H -2.560366 -5.506099 -3.166291 0
M  V30 49 H -0.144172 -5.333591 -3.799859 0
M  V30 50 H 1.409845 -4.127644 -2.342215 0
M  V30 51 H 0.604397 -3.125454 -0.319126 0
M  V30 END ATOM
M  V30 BEGIN BOND
M  V30 1 1 1 2
M  V30 2 1 2 3
M  V30 3 1 3 4
M  V30 4 2 4 5
M  V30 5 1 5 6
M  V30 6 1 6 7
M  V30 7 1 7 8
M  V30 8 1 8 9
M  V30 9 1 9 10
M  V30 10 1 10 11
M  V30 11 1 10 12 CFG=1
M  V30 12 2 9 13
M  V30 13 1 13 14
M  V30 14 1 14 15
M  V30 15 2 15 16
M  V30 16 1 16 17
M  V30 17 2 17 18
M  V30 18 1 18 19
M  V30 19 1 18 20
M  V30 20 2 20 21
M  V30 21 2 6 22
M  V30 22 1 22 23
M  V30 23 2 23 24
M  V30 24 1 2 25
M  V30 25 2 25 26
M  V30 26 1 26 27
M  V30 27 2 27 28
M  V30 28 1 28 29
M  V30 29 2 29 30
M  V30 30 1 24 4
M  V30 31 1 30 25
M  V30 32 2 14 7
M  V30 33 1 21 15
M  V30 34 1 1 31
M  V30 35 1 1 32
M  V30 36 1 1 33
M  V30 37 1 2 34 CFG=1
M  V30 38 1 3 35
M  V30 39 1 5 36
M  V30 40 1 8 37
M  V30 41 1 11 38
M  V30 42 1 11 39
M  V30 43 1 11 40
M  V30 44 1 16 41
M  V30 45 1 17 42
M  V30 46 1 20 43
M  V30 47 1 21 44
M  V30 48 1 22 45
M  V30 49 1 23 46
M  V30 50 1 26 47
M  V30 51 1 27 48
M  V30 52 1 28 49
M  V30 53 1 29 50
M  V30 54 1 30 51
M  V30 END BOND
M  V30 END CTAB
M  END
>  <Dataset>  (185) 
ChEMBL_Kinases

>  <Ligand_Instance>  (185) 
nan

>  <PDB_ID>  (185) 
nan

>  <Standardized_SMILES>  (185) 
C[C@H](Nc1cc(-c2[nH]c([S@+](C)[O-])nc2-c2ccc(F)cc2)ccn1)c1ccccc1

>  <Name>  (185) 
nan

>  <Pocket>  (185) 
nan

>  <ATP_Site>  (185) 
nan

>  <Peripheral>  (185) 
nan

>  <Num_H_Atoms_ProtBoundConf>  (185) 
nan

>  <Num_Resolved_Atoms>  (185) 
nan

>  <Num_Not_Resolved_Atoms>  (185) 
nan

$$$$
CHEMBL1773599
     RDKit          3D

  0  0  0  0  0  0  0  0  0  0999 V3000
M  V30 BEGIN CTAB
M  V30 COUNTS 49 52 0 0 0
M  V30 BEGIN ATOM
M  V30 1 C 0.104626 -1.160784 -5.168623 0
M  V30 2 O 0.680823 -1.665482 -3.991337 0
M  V30 3 C 1.595198 -0.902032 -3.303629 0
M  V30 4 C 2.100033 -1.488979 -2.162990 0
M  V30 5 C 3.025647 -0.868251 -1.351949 0
M  V30 6 C 3.500826 0.405756 -1.656395 0
M  V30 7 S 4.666145 1.331233 -0.742224 0
M  V30 8 O 5.612356 0.418984 0.006832 0
M  V30 9 O 5.423170 2.182155 -1.718728 0
M  V30 10 N 3.876378 2.368036 0.373937 0
M  V30 11 C 3.019704 2.145481 1.480950 0
M  V30 12 C 3.224610 2.779879 2.712648 0
M  V30 13 N 2.446628 2.589260 3.780871 0
M  V30 14 C 1.395686 1.753840 3.726937 0
M  V30 15 C 1.099982 1.078309 2.570438 0
M  V30 16 C -0.027495 0.165102 2.468327 0
M  V30 17 C -0.782795 -0.101788 1.345610 0
M  V30 18 C -1.832252 -0.958400 1.270824 0
M  V30 19 C -2.233254 -1.660723 2.388810 0
M  V30 20 N -3.204435 -2.538031 2.577371 0
M  V30 21 C -3.525661 -3.111595 3.506005 0
M  V30 22 N -4.650193 -4.081046 3.581956 0
M  V30 23 C -5.980361 -3.695537 3.912234 0
M  V30 24 C -7.013064 -4.760037 3.954600 0
M  V30 25 O -6.368167 -2.527248 4.174268 0
M  V30 26 S -2.250176 -2.460689 4.790655 0
M  V30 27 C -1.481930 -1.414372 3.564286 0
M  V30 28 C -0.398893 -0.516826 3.600096 0
M  V30 29 C 1.928463 1.304485 1.492803 0
M  V30 30 C 2.974046 0.968133 -2.808847 0
M  V30 31 C 2.052158 0.359194 -3.623655 0
M  V30 32 H -0.172338 -0.092325 -5.040273 0
M  V30 33 H -0.760813 -1.781878 -5.476330 0
M  V30 34 H 0.897689 -1.204411 -5.960483 0
M  V30 35 H 1.811494 -2.482821 -1.812020 0
M  V30 36 H 3.447393 -1.299069 -0.444036 0
M  V30 37 H 3.994878 3.421062 0.294646 0
M  V30 38 H 4.059658 3.475277 2.837262 0
M  V30 39 H 0.790752 1.626821 4.613429 0
M  V30 40 H -0.471452 0.454036 0.445378 0
M  V30 41 H -2.327516 -1.055694 0.297596 0
M  V30 42 H -4.376305 -5.052969 3.373723 0
M  V30 43 H -6.573742 -5.785920 3.915075 0
M  V30 44 H -7.738449 -4.656423 3.100939 0
M  V30 45 H -7.608708 -4.680495 4.864973 0
M  V30 46 H 0.040659 -0.462311 4.562857 0
M  V30 47 H 1.685056 0.770413 0.586287 0
M  V30 48 H 3.275689 1.971261 -3.148819 0
M  V30 49 H 1.641148 0.789964 -4.516686 0
M  V30 END ATOM
M  V30 BEGIN BOND
M  V30 1 1 1 2
M  V30 2 1 2 3
M  V30 3 2 3 4
M  V30 4 1 4 5
M  V30 5 2 5 6
M  V30 6 1 6 7
M  V30 7 2 7 8
M  V30 8 2 7 9
M  V30 9 1 7 10
M  V30 10 1 10 11
M  V30 11 2 11 12
M  V30 12 1 12 13
M  V30 13 2 13 14
M  V30 14 1 14 15
M  V30 15 1 15 16
M  V30 16 2 16 17
M  V30 17 1 17 18
M  V30 18 2 18 19
M  V30 19 1 19 20
M  V30 20 2 20 21
M  V30 21 1 21 22
M  V30 22 1 22 23
M  V30 23 1 23 24
M  V30 24 2 23 25
M  V30 25 1 21 26
M  V30 26 1 26 27
M  V30 27 2 27 28
M  V30 28 2 15 29
M  V30 29 1 6 30
M  V30 30 2 30 31
M  V30 31 1 31 3
M  V30 32 1 29 11
M  V30 33 1 28 16
M  V30 34 1 27 19
M  V30 35 1 1 32
M  V30 36 1 1 33
M  V30 37 1 1 34
M  V30 38 1 4 35
M  V30 39 1 5 36
M  V30 40 1 10 37
M  V30 41 1 12 38
M  V30 42 1 14 39
M  V30 43 1 17 40
M  V30 44 1 18 41
M  V30 45 1 22 42
M  V30 46 1 24 43
M  V30 47 1 24 44
M  V30 48 1 24 45
M  V30 49 1 28 46
M  V30 50 1 29 47
M  V30 51 1 30 48
M  V30 52 1 31 49
M  V30 END BOND
M  V30 END CTAB
M  END
>  <Dataset>  (186) 
ChEMBL_Kinases

>  <Ligand_Instance>  (186) 
nan

>  <PDB_ID>  (186) 
nan

>  <Standardized_SMILES>  (186) 
COc1ccc(S(=O)(=O)Nc2cncc(-c3ccc4nc(NC(C)=O)sc4c3)c2)cc1

>  <Name>  (186) 
nan

>  <Pocket>  (186) 
nan

>  <ATP_Site>  (186) 
nan

>  <Peripheral>  (186) 
nan

>  <Num_H_Atoms_ProtBoundConf>  (186) 
nan

>  <Num_Resolved_Atoms>  (186) 
nan

>  <Num_Not_Resolved_Atoms>  (186) 
nan

$$$$
CHEMBL1773572
     RDKit          3D

  0  0  0  0  0  0  0  0  0  0999 V3000
M  V30 BEGIN CTAB
M  V30 COUNTS 50 53 0 0 0
M  V30 BEGIN ATOM
M  V30 1 C 5.338882 -7.305351 3.304449 0
M  V30 2 C 4.701774 -6.000447 3.014288 0
M  V30 3 O 4.391276 -5.156996 3.901509 0
M  V30 4 N 4.465497 -5.769624 1.651708 0
M  V30 5 C 3.824058 -4.457154 1.354568 0
M  V30 6 N 4.332898 -3.477788 1.142203 0
M  V30 7 C 3.884830 -2.270003 0.870159 0
M  V30 8 C 4.542794 -1.083250 0.613264 0
M  V30 9 C 3.823793 0.062356 0.352450 0
M  V30 10 C 2.449632 0.146419 0.320836 0
M  V30 11 C 1.663645 1.340165 0.048792 0
M  V30 12 C 2.238412 2.558564 -0.215811 0
M  V30 13 C 1.510782 3.707274 -0.477220 0
M  V30 14 N 0.168657 3.607795 -0.467802 0
M  V30 15 C -0.425942 2.405818 -0.207023 0
M  V30 16 N -1.844011 2.293040 -0.194940 0
M  V30 17 C -2.511760 1.044122 0.075503 0
M  V30 18 C -2.168040 0.479281 1.435623 0
M  V30 19 C -2.155460 0.043311 -1.020729 0
M  V30 20 C -3.983745 1.228533 -0.003253 0
M  V30 21 C -4.678015 2.359594 0.362458 0
M  V30 22 C -6.047938 2.458134 0.260482 0
M  V30 23 C -6.801024 1.415189 -0.219085 0
M  V30 24 C -6.154650 0.260728 -0.598697 0
M  V30 25 C -4.786639 0.189552 -0.486379 0
M  V30 26 N 0.318155 1.313822 0.041952 0
M  V30 27 C 1.777671 -1.029433 0.575201 0
M  V30 28 C 2.527074 -2.185134 0.838518 0
M  V30 29 S 1.993915 -3.873937 1.207986 0
M  V30 30 H 4.571049 -8.107879 3.380658 0
M  V30 31 H 6.084789 -7.613693 2.551436 0
M  V30 32 H 5.836859 -7.292788 4.317703 0
M  V30 33 H 4.685661 -6.399055 0.866156 0
M  V30 34 H 5.640833 -0.983516 0.601541 0
M  V30 35 H 4.371153 0.996815 0.150454 0
M  V30 36 H 3.297860 2.679639 -0.232700 0
M  V30 37 H 1.955003 4.670449 -0.686520 0
M  V30 38 H -2.414780 3.158640 -0.392614 0
M  V30 39 H -2.994493 0.720194 2.166679 0
M  V30 40 H -2.035371 -0.626228 1.362957 0
M  V30 41 H -1.247963 0.956914 1.794356 0
M  V30 42 H -2.880069 0.134081 -1.870298 0
M  V30 43 H -1.166498 0.227026 -1.461261 0
M  V30 44 H -2.254628 -0.994268 -0.665093 0
M  V30 45 H -4.100263 3.189942 0.743029 0
M  V30 46 H -6.570099 3.357538 0.554265 0
M  V30 47 H -7.867735 1.476971 -0.304212 0
M  V30 48 H -6.755157 -0.547871 -0.972226 0
M  V30 49 H -4.371048 -0.770573 -0.814268 0
M  V30 50 H 0.719895 -1.178356 0.598208 0
M  V30 END ATOM
M  V30 BEGIN BOND
M  V30 1 1 1 2
M  V30 2 2 2 3
M  V30 3 1 2 4
M  V30 4 1 4 5
M  V30 5 2 5 6
M  V30 6 1 6 7
M  V30 7 2 7 8
M  V30 8 1 8 9
M  V30 9 2 9 10
M  V30 10 1 10 11
M  V30 11 2 11 12
M  V30 12 1 12 13
M  V30 13 2 13 14
M  V30 14 1 14 15
M  V30 15 1 15 16
M  V30 16 1 16 17
M  V30 17 1 17 18
M  V30 18 1 17 19
M  V30 19 1 17 20
M  V30 20 2 20 21
M  V30 21 1 21 22
M  V30 22 2 22 23
M  V30 23 1 23 24
M  V30 24 2 24 25
M  V30 25 2 15 26
M  V30 26 1 10 27
M  V30 27 2 27 28
M  V30 28 1 28 29
M  V30 29 1 29 5
M  V30 30 1 28 7
M  V30 31 1 26 11
M  V30 32 1 25 20
M  V30 33 1 1 30
M  V30 34 1 1 31
M  V30 35 1 1 32
M  V30 36 1 4 33
M  V30 37 1 8 34
M  V30 38 1 9 35
M  V30 39 1 12 36
M  V30 40 1 13 37
M  V30 41 1 16 38
M  V30 42 1 18 39
M  V30 43 1 18 40
M  V30 44 1 18 41
M  V30 45 1 19 42
M  V30 46 1 19 43
M  V30 47 1 19 44
M  V30 48 1 21 45
M  V30 49 1 22 46
M  V30 50 1 23 47
M  V30 51 1 24 48
M  V30 52 1 25 49
M  V30 53 1 27 50
M  V30 END BOND
M  V30 END CTAB
M  END
>  <Dataset>  (187) 
ChEMBL_Kinases

>  <Ligand_Instance>  (187) 
nan

>  <PDB_ID>  (187) 
nan

>  <Standardized_SMILES>  (187) 
CC(=O)Nc1nc2ccc(-c3ccnc(NC(C)(C)c4ccccc4)n3)cc2s1

>  <Name>  (187) 
nan

>  <Pocket>  (187) 
nan

>  <ATP_Site>  (187) 
nan

>  <Peripheral>  (187) 
nan

>  <Num_H_Atoms_ProtBoundConf>  (187) 
nan

>  <Num_Resolved_Atoms>  (187) 
nan

>  <Num_Not_Resolved_Atoms>  (187) 
nan

$$$$
CHEMBL1773574
     RDKit          3D

  0  0  0  0  0  0  0  0  0  0999 V3000
M  V30 BEGIN CTAB
M  V30 COUNTS 48 51 0 0 0
M  V30 BEGIN ATOM
M  V30 1 C 0.332907 -1.219276 -4.724386 0
M  V30 2 O 1.599088 -0.629381 -4.680713 0
M  V30 3 C 2.274203 -0.573589 -3.474623 0
M  V30 4 C 3.522803 -0.007682 -3.359347 0
M  V30 5 C 4.165933 0.028462 -2.132070 0
M  V30 6 C 3.596785 -0.493137 -0.978751 0
M  V30 7 S 4.618642 -0.325335 0.432054 0
M  V30 8 O 4.196610 -1.430712 1.385087 0
M  V30 9 O 6.049480 -0.519001 0.053300 0
M  V30 10 N 4.438090 1.195395 1.210693 0
M  V30 11 C 3.270331 1.736525 1.808177 0
M  V30 12 N 3.327505 2.970126 2.371214 0
M  V30 13 C 2.280587 3.556686 2.962436 0
M  V30 14 C 1.075770 2.895745 3.014581 0
M  V30 15 C 0.996064 1.642871 2.449498 0
M  V30 16 C -0.282631 0.977722 2.531925 0
M  V30 17 C -1.420360 1.459295 3.097672 0
M  V30 18 C -2.621660 0.812251 3.170318 0
M  V30 19 C -2.765155 -0.458263 2.637154 0
M  V30 20 N -3.792060 -1.294922 2.570481 0
M  V30 21 C -3.833068 -2.359841 2.099444 0
M  V30 22 N -5.074904 -3.191243 2.100690 0
M  V30 23 C -5.319666 -4.067298 3.183408 0
M  V30 24 C -6.556232 -4.889923 3.176669 0
M  V30 25 O -4.522692 -4.171568 4.152075 0
M  V30 26 S -2.099498 -2.624333 1.450574 0
M  V30 27 C -1.593618 -0.919244 2.070494 0
M  V30 28 C -0.349017 -0.280415 1.980962 0
M  V30 29 N 2.093598 1.122832 1.874069 0
M  V30 30 C 2.352524 -1.054230 -1.107747 0
M  V30 31 C 1.728132 -1.085418 -2.316606 0
M  V30 32 H -0.120557 -1.116978 -5.721596 0
M  V30 33 H 0.465820 -2.313309 -4.514351 0
M  V30 34 H -0.353898 -0.780104 -3.968986 0
M  V30 35 H 3.951868 0.394592 -4.270164 0
M  V30 36 H 5.138804 0.500709 -2.185439 0
M  V30 37 H 5.304594 1.809266 1.251535 0
M  V30 38 H 2.466067 4.548140 3.372808 0
M  V30 39 H 0.311098 3.468651 3.514444 0
M  V30 40 H -1.398245 2.466519 3.548090 0
M  V30 41 H -3.483295 1.299099 3.654253 0
M  V30 42 H -5.718826 -3.094929 1.299698 0
M  V30 43 H -7.309002 -4.515007 2.463650 0
M  V30 44 H -6.336553 -5.945623 2.853765 0
M  V30 45 H -7.013274 -4.859294 4.176463 0
M  V30 46 H 0.408860 -0.847905 1.494368 0
M  V30 47 H 1.985842 -1.437912 -0.169012 0
M  V30 48 H 0.756227 -1.546228 -2.313534 0
M  V30 END ATOM
M  V30 BEGIN BOND
M  V30 1 1 1 2
M  V30 2 1 2 3
M  V30 3 2 3 4
M  V30 4 1 4 5
M  V30 5 2 5 6
M  V30 6 1 6 7
M  V30 7 2 7 8
M  V30 8 2 7 9
M  V30 9 1 7 10
M  V30 10 1 10 11
M  V30 11 2 11 12
M  V30 12 1 12 13
M  V30 13 2 13 14
M  V30 14 1 14 15
M  V30 15 1 15 16
M  V30 16 2 16 17
M  V30 17 1 17 18
M  V30 18 2 18 19
M  V30 19 1 19 20
M  V30 20 2 20 21
M  V30 21 1 21 22
M  V30 22 1 22 23
M  V30 23 1 23 24
M  V30 24 2 23 25
M  V30 25 1 21 26
M  V30 26 1 26 27
M  V30 27 2 27 28
M  V30 28 2 15 29
M  V30 29 1 6 30
M  V30 30 2 30 31
M  V30 31 1 31 3
M  V30 32 1 29 11
M  V30 33 1 28 16
M  V30 34 1 27 19
M  V30 35 1 1 32
M  V30 36 1 1 33
M  V30 37 1 1 34
M  V30 38 1 4 35
M  V30 39 1 5 36
M  V30 40 1 10 37
M  V30 41 1 13 38
M  V30 42 1 14 39
M  V30 43 1 17 40
M  V30 44 1 18 41
M  V30 45 1 22 42
M  V30 46 1 24 43
M  V30 47 1 24 44
M  V30 48 1 24 45
M  V30 49 1 28 46
M  V30 50 1 30 47
M  V30 51 1 31 48
M  V30 END BOND
M  V30 END CTAB
M  END
>  <Dataset>  (188) 
ChEMBL_Kinases

>  <Ligand_Instance>  (188) 
nan

>  <PDB_ID>  (188) 
nan

>  <Standardized_SMILES>  (188) 
COc1ccc(S(=O)(=O)Nc2nccc(-c3ccc4nc(NC(C)=O)sc4c3)n2)cc1

>  <Name>  (188) 
nan

>  <Pocket>  (188) 
nan

>  <ATP_Site>  (188) 
nan

>  <Peripheral>  (188) 
nan

>  <Num_H_Atoms_ProtBoundConf>  (188) 
nan

>  <Num_Resolved_Atoms>  (188) 
nan

>  <Num_Not_Resolved_Atoms>  (188) 
nan

$$$$
CHEMBL1773575
     RDKit          3D

  0  0  0  0  0  0  0  0  0  0999 V3000
M  V30 BEGIN CTAB
M  V30 COUNTS 51 54 0 0 0
M  V30 BEGIN ATOM
M  V30 1 C 7.847570 0.736240 5.524533 0
M  V30 2 O 7.907033 0.967172 4.124360 0
M  V30 3 C 6.821641 0.576668 3.360899 0
M  V30 4 C 6.775557 0.753645 1.994923 0
M  V30 5 C 5.693602 0.367202 1.215041 0
M  V30 6 C 4.598060 -0.224577 1.806489 0
M  V30 7 S 3.151182 -0.775084 0.987450 0
M  V30 8 O 3.536822 -1.117517 -0.430118 0
M  V30 9 O 2.548231 -1.938137 1.716749 0
M  V30 10 N 1.991454 0.527736 0.932062 0
M  V30 11 C 2.382100 1.740087 0.209664 0
M  V30 12 C 0.729105 0.390502 1.570505 0
M  V30 13 N 0.637664 0.787557 2.866380 0
M  V30 14 C -0.557686 0.670700 3.512821 0
M  V30 15 C -1.603090 0.144413 2.776355 0
M  V30 16 C -1.510885 -0.258420 1.462222 0
M  V30 17 C -2.644850 -0.805827 0.734544 0
M  V30 18 C -3.924147 -1.006899 1.192482 0
M  V30 19 C -4.952477 -1.525054 0.464902 0
M  V30 20 C -4.732400 -1.897800 -0.865288 0
M  V30 21 N -5.625992 -2.415383 -1.704740 0
M  V30 22 C -5.468286 -2.731017 -2.807561 0
M  V30 23 N -6.439645 -3.297961 -3.734310 0
M  V30 24 C -7.246248 -2.490109 -4.575321 0
M  V30 25 C -8.199954 -3.217730 -5.475492 0
M  V30 26 O -7.097485 -1.246158 -4.497737 0
M  V30 27 S -3.608252 -2.283525 -2.996010 0
M  V30 28 C -3.473841 -1.711967 -1.352642 0
M  V30 29 C -2.457050 -1.184490 -0.586928 0
M  V30 30 N -0.306681 -0.115575 0.888144 0
M  V30 31 C 4.616857 -0.413558 3.168650 0
M  V30 32 C 5.699897 -0.022569 3.920561 0
M  V30 33 H 8.819095 1.003412 6.013032 0
M  V30 34 H 6.988192 1.298850 5.934269 0
M  V30 35 H 7.639722 -0.332674 5.745411 0
M  V30 36 H 7.629612 1.220404 1.496491 0
M  V30 37 H 5.635969 0.496003 0.144646 0
M  V30 38 H 3.145648 1.511595 -0.552730 0
M  V30 39 H 2.855105 2.398613 0.963790 0
M  V30 40 H 1.511629 2.204101 -0.299737 0
M  V30 41 H -0.664018 0.974556 4.535799 0
M  V30 42 H -2.533333 0.067220 3.322145 0
M  V30 43 H -4.076869 -0.706718 2.242916 0
M  V30 44 H -5.905516 -1.613307 0.994968 0
M  V30 45 H -6.448317 -4.354718 -3.684096 0
M  V30 46 H -7.720023 -4.051729 -6.017055 0
M  V30 47 H -9.069493 -3.604555 -4.909153 0
M  V30 48 H -8.598627 -2.457477 -6.186728 0
M  V30 49 H -1.523297 -1.103841 -1.124191 0
M  V30 50 H 3.778462 -0.878781 3.707167 0
M  V30 51 H 5.695956 -0.180228 4.994129 0
M  V30 END ATOM
M  V30 BEGIN BOND
M  V30 1 1 1 2
M  V30 2 1 2 3
M  V30 3 2 3 4
M  V30 4 1 4 5
M  V30 5 2 5 6
M  V30 6 1 6 7
M  V30 7 2 7 8
M  V30 8 2 7 9
M  V30 9 1 7 10
M  V30 10 1 10 11
M  V30 11 1 10 12
M  V30 12 2 12 13
M  V30 13 1 13 14
M  V30 14 2 14 15
M  V30 15 1 15 16
M  V30 16 1 16 17
M  V30 17 2 17 18
M  V30 18 1 18 19
M  V30 19 2 19 20
M  V30 20 1 20 21
M  V30 21 2 21 22
M  V30 22 1 22 23
M  V30 23 1 23 24
M  V30 24 1 24 25
M  V30 25 2 24 26
M  V30 26 1 22 27
M  V30 27 1 27 28
M  V30 28 2 28 29
M  V30 29 2 16 30
M  V30 30 1 6 31
M  V30 31 2 31 32
M  V30 32 1 32 3
M  V30 33 1 30 12
M  V30 34 1 29 17
M  V30 35 1 28 20
M  V30 36 1 1 33
M  V30 37 1 1 34
M  V30 38 1 1 35
M  V30 39 1 4 36
M  V30 40 1 5 37
M  V30 41 1 11 38
M  V30 42 1 11 39
M  V30 43 1 11 40
M  V30 44 1 14 41
M  V30 45 1 15 42
M  V30 46 1 18 43
M  V30 47 1 19 44
M  V30 48 1 23 45
M  V30 49 1 25 46
M  V30 50 1 25 47
M  V30 51 1 25 48
M  V30 52 1 29 49
M  V30 53 1 31 50
M  V30 54 1 32 51
M  V30 END BOND
M  V30 END CTAB
M  END
>  <Dataset>  (189) 
ChEMBL_Kinases

>  <Ligand_Instance>  (189) 
nan

>  <PDB_ID>  (189) 
nan

>  <Standardized_SMILES>  (189) 
COc1ccc(S(=O)(=O)N(C)c2nccc(-c3ccc4nc(NC(C)=O)sc4c3)n2)cc1

>  <Name>  (189) 
nan

>  <Pocket>  (189) 
nan

>  <ATP_Site>  (189) 
nan

>  <Peripheral>  (189) 
nan

>  <Num_H_Atoms_ProtBoundConf>  (189) 
nan

>  <Num_Resolved_Atoms>  (189) 
nan

>  <Num_Not_Resolved_Atoms>  (189) 
nan

$$$$
CHEMBL1773576
     RDKit          3D

  0  0  0  0  0  0  0  0  0  0999 V3000
M  V30 BEGIN CTAB
M  V30 COUNTS 54 57 0 0 0
M  V30 BEGIN ATOM
M  V30 1 C -0.083736 -3.445511 2.938161 0
M  V30 2 C 1.117507 -4.322203 2.667022 0
M  V30 3 N 1.674490 -4.049179 1.338449 0
M  V30 4 C 2.691004 -3.032056 1.266154 0
M  V30 5 N 4.012422 -3.248514 1.395397 0
M  V30 6 C 4.866672 -2.210422 1.307799 0
M  V30 7 C 4.322106 -0.962260 1.086106 0
M  V30 8 C 2.973696 -0.707292 0.949343 0
M  V30 9 C 2.427135 0.620786 0.716136 0
M  V30 10 C 3.140428 1.793484 0.598234 0
M  V30 11 C 2.584056 3.033958 0.377139 0
M  V30 12 C 1.201986 3.161699 0.256966 0
M  V30 13 N 0.460418 4.221373 0.048556 0
M  V30 14 C -0.647353 4.377715 -0.055511 0
M  V30 15 N -1.434523 5.628310 -0.295653 0
M  V30 16 C -1.798159 6.249718 0.906330 0
M  V30 17 C -2.576116 7.493413 0.901950 0
M  V30 18 O -1.396757 5.642753 1.950949 0
M  V30 19 S -1.189653 2.545421 0.170856 0
M  V30 20 C 0.507255 2.023965 0.371216 0
M  V30 21 C 1.057730 0.736382 0.598726 0
M  V30 22 N 2.191179 -1.801624 1.050461 0
M  V30 23 S 1.088210 -4.943901 -0.016989 0
M  V30 24 O 1.859144 -4.474696 -1.224133 0
M  V30 25 O 1.401178 -6.401914 0.151143 0
M  V30 26 C -0.621262 -4.687595 -0.292352 0
M  V30 27 C -1.050132 -3.663664 -1.117296 0
M  V30 28 C -2.385805 -3.386126 -1.393130 0
M  V30 29 C -3.355753 -4.182273 -0.807527 0
M  V30 30 O -4.682537 -3.911003 -1.078015 0
M  V30 31 C -4.972193 -2.824352 -1.946229 0
M  V30 32 C -2.943170 -5.203067 0.014269 0
M  V30 33 C -1.601530 -5.473854 0.285036 0
M  V30 34 H -0.731580 -4.009041 3.660847 0
M  V30 35 H 0.147511 -2.479386 3.390034 0
M  V30 36 H -0.706891 -3.315702 2.013434 0
M  V30 37 H 0.841916 -5.390755 2.775964 0
M  V30 38 H 1.878746 -4.124386 3.458572 0
M  V30 39 H 5.930248 -2.369284 1.409583 0
M  V30 40 H 5.026353 -0.156979 1.021318 0
M  V30 41 H 4.223318 1.685645 0.693686 0
M  V30 42 H 3.293748 3.859417 0.309323 0
M  V30 43 H -1.666402 5.967200 -1.231133 0
M  V30 44 H -2.946739 7.705519 1.947810 0
M  V30 45 H -3.503109 7.464560 0.294489 0
M  V30 46 H -1.940342 8.364396 0.649730 0
M  V30 47 H 0.327896 -0.046908 0.658788 0
M  V30 48 H -0.317985 -3.006558 -1.603574 0
M  V30 49 H -2.642562 -2.568210 -2.048380 0
M  V30 50 H -4.484328 -2.970190 -2.930909 0
M  V30 51 H -4.588129 -1.894497 -1.482835 0
M  V30 52 H -6.063616 -2.714206 -2.114292 0
M  V30 53 H -3.719594 -5.823305 0.469522 0
M  V30 54 H -1.305440 -6.298255 0.947160 0
M  V30 END ATOM
M  V30 BEGIN BOND
M  V30 1 1 1 2
M  V30 2 1 2 3
M  V30 3 1 3 4
M  V30 4 2 4 5
M  V30 5 1 5 6
M  V30 6 2 6 7
M  V30 7 1 7 8
M  V30 8 1 8 9
M  V30 9 2 9 10
M  V30 10 1 10 11
M  V30 11 2 11 12
M  V30 12 1 12 13
M  V30 13 2 13 14
M  V30 14 1 14 15
M  V30 15 1 15 16
M  V30 16 1 16 17
M  V30 17 2 16 18
M  V30 18 1 14 19
M  V30 19 1 19 20
M  V30 20 2 20 21
M  V30 21 2 8 22
M  V30 22 1 3 23
M  V30 23 2 23 24
M  V30 24 2 23 25
M  V30 25 1 23 26
M  V30 26 2 26 27
M  V30 27 1 27 28
M  V30 28 2 28 29
M  V30 29 1 29 30
M  V30 30 1 30 31
M  V30 31 1 29 32
M  V30 32 2 32 33
M  V30 33 1 22 4
M  V30 34 1 33 26
M  V30 35 1 21 9
M  V30 36 1 20 12
M  V30 37 1 1 34
M  V30 38 1 1 35
M  V30 39 1 1 36
M  V30 40 1 2 37
M  V30 41 1 2 38
M  V30 42 1 6 39
M  V30 43 1 7 40
M  V30 44 1 10 41
M  V30 45 1 11 42
M  V30 46 1 15 43
M  V30 47 1 17 44
M  V30 48 1 17 45
M  V30 49 1 17 46
M  V30 50 1 21 47
M  V30 51 1 27 48
M  V30 52 1 28 49
M  V30 53 1 31 50
M  V30 54 1 31 51
M  V30 55 1 31 52
M  V30 56 1 32 53
M  V30 57 1 33 54
M  V30 END BOND
M  V30 END CTAB
M  END
>  <Dataset>  (190) 
ChEMBL_Kinases

>  <Ligand_Instance>  (190) 
nan

>  <PDB_ID>  (190) 
nan

>  <Standardized_SMILES>  (190) 
CCN(c1nccc(-c2ccc3nc(NC(C)=O)sc3c2)n1)S(=O)(=O)c1ccc(OC)cc1

>  <Name>  (190) 
nan

>  <Pocket>  (190) 
nan

>  <ATP_Site>  (190) 
nan

>  <Peripheral>  (190) 
nan

>  <Num_H_Atoms_ProtBoundConf>  (190) 
nan

>  <Num_Resolved_Atoms>  (190) 
nan

>  <Num_Not_Resolved_Atoms>  (190) 
nan

$$$$
CHEMBL1773577
     RDKit          3D

  0  0  0  0  0  0  0  0  0  0999 V3000
M  V30 BEGIN CTAB
M  V30 COUNTS 44 47 0 0 0
M  V30 BEGIN ATOM
M  V30 1 C 3.302593 -6.747271 -2.433728 0
M  V30 2 C 2.991149 -5.474877 -1.733093 0
M  V30 3 O 3.123775 -5.438167 -0.482565 0
M  V30 4 N 2.560173 -4.367855 -2.513664 0
M  V30 5 C 2.249864 -3.122907 -1.876523 0
M  V30 6 N 3.056917 -2.159801 -1.648841 0
M  V30 7 C 2.624454 -1.067769 -1.049295 0
M  V30 8 C 3.431959 0.032661 -0.760083 0
M  V30 9 C 2.905719 1.120287 -0.138731 0
M  V30 10 C 1.594927 1.261375 0.256649 0
M  V30 11 C 0.988189 2.402346 0.922446 0
M  V30 12 C 1.707927 3.529670 1.246200 0
M  V30 13 C 1.178433 4.631986 1.875165 0
M  V30 14 N -0.122846 4.603425 2.191965 0
M  V30 15 C -0.860004 3.509337 1.887539 0
M  V30 16 N -2.262545 3.412446 2.196529 0
M  V30 17 S -3.201731 2.040394 1.820831 0
M  V30 18 O -3.280413 1.809894 0.338946 0
M  V30 19 O -4.613094 2.292045 2.279878 0
M  V30 20 C -2.670245 0.583191 2.609525 0
M  V30 21 C -1.632273 0.370443 3.482387 0
M  V30 22 C -1.393390 -0.878038 3.989558 0
M  V30 23 C -2.166131 -1.975344 3.660449 0
M  V30 24 C -3.202824 -1.774004 2.791593 0
M  V30 25 C -3.469272 -0.511394 2.259039 0
M  V30 26 F -4.542896 -0.499945 1.409555 0
M  V30 27 N -0.308190 2.451528 1.272899 0
M  V30 28 C 0.764071 0.197911 -0.010066 0
M  V30 29 C 1.239366 -0.897671 -0.622081 0
M  V30 30 S 0.566682 -2.509248 -1.174772 0
M  V30 31 H 2.829269 -6.760039 -3.426283 0
M  V30 32 H 4.385186 -6.980866 -2.461463 0
M  V30 33 H 2.824049 -7.587675 -1.856577 0
M  V30 34 H 2.476847 -4.490013 -3.564705 0
M  V30 35 H 4.504085 0.082434 -1.009357 0
M  V30 36 H 3.553654 1.983292 0.084369 0
M  V30 37 H 2.759695 3.596665 1.009862 0
M  V30 38 H 1.752405 5.519748 2.128306 0
M  V30 39 H -2.678462 4.263551 2.680308 0
M  V30 40 H -1.084980 1.278249 3.683770 0
M  V30 41 H -0.544602 -0.942828 4.675393 0
M  V30 42 H -1.865618 -2.893055 4.131744 0
M  V30 43 H -3.793754 -2.651828 2.549827 0
M  V30 44 H -0.280230 0.086899 0.204681 0
M  V30 END ATOM
M  V30 BEGIN BOND
M  V30 1 1 1 2
M  V30 2 2 2 3
M  V30 3 1 2 4
M  V30 4 1 4 5
M  V30 5 2 5 6
M  V30 6 1 6 7
M  V30 7 2 7 8
M  V30 8 1 8 9
M  V30 9 2 9 10
M  V30 10 1 10 11
M  V30 11 2 11 12
M  V30 12 1 12 13
M  V30 13 2 13 14
M  V30 14 1 14 15
M  V30 15 1 15 16
M  V30 16 1 16 17
M  V30 17 2 17 18
M  V30 18 2 17 19
M  V30 19 1 17 20
M  V30 20 2 20 21
M  V30 21 1 21 22
M  V30 22 2 22 23
M  V30 23 1 23 24
M  V30 24 2 24 25
M  V30 25 1 25 26
M  V30 26 2 15 27
M  V30 27 1 10 28
M  V30 28 2 28 29
M  V30 29 1 29 30
M  V30 30 1 30 5
M  V30 31 1 29 7
M  V30 32 1 27 11
M  V30 33 1 25 20
M  V30 34 1 1 31
M  V30 35 1 1 32
M  V30 36 1 1 33
M  V30 37 1 4 34
M  V30 38 1 8 35
M  V30 39 1 9 36
M  V30 40 1 12 37
M  V30 41 1 13 38
M  V30 42 1 16 39
M  V30 43 1 21 40
M  V30 44 1 22 41
M  V30 45 1 23 42
M  V30 46 1 24 43
M  V30 47 1 28 44
M  V30 END BOND
M  V30 END CTAB
M  END
>  <Dataset>  (191) 
ChEMBL_Kinases

>  <Ligand_Instance>  (191) 
nan

>  <PDB_ID>  (191) 
nan

>  <Standardized_SMILES>  (191) 
CC(=O)Nc1nc2ccc(-c3ccnc(NS(=O)(=O)c4ccccc4F)n3)cc2s1

>  <Name>  (191) 
nan

>  <Pocket>  (191) 
nan

>  <ATP_Site>  (191) 
nan

>  <Peripheral>  (191) 
nan

>  <Num_H_Atoms_ProtBoundConf>  (191) 
nan

>  <Num_Resolved_Atoms>  (191) 
nan

>  <Num_Not_Resolved_Atoms>  (191) 
nan

$$$$
CHEMBL1773578
     RDKit          3D

  0  0  0  0  0  0  0  0  0  0999 V3000
M  V30 BEGIN CTAB
M  V30 COUNTS 47 50 0 0 0
M  V30 BEGIN ATOM
M  V30 1 C 1.229683 -3.918836 8.893778 0
M  V30 2 C 1.087591 -2.973402 7.768531 0
M  V30 3 O 0.068268 -2.260298 7.553509 0
M  V30 4 N 2.197462 -2.896441 6.897808 0
M  V30 5 C 2.068813 -1.944769 5.755142 0
M  V30 6 N 1.614477 -2.292682 4.700319 0
M  V30 7 C 1.463265 -1.519013 3.634419 0
M  V30 8 C 0.962894 -1.780776 2.375127 0
M  V30 9 C 0.905450 -0.794651 1.413877 0
M  V30 10 C 1.324702 0.496526 1.607587 0
M  V30 11 C 1.252749 1.510571 0.581293 0
M  V30 12 C 1.653333 2.808666 0.714814 0
M  V30 13 C 1.511477 3.654489 -0.381231 0
M  V30 14 N 0.985405 3.185777 -1.549532 0
M  V30 15 C 0.595663 1.890662 -1.653613 0
M  V30 16 N 0.035395 1.380718 -2.889153 0
M  V30 17 C 1.218473 0.919080 -3.573211 0
M  V30 18 S -1.681847 1.476576 -3.108180 0
M  V30 19 O -2.252985 2.204596 -1.942536 0
M  V30 20 O -1.928296 2.315984 -4.337134 0
M  V30 21 C -2.421144 -0.097257 -3.271842 0
M  V30 22 C -3.351304 -0.493845 -2.307467 0
M  V30 23 C -4.026269 -1.693568 -2.266703 0
M  V30 24 C -3.762905 -2.596452 -3.273347 0
M  V30 25 C -2.853438 -2.247324 -4.244509 0
M  V30 26 C -2.212569 -1.047861 -4.239912 0
M  V30 27 F -1.326822 -0.712346 -5.205527 0
M  V30 28 N 0.730751 1.072967 -0.600026 0
M  V30 29 C 1.837532 0.838973 2.838639 0
M  V30 30 C 1.873726 -0.186500 3.769085 0
M  V30 31 S 2.485623 -0.170588 5.553488 0
M  V30 32 H 0.177945 -4.233606 9.156910 0
M  V30 33 H 1.747481 -4.855337 8.608329 0
M  V30 34 H 1.723188 -3.516013 9.783569 0
M  V30 35 H 3.109130 -3.404803 6.922565 0
M  V30 36 H 0.603877 -2.784922 2.127663 0
M  V30 37 H 0.493335 -1.076330 0.429924 0
M  V30 38 H 2.059159 3.139244 1.640989 0
M  V30 39 H 1.831530 4.674074 -0.260447 0
M  V30 40 H 1.922689 1.769645 -3.745530 0
M  V30 41 H 1.687641 0.080488 -3.026183 0
M  V30 42 H 0.938252 0.513100 -4.568566 0
M  V30 43 H -3.577252 0.211221 -1.494077 0
M  V30 44 H -4.724357 -1.896502 -1.474493 0
M  V30 45 H -4.273962 -3.541423 -3.268656 0
M  V30 46 H -2.614231 -2.939485 -5.066472 0
M  V30 47 H 2.200511 1.787402 3.142577 0
M  V30 END ATOM
M  V30 BEGIN BOND
M  V30 1 1 1 2
M  V30 2 2 2 3
M  V30 3 1 2 4
M  V30 4 1 4 5
M  V30 5 2 5 6
M  V30 6 1 6 7
M  V30 7 2 7 8
M  V30 8 1 8 9
M  V30 9 2 9 10
M  V30 10 1 10 11
M  V30 11 2 11 12
M  V30 12 1 12 13
M  V30 13 2 13 14
M  V30 14 1 14 15
M  V30 15 1 15 16
M  V30 16 1 16 17
M  V30 17 1 16 18
M  V30 18 2 18 19
M  V30 19 2 18 20
M  V30 20 1 18 21
M  V30 21 2 21 22
M  V30 22 1 22 23
M  V30 23 2 23 24
M  V30 24 1 24 25
M  V30 25 2 25 26
M  V30 26 1 26 27
M  V30 27 2 15 28
M  V30 28 1 10 29
M  V30 29 2 29 30
M  V30 30 1 30 31
M  V30 31 1 31 5
M  V30 32 1 30 7
M  V30 33 1 28 11
M  V30 34 1 26 21
M  V30 35 1 1 32
M  V30 36 1 1 33
M  V30 37 1 1 34
M  V30 38 1 4 35
M  V30 39 1 8 36
M  V30 40 1 9 37
M  V30 41 1 12 38
M  V30 42 1 13 39
M  V30 43 1 17 40
M  V30 44 1 17 41
M  V30 45 1 17 42
M  V30 46 1 22 43
M  V30 47 1 23 44
M  V30 48 1 24 45
M  V30 49 1 25 46
M  V30 50 1 29 47
M  V30 END BOND
M  V30 END CTAB
M  END
>  <Dataset>  (192) 
ChEMBL_Kinases

>  <Ligand_Instance>  (192) 
nan

>  <PDB_ID>  (192) 
nan

>  <Standardized_SMILES>  (192) 
CC(=O)Nc1nc2ccc(-c3ccnc(N(C)S(=O)(=O)c4ccccc4F)n3)cc2s1

>  <Name>  (192) 
nan

>  <Pocket>  (192) 
nan

>  <ATP_Site>  (192) 
nan

>  <Peripheral>  (192) 
nan

>  <Num_H_Atoms_ProtBoundConf>  (192) 
nan

>  <Num_Resolved_Atoms>  (192) 
nan

>  <Num_Not_Resolved_Atoms>  (192) 
nan

$$$$
CHEMBL1773581
     RDKit          3D

  0  0  0  0  0  0  0  0  0  0999 V3000
M  V30 BEGIN CTAB
M  V30 COUNTS 47 50 0 0 0
M  V30 BEGIN ATOM
M  V30 1 C 6.442948 -5.713273 -1.217863 0
M  V30 2 C 5.935502 -4.302414 -1.187345 0
M  V30 3 O 5.434926 -3.860864 -2.251067 0
M  V30 4 N 6.051870 -3.558434 0.044204 0
M  V30 5 C 5.568820 -2.174909 0.139557 0
M  V30 6 N 5.479045 -1.090139 0.173245 0
M  V30 7 C 4.660922 -0.108665 0.247047 0
M  V30 8 C 4.770329 1.265185 0.283075 0
M  V30 9 C 3.621848 2.009484 0.369496 0
M  V30 10 C 2.350056 1.503826 0.423637 0
M  V30 11 C 1.135824 2.276702 0.497960 0
M  V30 12 C 1.119142 3.579000 0.935905 0
M  V30 13 C -0.018591 4.313796 1.248719 0
M  V30 14 N -1.239555 3.703245 1.112044 0
M  V30 15 C -1.207310 2.409295 0.669248 0
M  V30 16 N -2.546611 2.036390 0.479636 0
M  V30 17 S -4.121359 1.592363 0.254797 0
M  V30 18 O -4.532405 1.293698 -1.174654 0
M  V30 19 O -4.998394 2.807219 0.660123 0
M  V30 20 C -4.670997 0.252879 1.241128 0
M  V30 21 C -5.213994 0.478999 2.479510 0
M  V30 22 C -5.648271 -0.592883 3.237119 0
M  V30 23 C -5.523375 -1.858445 2.727589 0
M  V30 24 C -5.949198 -3.076182 3.457735 0
M  V30 25 C -4.960418 -2.038995 1.454382 0
M  V30 26 C -4.512731 -0.986355 0.664246 0
M  V30 27 N -0.084416 1.776602 0.392432 0
M  V30 28 C 2.177839 0.142176 0.393896 0
M  V30 29 C 3.338762 -0.617962 0.307421 0
M  V30 30 S 3.704421 -2.464181 0.239720 0
M  V30 31 H 5.600713 -6.457346 -1.200974 0
M  V30 32 H 7.030233 -5.934992 -0.307261 0
M  V30 33 H 7.055214 -5.935189 -2.094547 0
M  V30 34 H 6.542472 -4.081517 0.798434 0
M  V30 35 H 5.704836 1.804812 0.244469 0
M  V30 36 H 3.634379 3.084773 0.406529 0
M  V30 37 H 2.035165 4.123451 1.065469 0
M  V30 38 H 0.078492 5.351258 1.593619 0
M  V30 39 H -2.348403 1.031410 0.154450 0
M  V30 40 H -5.293688 1.489847 2.853339 0
M  V30 41 H -6.080600 -0.474597 4.213637 0
M  V30 42 H -6.925143 -2.895195 3.963352 0
M  V30 43 H -6.125773 -3.915039 2.733195 0
M  V30 44 H -5.194459 -3.447127 4.180336 0
M  V30 45 H -4.878694 -3.049865 1.089293 0
M  V30 46 H -4.088874 -1.166922 -0.299821 0
M  V30 47 H 1.279587 -0.469190 0.425136 0
M  V30 END ATOM
M  V30 BEGIN BOND
M  V30 1 1 1 2
M  V30 2 2 2 3
M  V30 3 1 2 4
M  V30 4 1 4 5
M  V30 5 2 5 6
M  V30 6 1 6 7
M  V30 7 2 7 8
M  V30 8 1 8 9
M  V30 9 2 9 10
M  V30 10 1 10 11
M  V30 11 2 11 12
M  V30 12 1 12 13
M  V30 13 2 13 14
M  V30 14 1 14 15
M  V30 15 1 15 16
M  V30 16 1 16 17
M  V30 17 2 17 18
M  V30 18 2 17 19
M  V30 19 1 17 20
M  V30 20 2 20 21
M  V30 21 1 21 22
M  V30 22 2 22 23
M  V30 23 1 23 24
M  V30 24 1 23 25
M  V30 25 2 25 26
M  V30 26 2 15 27
M  V30 27 1 10 28
M  V30 28 2 28 29
M  V30 29 1 29 30
M  V30 30 1 30 5
M  V30 31 1 29 7
M  V30 32 1 27 11
M  V30 33 1 26 20
M  V30 34 1 1 31
M  V30 35 1 1 32
M  V30 36 1 1 33
M  V30 37 1 4 34
M  V30 38 1 8 35
M  V30 39 1 9 36
M  V30 40 1 12 37
M  V30 41 1 13 38
M  V30 42 1 16 39
M  V30 43 1 21 40
M  V30 44 1 22 41
M  V30 45 1 24 42
M  V30 46 1 24 43
M  V30 47 1 24 44
M  V30 48 1 25 45
M  V30 49 1 26 46
M  V30 50 1 28 47
M  V30 END BOND
M  V30 END CTAB
M  END
>  <Dataset>  (193) 
ChEMBL_Kinases

>  <Ligand_Instance>  (193) 
nan

>  <PDB_ID>  (193) 
nan

>  <Standardized_SMILES>  (193) 
CC(=O)Nc1nc2ccc(-c3ccnc(NS(=O)(=O)c4ccc(C)cc4)n3)cc2s1

>  <Name>  (193) 
nan

>  <Pocket>  (193) 
nan

>  <ATP_Site>  (193) 
nan

>  <Peripheral>  (193) 
nan

>  <Num_H_Atoms_ProtBoundConf>  (193) 
nan

>  <Num_Resolved_Atoms>  (193) 
nan

>  <Num_Not_Resolved_Atoms>  (193) 
nan

$$$$
CHEMBL1773582
     RDKit          3D

  0  0  0  0  0  0  0  0  0  0999 V3000
M  V30 BEGIN CTAB
M  V30 COUNTS 50 53 0 0 0
M  V30 BEGIN ATOM
M  V30 1 C 5.654766 -5.675007 6.013115 0
M  V30 2 C 5.152693 -4.477823 5.307332 0
M  V30 3 O 4.961636 -3.438876 5.991813 0
M  V30 4 N 4.918347 -4.574477 3.907096 0
M  V30 5 C 4.410578 -3.413362 3.112136 0
M  V30 6 N 3.294130 -3.161511 2.919917 0
M  V30 7 C 2.746563 -2.180428 2.245879 0
M  V30 8 C 1.444846 -1.812315 1.971410 0
M  V30 9 C 1.137547 -0.714155 1.222931 0
M  V30 10 C 2.085962 0.122300 0.676077 0
M  V30 11 C 1.764634 1.291572 -0.120776 0
M  V30 12 C 2.644464 2.146139 -0.681255 0
M  V30 13 C 2.149852 3.225047 -1.420457 0
M  V30 14 N 0.809999 3.372858 -1.546754 0
M  V30 15 C -0.065729 2.510983 -0.981252 0
M  V30 16 N -1.469850 2.690675 -1.130394 0
M  V30 17 C -2.256105 3.473923 -0.198523 0
M  V30 18 S -2.273622 1.955028 -2.463001 0
M  V30 19 O -2.965129 3.030030 -3.276332 0
M  V30 20 O -1.297808 1.298149 -3.392847 0
M  V30 21 C -3.487587 0.800389 -1.927724 0
M  V30 22 C -4.816610 1.040797 -1.657998 0
M  V30 23 C -5.574779 -0.030372 -1.250098 0
M  V30 24 C -5.109087 -1.304259 -1.094505 0
M  V30 25 C -5.968882 -2.421085 -0.652518 0
M  V30 26 C -3.779707 -1.529456 -1.367516 0
M  V30 27 C -2.988188 -0.497974 -1.775109 0
M  V30 28 N 0.444175 1.497369 -0.285897 0
M  V30 29 C 3.420000 -0.145987 0.883696 0
M  V30 30 C 3.649289 -1.286924 1.659562 0
M  V30 31 S 5.294910 -2.047205 2.205916 0
M  V30 32 H 4.932902 -5.938934 6.840060 0
M  V30 33 H 5.766243 -6.549370 5.367973 0
M  V30 34 H 6.622205 -5.470970 6.511061 0
M  V30 35 H 5.101138 -5.470163 3.412841 0
M  V30 36 H 0.611280 -2.413451 2.361426 0
M  V30 37 H 0.077686 -0.474607 1.040144 0
M  V30 38 H 3.701206 1.975408 -0.545040 0
M  V30 39 H 2.865949 3.905658 -1.866547 0
M  V30 40 H -3.316034 3.201493 -0.237023 0
M  V30 41 H -2.100652 4.573455 -0.348991 0
M  V30 42 H -1.905937 3.177782 0.832889 0
M  V30 43 H -5.108410 2.051470 -1.800153 0
M  V30 44 H -6.625751 0.197531 -1.044742 0
M  V30 45 H -7.012814 -2.315641 -1.016576 0
M  V30 46 H -5.995809 -2.485484 0.446856 0
M  V30 47 H -5.573769 -3.389207 -1.017833 0
M  V30 48 H -3.402267 -2.555020 -1.242861 0
M  V30 49 H -1.945535 -0.779401 -1.967202 0
M  V30 50 H 4.278583 0.373970 0.549059 0
M  V30 END ATOM
M  V30 BEGIN BOND
M  V30 1 1 1 2
M  V30 2 2 2 3
M  V30 3 1 2 4
M  V30 4 1 4 5
M  V30 5 2 5 6
M  V30 6 1 6 7
M  V30 7 2 7 8
M  V30 8 1 8 9
M  V30 9 2 9 10
M  V30 10 1 10 11
M  V30 11 2 11 12
M  V30 12 1 12 13
M  V30 13 2 13 14
M  V30 14 1 14 15
M  V30 15 1 15 16
M  V30 16 1 16 17
M  V30 17 1 16 18
M  V30 18 2 18 19
M  V30 19 2 18 20
M  V30 20 1 18 21
M  V30 21 2 21 22
M  V30 22 1 22 23
M  V30 23 2 23 24
M  V30 24 1 24 25
M  V30 25 1 24 26
M  V30 26 2 26 27
M  V30 27 2 15 28
M  V30 28 1 10 29
M  V30 29 2 29 30
M  V30 30 1 30 31
M  V30 31 1 31 5
M  V30 32 1 30 7
M  V30 33 1 28 11
M  V30 34 1 27 21
M  V30 35 1 1 32
M  V30 36 1 1 33
M  V30 37 1 1 34
M  V30 38 1 4 35
M  V30 39 1 8 36
M  V30 40 1 9 37
M  V30 41 1 12 38
M  V30 42 1 13 39
M  V30 43 1 17 40
M  V30 44 1 17 41
M  V30 45 1 17 42
M  V30 46 1 22 43
M  V30 47 1 23 44
M  V30 48 1 25 45
M  V30 49 1 25 46
M  V30 50 1 25 47
M  V30 51 1 26 48
M  V30 52 1 27 49
M  V30 53 1 29 50
M  V30 END BOND
M  V30 END CTAB
M  END
>  <Dataset>  (194) 
ChEMBL_Kinases

>  <Ligand_Instance>  (194) 
nan

>  <PDB_ID>  (194) 
nan

>  <Standardized_SMILES>  (194) 
CC(=O)Nc1nc2ccc(-c3ccnc(N(C)S(=O)(=O)c4ccc(C)cc4)n3)cc2s1

>  <Name>  (194) 
nan

>  <Pocket>  (194) 
nan

>  <ATP_Site>  (194) 
nan

>  <Peripheral>  (194) 
nan

>  <Num_H_Atoms_ProtBoundConf>  (194) 
nan

>  <Num_Resolved_Atoms>  (194) 
nan

>  <Num_Not_Resolved_Atoms>  (194) 
nan

$$$$
CHEMBL1773558
     RDKit          3D

  0  0  0  0  0  0  0  0  0  0999 V3000
M  V30 BEGIN CTAB
M  V30 COUNTS 49 52 0 0 0
M  V30 BEGIN ATOM
M  V30 1 C 5.797898 -1.240979 -5.081821 0
M  V30 2 O 6.000460 -1.729616 -3.792161 0
M  V30 3 C 5.684646 -1.096167 -2.610129 0
M  V30 4 C 6.009127 -1.841770 -1.472896 0
M  V30 5 C 5.747754 -1.328355 -0.224646 0
M  V30 6 C 5.166739 -0.083223 -0.026005 0
M  V30 7 S 4.874756 0.487571 1.597451 0
M  V30 8 O 5.941729 -0.144361 2.469519 0
M  V30 9 O 5.048822 1.988316 1.665989 0
M  V30 10 N 3.334961 0.018118 2.204962 0
M  V30 11 C 2.134390 0.442364 1.573444 0
M  V30 12 C 0.896004 0.071207 2.051257 0
M  V30 13 C -0.321642 0.431146 1.508017 0
M  V30 14 C -1.552891 -0.039212 2.125472 0
M  V30 15 C -1.728542 -0.275384 3.470886 0
M  V30 16 C -2.890940 -0.720328 4.060925 0
M  V30 17 C -3.996511 -0.961541 3.268257 0
M  V30 18 N -5.167611 -1.386455 3.689044 0
M  V30 19 C -6.130319 -1.595779 2.993669 0
M  V30 20 N -7.491389 -2.036570 3.089219 0
M  V30 21 C -8.351766 -2.159949 1.988616 0
M  V30 22 C -9.725396 -2.635759 2.315478 0
M  V30 23 O -7.927660 -1.871959 0.832988 0
M  V30 24 S -5.451693 -1.156399 1.312692 0
M  V30 25 C -3.831503 -0.728513 1.921022 0
M  V30 26 C -2.654739 -0.278951 1.330648 0
M  V30 27 C -0.310732 1.234057 0.386315 0
M  V30 28 C 0.944930 1.608197 -0.095069 0
M  V30 29 N 2.116687 1.223282 0.481536 0
M  V30 30 C 4.860857 0.621833 -1.151906 0
M  V30 31 C 5.108317 0.139017 -2.419443 0
M  V30 32 H 6.764739 -0.944955 -5.574694 0
M  V30 33 H 5.430845 -2.119537 -5.689057 0
M  V30 34 H 5.039308 -0.465374 -5.195070 0
M  V30 35 H 6.470878 -2.836697 -1.498790 0
M  V30 36 H 5.998049 -1.904598 0.677300 0
M  V30 37 H 3.249802 -0.589165 3.051711 0
M  V30 38 H 0.869609 -0.563716 2.937449 0
M  V30 39 H -0.832174 -0.075451 4.080987 0
M  V30 40 H -2.837013 -0.849501 5.147920 0
M  V30 41 H -7.738554 -2.243859 4.059011 0
M  V30 42 H -9.710763 -3.608543 2.848607 0
M  V30 43 H -10.200412 -2.862507 1.322239 0
M  V30 44 H -10.356560 -1.883670 2.796159 0
M  V30 45 H -2.682519 -0.145185 0.268813 0
M  V30 46 H -1.221172 1.539879 -0.070943 0
M  V30 47 H 0.919349 2.240800 -0.979814 0
M  V30 48 H 4.415489 1.581005 -1.067802 0
M  V30 49 H 4.879256 0.669782 -3.331755 0
M  V30 END ATOM
M  V30 BEGIN BOND
M  V30 1 1 1 2
M  V30 2 1 2 3
M  V30 3 2 3 4
M  V30 4 1 4 5
M  V30 5 2 5 6
M  V30 6 1 6 7
M  V30 7 2 7 8
M  V30 8 2 7 9
M  V30 9 1 7 10
M  V30 10 1 10 11
M  V30 11 2 11 12
M  V30 12 1 12 13
M  V30 13 1 13 14
M  V30 14 2 14 15
M  V30 15 1 15 16
M  V30 16 2 16 17
M  V30 17 1 17 18
M  V30 18 2 18 19
M  V30 19 1 19 20
M  V30 20 1 20 21
M  V30 21 1 21 22
M  V30 22 2 21 23
M  V30 23 1 19 24
M  V30 24 1 24 25
M  V30 25 2 25 26
M  V30 26 2 13 27
M  V30 27 1 27 28
M  V30 28 2 28 29
M  V30 29 1 6 30
M  V30 30 2 30 31
M  V30 31 1 31 3
M  V30 32 1 29 11
M  V30 33 1 26 14
M  V30 34 1 25 17
M  V30 35 1 1 32
M  V30 36 1 1 33
M  V30 37 1 1 34
M  V30 38 1 4 35
M  V30 39 1 5 36
M  V30 40 1 10 37
M  V30 41 1 12 38
M  V30 42 1 15 39
M  V30 43 1 16 40
M  V30 44 1 20 41
M  V30 45 1 22 42
M  V30 46 1 22 43
M  V30 47 1 22 44
M  V30 48 1 26 45
M  V30 49 1 27 46
M  V30 50 1 28 47
M  V30 51 1 30 48
M  V30 52 1 31 49
M  V30 END BOND
M  V30 END CTAB
M  END
>  <Dataset>  (195) 
ChEMBL_Kinases

>  <Ligand_Instance>  (195) 
nan

>  <PDB_ID>  (195) 
nan

>  <Standardized_SMILES>  (195) 
COc1ccc(S(=O)(=O)Nc2cc(-c3ccc4nc(NC(C)=O)sc4c3)ccn2)cc1

>  <Name>  (195) 
nan

>  <Pocket>  (195) 
nan

>  <ATP_Site>  (195) 
nan

>  <Peripheral>  (195) 
nan

>  <Num_H_Atoms_ProtBoundConf>  (195) 
nan

>  <Num_Resolved_Atoms>  (195) 
nan

>  <Num_Not_Resolved_Atoms>  (195) 
nan

$$$$
CHEMBL1784169
     RDKit          3D

  0  0  0  0  0  0  0  0  0  0999 V3000
M  V30 BEGIN CTAB
M  V30 COUNTS 52 55 0 0 0
M  V30 BEGIN ATOM
M  V30 1 C 6.882794 -3.675653 3.724809 0
M  V30 2 C 6.647677 -2.657036 2.667664 0
M  V30 3 N 6.287486 -1.504083 2.669213 0
M  V30 4 C 6.145967 -0.773810 1.566683 0
M  V30 5 C 5.704122 0.636913 1.685217 0
M  V30 6 N 4.267762 0.691179 1.685142 0
M  V30 7 C 3.369977 0.562912 0.597582 0
M  V30 8 O 3.856751 0.372807 -0.560278 0
M  V30 9 C 1.921228 0.640028 0.757036 0
M  V30 10 C 1.247542 0.849222 1.943768 0
M  V30 11 C -0.130191 0.906923 2.001127 0
M  V30 12 C -0.904632 0.757283 0.868152 0
M  V30 13 C -2.365904 0.803970 0.819391 0
M  V30 14 C -2.972539 -0.214763 0.075514 0
M  V30 15 C -4.342534 -0.212227 0.005922 0
M  V30 16 C -5.139931 -1.201146 -0.725288 0
M  V30 17 O -6.408480 -1.231511 -0.811574 0
M  V30 18 N -4.552779 -2.275876 -1.445178 0
M  V30 19 C -5.270787 -3.278191 -2.181065 0
M  V30 20 C -4.819466 -4.681883 -2.251323 0
M  V30 21 C -4.745305 -3.838425 -3.474580 0
M  V30 22 C -5.107264 0.748126 0.637346 0
M  V30 23 C -4.512605 1.769316 1.382193 0
M  V30 24 F -5.258198 2.711160 2.001375 0
M  V30 25 C -3.137066 1.757049 1.445363 0
M  V30 26 C -2.452092 2.823228 2.224438 0
M  V30 27 C -0.269613 0.546080 -0.339609 0
M  V30 28 C 1.108722 0.495744 -0.350186 0
M  V30 29 C 6.466317 -1.472135 0.267679 0
M  V30 30 S 6.944812 -3.175348 0.947048 0
M  V30 31 H 6.142022 -3.451764 4.529313 0
M  V30 32 H 6.613862 -4.699005 3.368840 0
M  V30 33 H 7.896218 -3.616594 4.170018 0
M  V30 34 H 6.154630 1.145977 2.557091 0
M  V30 35 H 6.054182 1.244287 0.806532 0
M  V30 36 H 3.843197 0.846892 2.625733 0
M  V30 37 H 1.833265 0.968164 2.835969 0
M  V30 38 H -0.649125 1.069160 2.929252 0
M  V30 39 H -2.434732 -0.990347 -0.438794 0
M  V30 40 H -3.505193 -2.386935 -1.469559 0
M  V30 41 H -6.371234 -3.147441 -2.142982 0
M  V30 42 H -5.572538 -5.494986 -2.315802 0
M  V30 43 H -3.887883 -5.047978 -1.757881 0
M  V30 44 H -3.755207 -3.409773 -3.770297 0
M  V30 45 H -5.404063 -3.984665 -4.334588 0
M  V30 46 H -6.195801 0.786443 0.607740 0
M  V30 47 H -3.028647 3.782751 2.085966 0
M  V30 48 H -2.454823 2.617374 3.305285 0
M  V30 49 H -1.443699 3.027638 1.805071 0
M  V30 50 H -0.829978 0.422848 -1.255151 0
M  V30 51 H 1.571510 0.326283 -1.329926 0
M  V30 52 H 6.326609 -0.784724 -0.661722 0
M  V30 END ATOM
M  V30 BEGIN BOND
M  V30 1 1 1 2
M  V30 2 2 2 3
M  V30 3 1 3 4
M  V30 4 1 4 5
M  V30 5 1 5 6
M  V30 6 1 6 7
M  V30 7 2 7 8
M  V30 8 1 7 9
M  V30 9 2 9 10
M  V30 10 1 10 11
M  V30 11 2 11 12
M  V30 12 1 12 13
M  V30 13 2 13 14
M  V30 14 1 14 15
M  V30 15 1 15 16
M  V30 16 2 16 17
M  V30 17 1 16 18
M  V30 18 1 18 19
M  V30 19 1 19 20
M  V30 20 1 20 21
M  V30 21 2 15 22
M  V30 22 1 22 23
M  V30 23 1 23 24
M  V30 24 2 23 25
M  V30 25 1 25 26
M  V30 26 1 12 27
M  V30 27 2 27 28
M  V30 28 2 4 29
M  V30 29 1 29 30
M  V30 30 1 30 2
M  V30 31 1 28 9
M  V30 32 1 25 13
M  V30 33 1 21 19
M  V30 34 1 1 31
M  V30 35 1 1 32
M  V30 36 1 1 33
M  V30 37 1 5 34
M  V30 38 1 5 35
M  V30 39 1 6 36
M  V30 40 1 10 37
M  V30 41 1 11 38
M  V30 42 1 14 39
M  V30 43 1 18 40
M  V30 44 1 19 41
M  V30 45 1 20 42
M  V30 46 1 20 43
M  V30 47 1 21 44
M  V30 48 1 21 45
M  V30 49 1 22 46
M  V30 50 1 26 47
M  V30 51 1 26 48
M  V30 52 1 26 49
M  V30 53 1 27 50
M  V30 54 1 28 51
M  V30 55 1 29 52
M  V30 END BOND
M  V30 END CTAB
M  END
>  <Dataset>  (196) 
ChEMBL_Kinases

>  <Ligand_Instance>  (196) 
nan

>  <PDB_ID>  (196) 
nan

>  <Standardized_SMILES>  (196) 
Cc1nc(CNC(=O)c2ccc(-c3cc(C(=O)NC4CC4)cc(F)c3C)cc2)cs1

>  <Name>  (196) 
nan

>  <Pocket>  (196) 
nan

>  <ATP_Site>  (196) 
nan

>  <Peripheral>  (196) 
nan

>  <Num_H_Atoms_ProtBoundConf>  (196) 
nan

>  <Num_Resolved_Atoms>  (196) 
nan

>  <Num_Not_Resolved_Atoms>  (196) 
nan

$$$$
CHEMBL1784168
     RDKit          3D

  0  0  0  0  0  0  0  0  0  0999 V3000
M  V30 BEGIN CTAB
M  V30 COUNTS 54 57 0 0 0
M  V30 BEGIN ATOM
M  V30 1 C 0.720415 -0.649792 4.650352 0
M  V30 2 C 1.571916 0.055555 3.653159 0
M  V30 3 C 2.683242 0.730630 4.169142 0
M  V30 4 F 2.980740 0.748927 5.490257 0
M  V30 5 C 3.501174 1.401622 3.281553 0
M  V30 6 C 3.248373 1.418294 1.925836 0
M  V30 7 C 4.101234 2.120273 0.975046 0
M  V30 8 O 3.882822 2.154978 -0.271043 0
M  V30 9 N 5.269512 2.841766 1.340628 0
M  V30 10 C 6.133654 3.545230 0.431951 0
M  V30 11 C 7.572586 3.734161 0.728667 0
M  V30 12 C 6.607281 4.893532 0.947439 0
M  V30 13 C 2.152563 0.752096 1.420958 0
M  V30 14 C 1.307154 0.063780 2.299167 0
M  V30 15 C 0.145597 -0.650456 1.787573 0
M  V30 16 C -0.181842 -1.933258 2.174266 0
M  V30 17 C -1.306040 -2.597717 1.669041 0
M  V30 18 C -2.130624 -1.976018 0.754800 0
M  V30 19 C -3.286779 -2.717413 0.265223 0
M  V30 20 O -3.453760 -3.878382 0.717650 0
M  V30 21 N -4.228419 -2.252326 -0.664266 0
M  V30 22 C -5.347848 -3.042359 -1.102019 0
M  V30 23 C -4.976371 -4.336195 -1.770346 0
M  V30 24 C -4.133833 -4.159623 -2.990698 0
M  V30 25 C -5.103049 -4.347491 -4.133089 0
M  V30 26 C -6.360078 -4.817695 -3.472709 0
M  V30 27 O -6.153933 -4.969774 -2.127688 0
M  V30 28 C -1.807452 -0.693474 0.364912 0
M  V30 29 C -0.697904 -0.030376 0.860049 0
M  V30 30 H -0.344764 -0.725003 4.345634 0
M  V30 31 H 0.692914 -0.004973 5.578254 0
M  V30 32 H 1.160750 -1.600378 5.000191 0
M  V30 33 H 4.352850 1.917105 3.688805 0
M  V30 34 H 5.549490 2.881255 2.352178 0
M  V30 35 H 5.837978 3.504873 -0.638181 0
M  V30 36 H 7.983680 3.227215 1.607808 0
M  V30 37 H 8.247095 3.855966 -0.131527 0
M  V30 38 H 6.458276 5.165540 2.009397 0
M  V30 39 H 6.676237 5.754080 0.252881 0
M  V30 40 H 1.937845 0.753777 0.361769 0
M  V30 41 H 0.435547 -2.457258 2.885240 0
M  V30 42 H -1.484994 -3.613155 2.034289 0
M  V30 43 H -4.053827 -1.269019 -1.023278 0
M  V30 44 H -6.079679 -3.244189 -0.306622 0
M  V30 45 H -5.898002 -2.447909 -1.871585 0
M  V30 46 H -4.478993 -5.025739 -1.038870 0
M  V30 47 H -3.620016 -3.162748 -3.010944 0
M  V30 48 H -3.350210 -4.945534 -3.100003 0
M  V30 49 H -4.775814 -5.137768 -4.856296 0
M  V30 50 H -5.250333 -3.423036 -4.728163 0
M  V30 51 H -6.789445 -5.708813 -3.971693 0
M  V30 52 H -7.120023 -3.997787 -3.602050 0
M  V30 53 H -2.448571 -0.203202 -0.349394 0
M  V30 54 H -0.457367 0.974752 0.545052 0
M  V30 END ATOM
M  V30 BEGIN BOND
M  V30 1 1 1 2
M  V30 2 2 2 3
M  V30 3 1 3 4
M  V30 4 1 3 5
M  V30 5 2 5 6
M  V30 6 1 6 7
M  V30 7 2 7 8
M  V30 8 1 7 9
M  V30 9 1 9 10
M  V30 10 1 10 11
M  V30 11 1 11 12
M  V30 12 1 6 13
M  V30 13 2 13 14
M  V30 14 1 14 15
M  V30 15 2 15 16
M  V30 16 1 16 17
M  V30 17 2 17 18
M  V30 18 1 18 19
M  V30 19 2 19 20
M  V30 20 1 19 21
M  V30 21 1 21 22
M  V30 22 1 22 23
M  V30 23 1 23 24
M  V30 24 1 24 25
M  V30 25 1 25 26
M  V30 26 1 26 27
M  V30 27 1 18 28
M  V30 28 2 28 29
M  V30 29 1 14 2
M  V30 30 1 29 15
M  V30 31 1 12 10
M  V30 32 1 27 23
M  V30 33 1 1 30
M  V30 34 1 1 31
M  V30 35 1 1 32
M  V30 36 1 5 33
M  V30 37 1 9 34
M  V30 38 1 10 35
M  V30 39 1 11 36
M  V30 40 1 11 37
M  V30 41 1 12 38
M  V30 42 1 12 39
M  V30 43 1 13 40
M  V30 44 1 16 41
M  V30 45 1 17 42
M  V30 46 1 21 43
M  V30 47 1 22 44
M  V30 48 1 22 45
M  V30 49 1 23 46
M  V30 50 1 24 47
M  V30 51 1 24 48
M  V30 52 1 25 49
M  V30 53 1 25 50
M  V30 54 1 26 51
M  V30 55 1 26 52
M  V30 56 1 28 53
M  V30 57 1 29 54
M  V30 END BOND
M  V30 END CTAB
M  END
>  <Dataset>  (197) 
ChEMBL_Kinases

>  <Ligand_Instance>  (197) 
nan

>  <PDB_ID>  (197) 
nan

>  <Standardized_SMILES>  (197) 
Cc1c(F)cc(C(=O)NC2CC2)cc1-c1ccc(C(=O)NCC2CCCO2)cc1

>  <Name>  (197) 
nan

>  <Pocket>  (197) 
nan

>  <ATP_Site>  (197) 
nan

>  <Peripheral>  (197) 
nan

>  <Num_H_Atoms_ProtBoundConf>  (197) 
nan

>  <Num_Resolved_Atoms>  (197) 
nan

>  <Num_Not_Resolved_Atoms>  (197) 
nan

$$$$
CHEMBL1784165
     RDKit          3D

  0  0  0  0  0  0  0  0  0  0999 V3000
M  V30 BEGIN CTAB
M  V30 COUNTS 50 53 0 0 0
M  V30 BEGIN ATOM
M  V30 1 C 0.463647 -0.066200 4.538577 0
M  V30 2 C 1.405850 0.587913 3.622878 0
M  V30 3 C 2.469395 1.304935 4.137107 0
M  V30 4 Cl 2.711808 1.453615 5.872138 0
M  V30 5 C 3.352934 1.912963 3.243409 0
M  V30 6 C 3.180073 1.808393 1.869313 0
M  V30 7 C 4.151612 2.476679 1.010382 0
M  V30 8 O 5.078545 3.102316 1.586342 0
M  V30 9 N 4.073772 2.436322 -0.409524 0
M  V30 10 C 5.087080 3.132883 -1.156794 0
M  V30 11 C 5.404142 2.839615 -2.560263 0
M  V30 12 C 4.495736 3.995651 -2.299283 0
M  V30 13 C 2.101598 1.080552 1.441631 0
M  V30 14 C 1.190778 0.454793 2.266313 0
M  V30 15 C 0.109151 -0.265907 1.647325 0
M  V30 16 C -1.244212 -0.214825 1.966527 0
M  V30 17 C -2.168100 -0.974039 1.278468 0
M  V30 18 C -1.771092 -1.806625 0.251965 0
M  V30 19 C -2.684633 -2.638931 -0.522936 0
M  V30 20 O -2.305378 -3.403108 -1.452576 0
M  V30 21 N -4.082349 -2.685663 -0.324581 0
M  V30 22 C -4.848811 -3.580166 -1.194965 0
M  V30 23 C -4.396419 -5.011535 -1.038822 0
M  V30 24 C -4.493973 -5.670324 0.301287 0
M  V30 25 C -5.546564 -5.986359 -0.702620 0
M  V30 26 C -0.430597 -1.861209 -0.068946 0
M  V30 27 C 0.502311 -1.106343 0.612337 0
M  V30 28 H 1.051505 -0.355543 5.443981 0
M  V30 29 H -0.304025 0.650903 4.896126 0
M  V30 30 H -0.080690 -0.931307 4.110772 0
M  V30 31 H 4.173117 2.465817 3.700723 0
M  V30 32 H 3.305042 1.917686 -0.886287 0
M  V30 33 H 5.862129 3.654110 -0.538792 0
M  V30 34 H 6.442937 3.111111 -2.898479 0
M  V30 35 H 4.980804 2.007872 -3.122957 0
M  V30 36 H 4.840974 5.036788 -2.328732 0
M  V30 37 H 3.436102 3.872571 -2.553479 0
M  V30 38 H 1.984866 1.011480 0.371604 0
M  V30 39 H -1.501046 0.453209 2.775477 0
M  V30 40 H -3.215747 -0.924761 1.536170 0
M  V30 41 H -4.510771 -2.079847 0.434740 0
M  V30 42 H -5.907022 -3.434714 -0.949109 0
M  V30 43 H -4.709554 -3.278003 -2.253982 0
M  V30 44 H -3.652633 -5.350474 -1.761882 0
M  V30 45 H -3.751904 -6.470267 0.500709 0
M  V30 46 H -4.754158 -5.060516 1.190508 0
M  V30 47 H -6.540527 -5.561199 -0.551808 0
M  V30 48 H -5.490801 -6.956041 -1.265252 0
M  V30 49 H -0.104201 -2.518728 -0.882013 0
M  V30 50 H 1.540819 -1.216982 0.286536 0
M  V30 END ATOM
M  V30 BEGIN BOND
M  V30 1 1 1 2
M  V30 2 2 2 3
M  V30 3 1 3 4
M  V30 4 1 3 5
M  V30 5 2 5 6
M  V30 6 1 6 7
M  V30 7 2 7 8
M  V30 8 1 7 9
M  V30 9 1 9 10
M  V30 10 1 10 11
M  V30 11 1 11 12
M  V30 12 1 6 13
M  V30 13 2 13 14
M  V30 14 1 14 15
M  V30 15 2 15 16
M  V30 16 1 16 17
M  V30 17 2 17 18
M  V30 18 1 18 19
M  V30 19 2 19 20
M  V30 20 1 19 21
M  V30 21 1 21 22
M  V30 22 1 22 23
M  V30 23 1 23 24
M  V30 24 1 24 25
M  V30 25 1 18 26
M  V30 26 2 26 27
M  V30 27 1 14 2
M  V30 28 1 27 15
M  V30 29 1 12 10
M  V30 30 1 25 23
M  V30 31 1 1 28
M  V30 32 1 1 29
M  V30 33 1 1 30
M  V30 34 1 5 31
M  V30 35 1 9 32
M  V30 36 1 10 33
M  V30 37 1 11 34
M  V30 38 1 11 35
M  V30 39 1 12 36
M  V30 40 1 12 37
M  V30 41 1 13 38
M  V30 42 1 16 39
M  V30 43 1 17 40
M  V30 44 1 21 41
M  V30 45 1 22 42
M  V30 46 1 22 43
M  V30 47 1 23 44
M  V30 48 1 24 45
M  V30 49 1 24 46
M  V30 50 1 25 47
M  V30 51 1 25 48
M  V30 52 1 26 49
M  V30 53 1 27 50
M  V30 END BOND
M  V30 END CTAB
M  END
>  <Dataset>  (198) 
ChEMBL_Kinases

>  <Ligand_Instance>  (198) 
nan

>  <PDB_ID>  (198) 
nan

>  <Standardized_SMILES>  (198) 
Cc1c(Cl)cc(C(=O)NC2CC2)cc1-c1ccc(C(=O)NCC2CC2)cc1

>  <Name>  (198) 
nan

>  <Pocket>  (198) 
nan

>  <ATP_Site>  (198) 
nan

>  <Peripheral>  (198) 
nan

>  <Num_H_Atoms_ProtBoundConf>  (198) 
nan

>  <Num_Resolved_Atoms>  (198) 
nan

>  <Num_Not_Resolved_Atoms>  (198) 
nan

$$$$
CHEMBL1784164
     RDKit          3D

  0  0  0  0  0  0  0  0  0  0999 V3000
M  V30 BEGIN CTAB
M  V30 COUNTS 50 53 0 0 0
M  V30 BEGIN ATOM
M  V30 1 C 0.461360 -0.015493 4.398512 0
M  V30 2 C 1.408051 0.585437 3.442059 0
M  V30 3 C 2.486726 1.312574 3.922762 0
M  V30 4 F 2.617819 1.440929 5.275475 0
M  V30 5 C 3.415132 1.899856 3.082759 0
M  V30 6 C 3.269222 1.761491 1.718515 0
M  V30 7 C 4.285150 2.406317 0.888409 0
M  V30 8 O 5.217587 3.041099 1.445542 0
M  V30 9 N 4.305254 2.373275 -0.534731 0
M  V30 10 C 5.334008 3.029199 -1.287645 0
M  V30 11 C 5.733140 2.632904 -2.646178 0
M  V30 12 C 4.798596 3.828784 -2.484601 0
M  V30 13 C 2.222734 1.054358 1.195119 0
M  V30 14 C 1.299390 0.471726 2.071517 0
M  V30 15 C 0.193646 -0.270579 1.492413 0
M  V30 16 C -1.135322 -0.160551 1.850315 0
M  V30 17 C -2.141999 -0.898873 1.264072 0
M  V30 18 C -1.838059 -1.802395 0.265556 0
M  V30 19 C -2.834529 -2.629062 -0.412637 0
M  V30 20 O -2.527980 -3.449558 -1.328508 0
M  V30 21 N -4.209048 -2.579599 -0.103216 0
M  V30 22 C -5.092475 -3.459121 -0.857025 0
M  V30 23 C -4.719678 -4.909105 -0.668735 0
M  V30 24 C -4.733495 -5.526589 0.674175 0
M  V30 25 C -5.887673 -5.786913 -0.249858 0
M  V30 26 C -0.517128 -1.940088 -0.119962 0
M  V30 27 C 0.477994 -1.172641 0.498871 0
M  V30 28 H 1.053069 -0.261467 5.320569 0
M  V30 29 H -0.305241 0.700048 4.761899 0
M  V30 30 H -0.082673 -0.900736 4.019263 0
M  V30 31 H 4.234197 2.455297 3.550755 0
M  V30 32 H 3.543218 1.853675 -1.023065 0
M  V30 33 H 6.099531 3.554167 -0.652488 0
M  V30 34 H 6.766162 2.901969 -2.957662 0
M  V30 35 H 5.369818 1.730817 -3.164149 0
M  V30 36 H 5.209225 4.849617 -2.600172 0
M  V30 37 H 3.775270 3.618502 -2.826257 0
M  V30 38 H 2.114575 0.949902 0.123993 0
M  V30 39 H -1.380263 0.546952 2.629558 0
M  V30 40 H -3.172328 -0.784804 1.571602 0
M  V30 41 H -4.568441 -1.937691 0.635391 0
M  V30 42 H -6.133206 -3.248874 -0.535071 0
M  V30 43 H -5.049560 -3.248660 -1.949044 0
M  V30 44 H -3.998150 -5.304166 -1.412138 0
M  V30 45 H -4.046581 -6.392041 0.823287 0
M  V30 46 H -4.881421 -4.916111 1.569828 0
M  V30 47 H -6.851596 -5.327290 -0.008905 0
M  V30 48 H -5.937114 -6.774298 -0.775979 0
M  V30 49 H -0.233991 -2.636630 -0.898778 0
M  V30 50 H 1.488596 -1.306998 0.173854 0
M  V30 END ATOM
M  V30 BEGIN BOND
M  V30 1 1 1 2
M  V30 2 2 2 3
M  V30 3 1 3 4
M  V30 4 1 3 5
M  V30 5 2 5 6
M  V30 6 1 6 7
M  V30 7 2 7 8
M  V30 8 1 7 9
M  V30 9 1 9 10
M  V30 10 1 10 11
M  V30 11 1 11 12
M  V30 12 1 6 13
M  V30 13 2 13 14
M  V30 14 1 14 15
M  V30 15 2 15 16
M  V30 16 1 16 17
M  V30 17 2 17 18
M  V30 18 1 18 19
M  V30 19 2 19 20
M  V30 20 1 19 21
M  V30 21 1 21 22
M  V30 22 1 22 23
M  V30 23 1 23 24
M  V30 24 1 24 25
M  V30 25 1 18 26
M  V30 26 2 26 27
M  V30 27 1 14 2
M  V30 28 1 27 15
M  V30 29 1 12 10
M  V30 30 1 25 23
M  V30 31 1 1 28
M  V30 32 1 1 29
M  V30 33 1 1 30
M  V30 34 1 5 31
M  V30 35 1 9 32
M  V30 36 1 10 33
M  V30 37 1 11 34
M  V30 38 1 11 35
M  V30 39 1 12 36
M  V30 40 1 12 37
M  V30 41 1 13 38
M  V30 42 1 16 39
M  V30 43 1 17 40
M  V30 44 1 21 41
M  V30 45 1 22 42
M  V30 46 1 22 43
M  V30 47 1 23 44
M  V30 48 1 24 45
M  V30 49 1 24 46
M  V30 50 1 25 47
M  V30 51 1 25 48
M  V30 52 1 26 49
M  V30 53 1 27 50
M  V30 END BOND
M  V30 END CTAB
M  END
>  <Dataset>  (199) 
ChEMBL_Kinases

>  <Ligand_Instance>  (199) 
nan

>  <PDB_ID>  (199) 
nan

>  <Standardized_SMILES>  (199) 
Cc1c(F)cc(C(=O)NC2CC2)cc1-c1ccc(C(=O)NCC2CC2)cc1

>  <Name>  (199) 
nan

>  <Pocket>  (199) 
nan

>  <ATP_Site>  (199) 
nan

>  <Peripheral>  (199) 
nan

>  <Num_H_Atoms_ProtBoundConf>  (199) 
nan

>  <Num_Resolved_Atoms>  (199) 
nan

>  <Num_Not_Resolved_Atoms>  (199) 
nan

$$$$
CHEMBL178397
     RDKit          3D

  0  0  0  0  0  0  0  0  0  0999 V3000
M  V30 BEGIN CTAB
M  V30 COUNTS 66 71 0 0 0
M  V30 BEGIN ATOM
M  V30 1 C 2.348658 -4.457001 5.750507 0
M  V30 2 C 2.481306 -3.089134 5.205271 0
M  V30 3 N 2.277397 -2.777242 3.926426 0
M  V30 4 C 2.413713 -1.507097 3.499172 0
M  V30 5 C 2.147728 -1.342705 2.075586 0
M  V30 6 C 2.908595 -1.912636 1.077818 0
M  V30 7 C 2.670830 -1.774266 -0.273505 0
M  V30 8 C 1.588806 -1.006671 -0.653297 0
M  V30 9 C 1.176140 -0.738936 -2.053856 0
M  V30 10 N 0.299185 -1.718606 -2.599140 0
M  V30 11 C -0.928366 -1.940875 -1.916347 0
M  V30 12 C -2.047135 -2.350701 -2.884124 0
M  V30 13 C -2.420778 -1.039902 -3.578992 0
M  V30 14 N -2.970080 -0.112508 -2.654816 0
M  V30 15 C -2.672066 1.014233 -1.995205 0
M  V30 16 O -1.571625 1.600317 -2.107727 0
M  V30 17 N -3.647844 1.475525 -1.196872 0
M  V30 18 C -4.654013 0.594271 -1.340624 0
M  V30 19 C -5.880961 0.662510 -0.700485 0
M  V30 20 C -6.781417 -0.340252 -0.980459 0
M  V30 21 C -6.447828 -1.344980 -1.856769 0
M  V30 22 C -5.223513 -1.356269 -2.454856 0
M  V30 23 C -4.245100 -0.376747 -2.229299 0
M  V30 24 C -1.161508 -0.530400 -4.212358 0
M  V30 25 C 0.042152 -1.443560 -3.985488 0
M  V30 26 C 0.778246 -0.401409 0.311537 0
M  V30 27 C 1.058721 -0.570414 1.666524 0
M  V30 28 C 2.766805 -0.469811 4.344797 0
M  V30 29 C 2.877767 0.865268 3.747837 0
M  V30 30 C 1.963415 1.726969 4.364691 0
M  V30 31 C 1.893959 3.063090 3.950411 0
M  V30 32 C 2.723915 3.512237 2.943481 0
M  V30 33 C 3.621016 2.639102 2.348244 0
M  V30 34 C 3.703568 1.321847 2.742621 0
M  V30 35 N 2.971668 -0.796295 5.639855 0
M  V30 36 C 2.832514 -2.066847 6.053940 0
M  V30 37 O 3.055415 -2.216155 7.284410 0
M  V30 38 H 1.308553 -4.562673 6.172373 0
M  V30 39 H 2.507477 -5.238377 4.960138 0
M  V30 40 H 3.023077 -4.693653 6.576312 0
M  V30 41 H 3.762365 -2.519443 1.372842 0
M  V30 42 H 3.261385 -2.216305 -1.044550 0
M  V30 43 H 2.130438 -0.806339 -2.656339 0
M  V30 44 H 0.850619 0.313704 -2.202714 0
M  V30 45 H -0.825677 -2.796547 -1.219261 0
M  V30 46 H -1.332221 -1.036514 -1.423104 0
M  V30 47 H -2.829998 -2.767373 -2.261892 0
M  V30 48 H -1.741582 -3.092921 -3.615214 0
M  V30 49 H -3.150349 -1.260124 -4.408685 0
M  V30 50 H -3.607916 2.326896 -0.609468 0
M  V30 51 H -6.140843 1.444847 -0.018044 0
M  V30 52 H -7.747261 -0.299031 -0.485347 0
M  V30 53 H -7.149982 -2.125416 -2.073985 0
M  V30 54 H -4.977365 -2.153927 -3.141096 0
M  V30 55 H -0.816444 0.459082 -3.869485 0
M  V30 56 H -1.267125 -0.494702 -5.328259 0
M  V30 57 H -0.021936 -2.354068 -4.613250 0
M  V30 58 H 0.916077 -0.886677 -4.377808 0
M  V30 59 H -0.089954 0.221302 0.169512 0
M  V30 60 H 0.464098 -0.124508 2.469213 0
M  V30 61 H 1.268298 1.506295 5.151614 0
M  V30 62 H 1.196129 3.782373 4.399043 0
M  V30 63 H 2.718049 4.536946 2.577337 0
M  V30 64 H 4.316084 2.899182 1.547318 0
M  V30 65 H 4.346697 0.543371 2.371047 0
M  V30 66 H 3.236808 0.026347 6.240077 0
M  V30 END ATOM
M  V30 BEGIN BOND
M  V30 1 1 1 2
M  V30 2 2 2 3
M  V30 3 1 3 4
M  V30 4 1 4 5
M  V30 5 2 5 6
M  V30 6 1 6 7
M  V30 7 2 7 8
M  V30 8 1 8 9
M  V30 9 1 9 10
M  V30 10 1 10 11
M  V30 11 1 11 12
M  V30 12 1 12 13
M  V30 13 1 13 14
M  V30 14 1 14 15
M  V30 15 2 15 16
M  V30 16 1 15 17
M  V30 17 1 17 18
M  V30 18 2 18 19
M  V30 19 1 19 20
M  V30 20 2 20 21
M  V30 21 1 21 22
M  V30 22 2 22 23
M  V30 23 1 13 24
M  V30 24 1 24 25
M  V30 25 1 8 26
M  V30 26 2 26 27
M  V30 27 2 4 28
M  V30 28 1 28 29
M  V30 29 2 29 30
M  V30 30 1 30 31
M  V30 31 2 31 32
M  V30 32 1 32 33
M  V30 33 2 33 34
M  V30 34 1 28 35
M  V30 35 1 35 36
M  V30 36 2 36 37
M  V30 37 1 36 2
M  V30 38 1 27 5
M  V30 39 1 34 29
M  V30 40 1 25 10
M  V30 41 1 23 14
M  V30 42 1 23 18
M  V30 43 1 1 38
M  V30 44 1 1 39
M  V30 45 1 1 40
M  V30 46 1 6 41
M  V30 47 1 7 42
M  V30 48 1 9 43
M  V30 49 1 9 44
M  V30 50 1 11 45
M  V30 51 1 11 46
M  V30 52 1 12 47
M  V30 53 1 12 48
M  V30 54 1 13 49
M  V30 55 1 17 50
M  V30 56 1 19 51
M  V30 57 1 20 52
M  V30 58 1 21 53
M  V30 59 1 22 54
M  V30 60 1 24 55
M  V30 61 1 24 56
M  V30 62 1 25 57
M  V30 63 1 25 58
M  V30 64 1 26 59
M  V30 65 1 27 60
M  V30 66 1 30 61
M  V30 67 1 31 62
M  V30 68 1 32 63
M  V30 69 1 33 64
M  V30 70 1 34 65
M  V30 71 1 35 66
M  V30 END BOND
M  V30 END CTAB
M  END
>  <Dataset>  (200) 
ChEMBL_Kinases

>  <Ligand_Instance>  (200) 
nan

>  <PDB_ID>  (200) 
nan

>  <Standardized_SMILES>  (200) 
Cc1nc(-c2ccc(CN3CCC(n4c(=O)[nH]c5ccccc54)CC3)cc2)c(-c2ccccc2)[nH]c1=O

>  <Name>  (200) 
nan

>  <Pocket>  (200) 
nan

>  <ATP_Site>  (200) 
nan

>  <Peripheral>  (200) 
nan

>  <Num_H_Atoms_ProtBoundConf>  (200) 
nan

>  <Num_Resolved_Atoms>  (200) 
nan

>  <Num_Not_Resolved_Atoms>  (200) 
nan

$$$$
CHEMBL178349
     RDKit          3D

  0  0  0  0  0  0  0  0  0  0999 V3000
M  V30 BEGIN CTAB
M  V30 COUNTS 69 75 0 0 0
M  V30 BEGIN ATOM
M  V30 1 O 2.762985 1.246028 5.963358 0
M  V30 2 C 3.421287 0.217230 5.322985 0
M  V30 3 N 4.701634 -0.092486 5.589817 0
M  V30 4 C 5.064804 -1.143110 4.804403 0
M  V30 5 C 6.238905 -1.844326 4.676486 0
M  V30 6 C 6.326308 -2.889402 3.779440 0
M  V30 7 C 5.218079 -3.209286 3.022511 0
M  V30 8 C 4.059162 -2.490577 3.172538 0
M  V30 9 C 3.934111 -1.424605 4.072323 0
M  V30 10 N 2.901397 -0.586925 4.382950 0
M  V30 11 C 1.631978 -0.721217 3.724921 0
M  V30 12 C 0.487447 -0.103062 4.464842 0
M  V30 13 C -0.410188 0.730490 3.575035 0
M  V30 14 N 0.301917 1.768543 2.894852 0
M  V30 15 C -0.405999 2.365518 1.818941 0
M  V30 16 C -0.810668 1.478398 0.727621 0
M  V30 17 C -2.055122 0.855753 0.806176 0
M  V30 18 C -2.541167 -0.000151 -0.160395 0
M  V30 19 C -1.783246 -0.278430 -1.278565 0
M  V30 20 C -2.107908 -1.147006 -2.404877 0
M  V30 21 C -1.215319 -2.215274 -2.529855 0
M  V30 22 C -1.358839 -3.148388 -3.542118 0
M  V30 23 C -0.499320 -4.221453 -3.704653 0
M  V30 24 C -0.645128 -5.152392 -4.717822 0
M  V30 25 C -1.708646 -4.979728 -5.596772 0
M  V30 26 C -2.578868 -3.904638 -5.442775 0
M  V30 27 C -2.410772 -2.983329 -4.416864 0
M  V30 28 N -3.260698 -1.956852 -4.289085 0
M  V30 29 C -3.132137 -1.043598 -3.310045 0
M  V30 30 C -3.997770 0.102461 -3.085637 0
M  V30 31 C -5.348929 -0.099279 -2.804917 0
M  V30 32 C -6.149642 1.000285 -2.596076 0
M  V30 33 C -5.613485 2.287109 -2.665435 0
M  V30 34 C -4.261351 2.492013 -2.946244 0
M  V30 35 C -3.468179 1.374186 -3.154098 0
M  V30 36 C -0.530594 0.323299 -1.398674 0
M  V30 37 C -0.086057 1.172540 -0.406407 0
M  V30 38 C 1.638428 1.398545 2.515974 0
M  V30 39 C 1.624967 -0.099008 2.322410 0
M  V30 40 H 2.503894 1.267444 6.939761 0
M  V30 41 H 7.093919 -1.594705 5.263028 0
M  V30 42 H 7.213071 -3.489136 3.620149 0
M  V30 43 H 5.244284 -4.035252 2.295427 0
M  V30 44 H 3.212017 -2.780768 2.553150 0
M  V30 45 H 1.460981 -1.817831 3.540884 0
M  V30 46 H 0.721634 0.512859 5.322635 0
M  V30 47 H -0.172417 -0.961377 4.800664 0
M  V30 48 H -0.987957 0.045381 2.916144 0
M  V30 49 H -1.155149 1.212427 4.242705 0
M  V30 50 H 0.261204 3.146874 1.372046 0
M  V30 51 H -1.309841 2.864787 2.231177 0
M  V30 52 H -2.770473 0.973644 1.622136 0
M  V30 53 H -3.481476 -0.493847 -0.138562 0
M  V30 54 H -0.368727 -2.402703 -1.876786 0
M  V30 55 H 0.313441 -4.309065 -2.991680 0
M  V30 56 H 0.063236 -5.979874 -4.798885 0
M  V30 57 H -1.798414 -5.716445 -6.373483 0
M  V30 58 H -3.383968 -3.801492 -6.133892 0
M  V30 59 H -5.786397 -1.100182 -2.746583 0
M  V30 60 H -7.213172 0.933679 -2.372021 0
M  V30 61 H -6.253940 3.155243 -2.498752 0
M  V30 62 H -3.838994 3.477986 -3.001799 0
M  V30 63 H -2.430182 1.566994 -3.368409 0
M  V30 64 H 0.142085 0.166349 -2.244781 0
M  V30 65 H 0.882479 1.638734 -0.499380 0
M  V30 66 H 1.988263 1.930802 1.602804 0
M  V30 67 H 2.388271 1.632542 3.293204 0
M  V30 68 H 2.449958 -0.458233 1.687721 0
M  V30 69 H 0.687832 -0.468492 1.859432 0
M  V30 END ATOM
M  V30 BEGIN BOND
M  V30 1 1 1 2
M  V30 2 2 2 3
M  V30 3 1 3 4
M  V30 4 2 4 5
M  V30 5 1 5 6
M  V30 6 2 6 7
M  V30 7 1 7 8
M  V30 8 2 8 9
M  V30 9 1 9 10
M  V30 10 1 10 11
M  V30 11 1 11 12
M  V30 12 1 12 13
M  V30 13 1 13 14
M  V30 14 1 14 15
M  V30 15 1 15 16
M  V30 16 2 16 17
M  V30 17 1 17 18
M  V30 18 2 18 19
M  V30 19 1 19 20
M  V30 20 2 20 21
M  V30 21 1 21 22
M  V30 22 2 22 23
M  V30 23 1 23 24
M  V30 24 2 24 25
M  V30 25 1 25 26
M  V30 26 2 26 27
M  V30 27 1 27 28
M  V30 28 2 28 29
M  V30 29 1 29 30
M  V30 30 2 30 31
M  V30 31 1 31 32
M  V30 32 2 32 33
M  V30 33 1 33 34
M  V30 34 2 34 35
M  V30 35 1 19 36
M  V30 36 2 36 37
M  V30 37 1 14 38
M  V30 38 1 38 39
M  V30 39 1 10 2
M  V30 40 1 39 11
M  V30 41 1 9 4
M  V30 42 1 37 16
M  V30 43 1 29 20
M  V30 44 1 35 30
M  V30 45 1 27 22
M  V30 46 1 1 40
M  V30 47 1 5 41
M  V30 48 1 6 42
M  V30 49 1 7 43
M  V30 50 1 8 44
M  V30 51 1 11 45
M  V30 52 1 12 46
M  V30 53 1 12 47
M  V30 54 1 13 48
M  V30 55 1 13 49
M  V30 56 1 15 50
M  V30 57 1 15 51
M  V30 58 1 17 52
M  V30 59 1 18 53
M  V30 60 1 21 54
M  V30 61 1 23 55
M  V30 62 1 24 56
M  V30 63 1 25 57
M  V30 64 1 26 58
M  V30 65 1 31 59
M  V30 66 1 32 60
M  V30 67 1 33 61
M  V30 68 1 34 62
M  V30 69 1 35 63
M  V30 70 1 36 64
M  V30 71 1 37 65
M  V30 72 1 38 66
M  V30 73 1 38 67
M  V30 74 1 39 68
M  V30 75 1 39 69
M  V30 END BOND
M  V30 END CTAB
M  END
>  <Dataset>  (201) 
ChEMBL_Kinases

>  <Ligand_Instance>  (201) 
nan

>  <PDB_ID>  (201) 
nan

>  <Standardized_SMILES>  (201) 
Oc1nc2ccccc2n1C1CCN(Cc2ccc(-c3cc4ccccc4nc3-c3ccccc3)cc2)CC1

>  <Name>  (201) 
nan

>  <Pocket>  (201) 
nan

>  <ATP_Site>  (201) 
nan

>  <Peripheral>  (201) 
nan

>  <Num_H_Atoms_ProtBoundConf>  (201) 
nan

>  <Num_Resolved_Atoms>  (201) 
nan

>  <Num_Not_Resolved_Atoms>  (201) 
nan

$$$$
CHEMBL178268
     RDKit          3D

  0  0  0  0  0  0  0  0  0  0999 V3000
M  V30 BEGIN CTAB
M  V30 COUNTS 54 56 0 0 0
M  V30 BEGIN ATOM
M  V30 1 C -0.118503 -2.750991 4.181376 0
M  V30 2 C 1.348140 -2.769617 4.448673 0
M  V30 3 C 1.558932 -3.627700 5.702154 0
M  V30 4 C 2.181555 -3.300142 3.336839 0
M  V30 5 O 2.147626 -2.657829 2.126556 0
M  V30 6 C 1.153625 -2.418339 1.225842 0
M  V30 7 C 1.757210 -1.699369 0.177862 0
M  V30 8 C 1.061201 -1.263650 -0.949894 0
M  V30 9 N 1.559153 -0.542385 -2.050482 0
M  V30 10 C 1.505658 0.874745 -1.949759 0
M  V30 11 C 0.992025 1.497262 -0.826109 0
M  V30 12 C 0.912202 2.866372 -0.666770 0
M  V30 13 C 1.378347 3.686483 -1.703220 0
M  V30 14 S 1.226070 5.398296 -1.386734 0
M  V30 15 C -0.335103 6.030808 -1.930907 0
M  V30 16 O 2.328583 6.157129 -2.073277 0
M  V30 17 O 1.351609 5.683684 0.083718 0
M  V30 18 C 1.896614 3.096985 -2.837580 0
M  V30 19 C 1.958132 1.723108 -2.956585 0
M  V30 20 N -0.270367 -1.556250 -1.027197 0
M  V30 21 N -1.214545 -1.307626 -1.924425 0
M  V30 22 C -2.375287 -1.831864 -1.494445 0
M  V30 23 C -2.164512 -2.449546 -0.255587 0
M  V30 24 C -3.173791 -3.156344 0.582161 0
M  V30 25 C -3.242307 -4.633929 0.246654 0
M  V30 26 C -4.540043 -2.591465 0.183482 0
M  V30 27 C -0.820713 -2.242754 -0.014216 0
M  V30 28 N -0.154910 -2.656703 1.059282 0
M  V30 29 H -0.672542 -2.841937 5.161338 0
M  V30 30 H -0.379553 -3.646762 3.614734 0
M  V30 31 H -0.358276 -1.817060 3.669518 0
M  V30 32 H 1.732574 -1.745878 4.741874 0
M  V30 33 H 1.665432 -2.998626 6.613575 0
M  V30 34 H 0.704164 -4.324429 5.864239 0
M  V30 35 H 2.454141 -4.245500 5.606462 0
M  V30 36 H 1.907120 -4.389858 3.176820 0
M  V30 37 H 3.248068 -3.298015 3.735438 0
M  V30 38 H 2.787373 -1.371895 0.050585 0
M  V30 39 H 1.967992 -0.935016 -2.943452 0
M  V30 40 H 0.622019 0.871814 -0.004382 0
M  V30 41 H 0.487888 3.255040 0.263281 0
M  V30 42 H -0.596870 6.884582 -1.295553 0
M  V30 43 H -1.119428 5.236174 -1.782250 0
M  V30 44 H -0.324949 6.391846 -2.978661 0
M  V30 45 H 2.234839 3.781099 -3.590920 0
M  V30 46 H 2.367442 1.292975 -3.852776 0
M  V30 47 H -3.363996 -1.818377 -1.977934 0
M  V30 48 H -3.042338 -2.986162 1.657894 0
M  V30 49 H -4.278931 -4.993192 0.324892 0
M  V30 50 H -2.957163 -4.712646 -0.841478 0
M  V30 51 H -2.517254 -5.239070 0.814975 0
M  V30 52 H -5.330738 -2.996928 0.821180 0
M  V30 53 H -4.533920 -1.485541 0.117723 0
M  V30 54 H -4.718736 -2.948461 -0.865834 0
M  V30 END ATOM
M  V30 BEGIN BOND
M  V30 1 1 1 2
M  V30 2 1 2 3
M  V30 3 1 2 4
M  V30 4 1 4 5
M  V30 5 1 5 6
M  V30 6 1 6 7
M  V30 7 2 7 8
M  V30 8 1 8 9
M  V30 9 1 9 10
M  V30 10 2 10 11
M  V30 11 1 11 12
M  V30 12 2 12 13
M  V30 13 1 13 14
M  V30 14 1 14 15
M  V30 15 2 14 16
M  V30 16 2 14 17
M  V30 17 1 13 18
M  V30 18 2 18 19
M  V30 19 1 8 20
M  V30 20 1 20 21
M  V30 21 2 21 22
M  V30 22 1 22 23
M  V30 23 1 23 24
M  V30 24 1 24 25
M  V30 25 1 24 26
M  V30 26 2 23 27
M  V30 27 1 27 28
M  V30 28 2 28 6
M  V30 29 1 19 10
M  V30 30 1 27 20
M  V30 31 1 1 29
M  V30 32 1 1 30
M  V30 33 1 1 31
M  V30 34 1 2 32
M  V30 35 1 3 33
M  V30 36 1 3 34
M  V30 37 1 3 35
M  V30 38 1 4 36
M  V30 39 1 4 37
M  V30 40 1 7 38
M  V30 41 1 9 39
M  V30 42 1 11 40
M  V30 43 1 12 41
M  V30 44 1 15 42
M  V30 45 1 15 43
M  V30 46 1 15 44
M  V30 47 1 18 45
M  V30 48 1 19 46
M  V30 49 1 22 47
M  V30 50 1 24 48
M  V30 51 1 25 49
M  V30 52 1 25 50
M  V30 53 1 25 51
M  V30 54 1 26 52
M  V30 55 1 26 53
M  V30 56 1 26 54
M  V30 END BOND
M  V30 END CTAB
M  END
>  <Dataset>  (202) 
ChEMBL_Kinases

>  <Ligand_Instance>  (202) 
nan

>  <PDB_ID>  (202) 
nan

>  <Standardized_SMILES>  (202) 
CC(C)COc1cc(Nc2ccc(S(C)(=O)=O)cc2)n2ncc(C(C)C)c2n1

>  <Name>  (202) 
nan

>  <Pocket>  (202) 
nan

>  <ATP_Site>  (202) 
nan

>  <Peripheral>  (202) 
nan

>  <Num_H_Atoms_ProtBoundConf>  (202) 
nan

>  <Num_Resolved_Atoms>  (202) 
nan

>  <Num_Not_Resolved_Atoms>  (202) 
nan

$$$$
CHEMBL1782523
     RDKit          3D

  0  0  0  0  0  0  0  0  0  0999 V3000
M  V30 BEGIN CTAB
M  V30 COUNTS 34 36 0 0 0
M  V30 BEGIN ATOM
M  V30 1 O 1.351837 -3.840005 3.921592 0
M  V30 2 C 2.064438 -3.924383 2.875713 0
M  V30 3 O 2.864766 -5.065269 2.686897 0
M  V30 4 C 2.103166 -2.880329 1.831613 0
M  V30 5 C 2.849049 -2.896373 0.669624 0
M  V30 6 C 2.509140 -1.696152 0.076536 0
M  V30 7 C 2.951839 -1.168099 -1.118736 0
M  V30 8 C 2.515033 0.050298 -1.576453 0
M  V30 9 Br 3.067756 0.861025 -3.209362 0
M  V30 10 C 1.617080 0.696019 -0.766113 0
M  V30 11 C 1.118880 0.251594 0.437310 0
M  V30 12 O 0.245568 0.782797 1.317612 0
M  V30 13 C -0.476533 1.949543 1.345151 0
M  V30 14 C -1.467885 2.136810 0.223538 0
M  V30 15 C -2.444814 1.029311 0.271294 0
M  V30 16 C -2.162154 -0.132328 -0.455675 0
M  V30 17 C -3.075532 -1.153418 -0.401536 0
M  V30 18 N -4.200941 -1.095910 0.297764 0
M  V30 19 C -4.547668 -0.004708 1.029174 0
M  V30 20 C -3.629695 1.002947 0.965779 0
M  V30 21 C 1.589274 -0.997076 0.870458 0
M  V30 22 O 1.394549 -1.785580 1.920055 0
M  V30 23 H 2.662841 -5.843826 3.298728 0
M  V30 24 H 3.523903 -3.663251 0.326305 0
M  V30 25 H 3.657778 -1.712047 -1.720910 0
M  V30 26 H 1.242268 1.659352 -1.064902 0
M  V30 27 H -1.025892 2.127785 2.293023 0
M  V30 28 H 0.234514 2.814024 1.257874 0
M  V30 29 H -2.042716 3.072836 0.484854 0
M  V30 30 H -1.013396 2.220551 -0.774278 0
M  V30 31 H -1.288613 -0.297045 -1.057798 0
M  V30 32 H -2.924398 -2.080698 -0.938704 0
M  V30 33 H -5.430444 0.123662 1.617834 0
M  V30 34 H -3.834606 1.914460 1.523984 0
M  V30 END ATOM
M  V30 BEGIN BOND
M  V30 1 2 1 2
M  V30 2 1 2 3
M  V30 3 1 2 4
M  V30 4 2 4 5
M  V30 5 1 5 6
M  V30 6 2 6 7
M  V30 7 1 7 8
M  V30 8 1 8 9
M  V30 9 2 8 10
M  V30 10 1 10 11
M  V30 11 1 11 12
M  V30 12 1 12 13
M  V30 13 1 13 14
M  V30 14 1 14 15
M  V30 15 2 15 16
M  V30 16 1 16 17
M  V30 17 2 17 18
M  V30 18 1 18 19
M  V30 19 2 19 20
M  V30 20 2 11 21
M  V30 21 1 21 22
M  V30 22 1 22 4
M  V30 23 1 21 6
M  V30 24 1 20 15
M  V30 25 1 3 23
M  V30 26 1 5 24
M  V30 27 1 7 25
M  V30 28 1 10 26
M  V30 29 1 13 27
M  V30 30 1 13 28
M  V30 31 1 14 29
M  V30 32 1 14 30
M  V30 33 1 16 31
M  V30 34 1 17 32
M  V30 35 1 19 33
M  V30 36 1 20 34
M  V30 END BOND
M  V30 END CTAB
M  END
>  <Dataset>  (203) 
ChEMBL_Kinases

>  <Ligand_Instance>  (203) 
nan

>  <PDB_ID>  (203) 
nan

>  <Standardized_SMILES>  (203) 
O=C(O)c1cc2cc(Br)cc(OCCc3ccncc3)c2o1

>  <Name>  (203) 
nan

>  <Pocket>  (203) 
nan

>  <ATP_Site>  (203) 
nan

>  <Peripheral>  (203) 
nan

>  <Num_H_Atoms_ProtBoundConf>  (203) 
nan

>  <Num_Resolved_Atoms>  (203) 
nan

>  <Num_Not_Resolved_Atoms>  (203) 
nan

$$$$
CHEMBL1782506
     RDKit          3D

  0  0  0  0  0  0  0  0  0  0999 V3000
M  V30 BEGIN CTAB
M  V30 COUNTS 22 23 0 0 0
M  V30 BEGIN ATOM
M  V30 1 O 1.112534 -3.597991 4.245975 0
M  V30 2 C 0.574375 -3.275136 3.180309 0
M  V30 3 O -0.042828 -4.335742 2.550913 0
M  V30 4 C 0.530467 -1.944993 2.553221 0
M  V30 5 C -0.086490 -1.625115 1.352354 0
M  V30 6 C 0.118449 -0.275704 1.148193 0
M  V30 7 C -0.318420 0.487675 0.075418 0
M  V30 8 C 0.015570 1.833945 0.096021 0
M  V30 9 O -0.438652 2.579322 -0.999343 0
M  V30 10 C 0.481979 2.625722 -2.099602 0
M  V30 11 F 1.635998 3.204045 -1.614726 0
M  V30 12 F 0.767041 1.355372 -2.577151 0
M  V30 13 F -0.098134 3.362164 -3.103075 0
M  V30 14 C 0.747133 2.356425 1.146388 0
M  V30 15 C 1.142699 1.525030 2.175824 0
M  V30 16 C 0.843176 0.174720 2.216565 0
M  V30 17 O 1.063824 -0.839312 3.018740 0
M  V30 18 H -0.361368 -5.157791 3.017623 0
M  V30 19 H -0.613616 -2.343279 0.737038 0
M  V30 20 H -0.895995 0.030019 -0.735163 0
M  V30 21 H 0.985605 3.411354 1.122305 0
M  V30 22 H 1.723182 1.941690 3.008430 0
M  V30 END ATOM
M  V30 BEGIN BOND
M  V30 1 2 1 2
M  V30 2 1 2 3
M  V30 3 1 2 4
M  V30 4 2 4 5
M  V30 5 1 5 6
M  V30 6 2 6 7
M  V30 7 1 7 8
M  V30 8 1 8 9
M  V30 9 1 9 10
M  V30 10 1 10 11
M  V30 11 1 10 12
M  V30 12 1 10 13
M  V30 13 2 8 14
M  V30 14 1 14 15
M  V30 15 2 15 16
M  V30 16 1 16 17
M  V30 17 1 17 4
M  V30 18 1 16 6
M  V30 19 1 3 18
M  V30 20 1 5 19
M  V30 21 1 7 20
M  V30 22 1 14 21
M  V30 23 1 15 22
M  V30 END BOND
M  V30 END CTAB
M  END
>  <Dataset>  (204) 
ChEMBL_Kinases

>  <Ligand_Instance>  (204) 
nan

>  <PDB_ID>  (204) 
nan

>  <Standardized_SMILES>  (204) 
O=C(O)c1cc2cc(OC(F)(F)F)ccc2o1

>  <Name>  (204) 
nan

>  <Pocket>  (204) 
nan

>  <ATP_Site>  (204) 
nan

>  <Peripheral>  (204) 
nan

>  <Num_H_Atoms_ProtBoundConf>  (204) 
nan

>  <Num_Resolved_Atoms>  (204) 
nan

>  <Num_Not_Resolved_Atoms>  (204) 
nan

$$$$
CHEMBL178179
     RDKit          3D

  0  0  0  0  0  0  0  0  0  0999 V3000
M  V30 BEGIN CTAB
M  V30 COUNTS 70 74 0 0 0
M  V30 BEGIN ATOM
M  V30 1 C 6.613054 -0.439615 2.558919 0
M  V30 2 N 7.250315 0.807621 2.244118 0
M  V30 3 C 8.435688 1.011976 3.053158 0
M  V30 4 S 6.187812 2.139784 2.524308 0
M  V30 5 O 5.700970 2.129254 3.946764 0
M  V30 6 O 6.907310 3.451140 2.304188 0
M  V30 7 C 4.780111 2.014671 1.504217 0
M  V30 8 C 3.632506 1.336524 1.915338 0
M  V30 9 C 2.517005 1.233986 1.107295 0
M  V30 10 C 2.561215 1.824589 -0.134141 0
M  V30 11 N 1.447266 1.744049 -1.011465 0
M  V30 12 C 0.194071 1.105558 -0.825612 0
M  V30 13 C -0.905087 1.775026 -0.357725 0
M  V30 14 C -2.122775 1.105745 -0.186599 0
M  V30 15 N -3.307660 1.738327 0.293037 0
M  V30 16 C -4.595861 1.164677 0.510402 0 CFG=1
M  V30 17 C -5.134982 0.538658 -0.760881 0
M  V30 18 C -6.377323 -0.281592 -0.464829 0
M  V30 19 C -5.980214 -1.534011 0.270956 0 CFG=2
M  V30 20 N -7.134574 -2.054351 1.000645 0
M  V30 21 C -4.890319 -1.238340 1.231017 0
M  V30 22 C -4.719822 0.196717 1.624232 0
M  V30 23 N -2.050197 -0.191439 -0.525082 0
M  V30 24 C -0.993546 -0.839178 -0.975279 0
M  V30 25 C -0.840877 -2.159264 -1.336910 0
M  V30 26 C -1.759417 -3.288215 -1.360920 0
M  V30 27 C -1.905988 -4.058118 -0.093909 0
M  V30 28 C -1.179918 -5.373733 -0.273609 0
M  V30 29 C -0.642901 -5.397410 -1.680553 0
M  V30 30 C -1.313407 -4.267438 -2.427171 0
M  V30 31 C 0.502436 -2.250932 -1.727151 0
M  V30 32 N 1.079420 -1.054794 -1.595777 0
M  V30 33 N 0.175998 -0.197871 -1.140369 0
M  V30 34 C 3.655763 2.518654 -0.627152 0
M  V30 35 C 4.736388 2.577192 0.244673 0
M  V30 36 H 7.356693 -1.262424 2.550132 0
M  V30 37 H 5.823517 -0.657832 1.798369 0
M  V30 38 H 6.193545 -0.430569 3.584225 0
M  V30 39 H 8.250195 1.779646 3.804310 0
M  V30 40 H 8.808839 0.056655 3.502183 0
M  V30 41 H 9.244771 1.376723 2.380409 0
M  V30 42 H 3.588850 0.872347 2.883877 0
M  V30 43 H 1.603610 0.716508 1.386488 0
M  V30 44 H 1.394776 2.160907 -1.945825 0
M  V30 45 H -0.863471 2.836744 -0.108314 0
M  V30 46 H -3.147285 2.774191 0.499215 0
M  V30 47 H -5.290997 2.021666 0.724138 0
M  V30 48 H -5.442465 1.365777 -1.430393 0
M  V30 49 H -4.358572 -0.043531 -1.274507 0
M  V30 50 H -7.061579 0.295438 0.192375 0
M  V30 51 H -6.938302 -0.490986 -1.393617 0
M  V30 52 H -5.722994 -2.356410 -0.446387 0
M  V30 53 H -8.002503 -2.013237 0.439273 0
M  V30 54 H -6.936232 -3.055513 1.303272 0
M  V30 55 H -3.897983 -1.626443 0.911676 0
M  V30 56 H -5.105550 -1.863203 2.160126 0
M  V30 57 H -5.655260 0.450560 2.212480 0
M  V30 58 H -3.852813 0.338461 2.313138 0
M  V30 59 H -2.757245 -2.925262 -1.681986 0
M  V30 60 H -1.630658 -3.535776 0.824304 0
M  V30 61 H -2.987805 -4.342647 0.054712 0
M  V30 62 H -1.835925 -6.263751 -0.167250 0
M  V30 63 H -0.355025 -5.497270 0.458337 0
M  V30 64 H 0.453693 -5.305653 -1.656364 0
M  V30 65 H -0.841480 -6.364481 -2.196593 0
M  V30 66 H -0.583889 -3.817837 -3.129398 0
M  V30 67 H -2.161011 -4.667698 -3.019243 0
M  V30 68 H 1.113271 -3.042204 -2.086696 0
M  V30 69 H 3.710292 2.986432 -1.589193 0
M  V30 70 H 5.646305 3.108500 -0.066901 0
M  V30 END ATOM
M  V30 BEGIN BOND
M  V30 1 1 1 2
M  V30 2 1 2 3
M  V30 3 1 2 4
M  V30 4 2 4 5
M  V30 5 2 4 6
M  V30 6 1 4 7
M  V30 7 2 7 8
M  V30 8 1 8 9
M  V30 9 2 9 10
M  V30 10 1 10 11
M  V30 11 1 11 12
M  V30 12 2 12 13
M  V30 13 1 13 14
M  V30 14 1 14 15
M  V30 15 1 15 16
M  V30 16 1 16 17
M  V30 17 1 17 18
M  V30 18 1 18 19
M  V30 19 1 19 20
M  V30 20 1 19 21
M  V30 21 1 21 22
M  V30 22 2 14 23
M  V30 23 1 23 24
M  V30 24 2 24 25
M  V30 25 1 25 26
M  V30 26 1 26 27
M  V30 27 1 27 28
M  V30 28 1 28 29
M  V30 29 1 29 30
M  V30 30 1 25 31
M  V30 31 2 31 32
M  V30 32 1 32 33
M  V30 33 1 10 34
M  V30 34 2 34 35
M  V30 35 1 35 7
M  V30 36 1 33 12
M  V30 37 1 22 16
M  V30 38 1 33 24
M  V30 39 1 30 26
M  V30 40 1 1 36
M  V30 41 1 1 37
M  V30 42 1 1 38
M  V30 43 1 3 39
M  V30 44 1 3 40
M  V30 45 1 3 41
M  V30 46 1 8 42
M  V30 47 1 9 43
M  V30 48 1 11 44
M  V30 49 1 13 45
M  V30 50 1 15 46
M  V30 51 1 16 47 CFG=1
M  V30 52 1 17 48
M  V30 53 1 17 49
M  V30 54 1 18 50
M  V30 55 1 18 51
M  V30 56 1 19 52 CFG=3
M  V30 57 1 20 53
M  V30 58 1 20 54
M  V30 59 1 21 55
M  V30 60 1 21 56
M  V30 61 1 22 57
M  V30 62 1 22 58
M  V30 63 1 26 59
M  V30 64 1 27 60
M  V30 65 1 27 61
M  V30 66 1 28 62
M  V30 67 1 28 63
M  V30 68 1 29 64
M  V30 69 1 29 65
M  V30 70 1 30 66
M  V30 71 1 30 67
M  V30 72 1 31 68
M  V30 73 1 34 69
M  V30 74 1 35 70
M  V30 END BOND
M  V30 END CTAB
M  END
>  <Dataset>  (205) 
ChEMBL_Kinases

>  <Ligand_Instance>  (205) 
nan

>  <PDB_ID>  (205) 
nan

>  <Standardized_SMILES>  (205) 
CN(C)S(=O)(=O)c1ccc(Nc2cc(N[C@H]3CC[C@H](N)CC3)nc3c(C4CCCC4)cnn23)cc1

>  <Name>  (205) 
nan

>  <Pocket>  (205) 
nan

>  <ATP_Site>  (205) 
nan

>  <Peripheral>  (205) 
nan

>  <Num_H_Atoms_ProtBoundConf>  (205) 
nan

>  <Num_Resolved_Atoms>  (205) 
nan

>  <Num_Not_Resolved_Atoms>  (205) 
nan

$$$$
CHEMBL1779489
     RDKit          3D

  0  0  0  0  0  0  0  0  0  0999 V3000
M  V30 BEGIN CTAB
M  V30 COUNTS 47 51 0 0 0
M  V30 BEGIN ATOM
M  V30 1 O 4.332039 -1.180553 0.944978 0
M  V30 2 C 3.602878 -0.484460 0.160153 0
M  V30 3 N 4.091145 0.688297 -0.500316 0
M  V30 4 C 3.508243 0.958480 -1.797205 0
M  V30 5 C 2.013567 1.140223 -1.628087 0 CFG=1
M  V30 6 C 1.739346 2.332401 -0.705559 0
M  V30 7 C 1.156494 3.498772 -1.483488 0
M  V30 8 C -0.142940 3.050891 -2.129183 0
M  V30 9 N -0.049874 1.738119 -2.698781 0
M  V30 10 C 1.323161 1.377631 -2.936927 0
M  V30 11 C 1.498175 -0.076966 -0.946063 0
M  V30 12 N 0.282268 -0.646521 -1.002700 0
M  V30 13 C 0.203617 -1.748888 -0.235333 0
M  V30 14 C -0.976276 -2.596695 -0.076755 0
M  V30 15 C -0.921357 -3.702895 0.744854 0
M  V30 16 C -2.060876 -4.501651 0.883478 0
M  V30 17 N -3.193971 -4.163758 0.202113 0
M  V30 18 C -3.230630 -3.081110 -0.595415 0
M  V30 19 C -4.456399 -2.741815 -1.313515 0
M  V30 20 C -4.478415 -1.627540 -2.128252 0
M  V30 21 C -5.607573 -1.255641 -2.832686 0
M  V30 22 C -6.703948 -2.097821 -2.646016 0
M  V30 23 N -6.705414 -3.202758 -1.847090 0
M  V30 24 C -5.572520 -3.540701 -1.165785 0
M  V30 25 N -2.129898 -2.330516 -0.714143 0
M  V30 26 C 1.411309 -1.923654 0.356741 0
M  V30 27 C 2.205131 -0.890936 -0.084506 0
M  V30 28 H 4.825966 1.241428 0.018664 0
M  V30 29 H 3.626126 0.075756 -2.478377 0
M  V30 30 H 3.981006 1.840570 -2.271397 0
M  V30 31 H 1.015352 2.050685 0.080195 0
M  V30 32 H 2.701997 2.645541 -0.259192 0
M  V30 33 H 1.856255 3.951015 -2.187209 0
M  V30 34 H 0.900078 4.261429 -0.709833 0
M  V30 35 H -0.423291 3.843386 -2.876972 0
M  V30 36 H -0.971949 3.074716 -1.365057 0
M  V30 37 H -0.615432 1.721024 -3.576327 0
M  V30 38 H 1.428421 0.496904 -3.594807 0
M  V30 39 H 1.815963 2.258162 -3.410823 0
M  V30 40 H -0.543170 -0.299352 -1.572161 0
M  V30 41 H -0.008571 -3.975838 1.294273 0
M  V30 42 H -2.032952 -5.383812 1.532567 0
M  V30 43 H -3.593183 -0.992990 -2.246098 0
M  V30 44 H -5.702512 -0.413531 -3.478608 0
M  V30 45 H -7.616976 -1.849078 -3.177998 0
M  V30 46 H -5.590284 -4.419478 -0.536773 0
M  V30 47 H 1.738038 -2.681136 1.030834 0
M  V30 END ATOM
M  V30 BEGIN BOND
M  V30 1 2 1 2
M  V30 2 1 2 3
M  V30 3 1 3 4
M  V30 4 1 5 4 CFG=3
M  V30 5 1 5 6
M  V30 6 1 6 7
M  V30 7 1 7 8
M  V30 8 1 8 9
M  V30 9 1 9 10
M  V30 10 1 5 11
M  V30 11 1 11 12
M  V30 12 1 12 13
M  V30 13 1 13 14
M  V30 14 2 14 15
M  V30 15 1 15 16
M  V30 16 2 16 17
M  V30 17 1 17 18
M  V30 18 1 18 19
M  V30 19 2 19 20
M  V30 20 1 20 21
M  V30 21 2 21 22
M  V30 22 1 22 23
M  V30 23 2 23 24
M  V30 24 2 18 25
M  V30 25 2 13 26
M  V30 26 1 26 27
M  V30 27 1 27 2
M  V30 28 1 10 5
M  V30 29 2 27 11
M  V30 30 1 25 14
M  V30 31 1 24 19
M  V30 32 1 3 28
M  V30 33 1 4 29
M  V30 34 1 4 30
M  V30 35 1 6 31
M  V30 36 1 6 32
M  V30 37 1 7 33
M  V30 38 1 7 34
M  V30 39 1 8 35
M  V30 40 1 8 36
M  V30 41 1 9 37
M  V30 42 1 10 38
M  V30 43 1 10 39
M  V30 44 1 12 40
M  V30 45 1 15 41
M  V30 46 1 16 42
M  V30 47 1 20 43
M  V30 48 1 21 44
M  V30 49 1 22 45
M  V30 50 1 24 46
M  V30 51 1 26 47
M  V30 END BOND
M  V30 END CTAB
M  END
>  <Dataset>  (206) 
ChEMBL_Kinases

>  <Ligand_Instance>  (206) 
nan

>  <PDB_ID>  (206) 
nan

>  <Standardized_SMILES>  (206) 
O=C1NC[C@]2(CCCNC2)c2[nH]c(-c3ccnc(-c4cccnc4)n3)cc21

>  <Name>  (206) 
nan

>  <Pocket>  (206) 
nan

>  <ATP_Site>  (206) 
nan

>  <Peripheral>  (206) 
nan

>  <Num_H_Atoms_ProtBoundConf>  (206) 
nan

>  <Num_Resolved_Atoms>  (206) 
nan

>  <Num_Not_Resolved_Atoms>  (206) 
nan

$$$$
CHEMBL1779488
     RDKit          3D

  0  0  0  0  0  0  0  0  0  0999 V3000
M  V30 BEGIN CTAB
M  V30 COUNTS 47 51 0 0 0
M  V30 BEGIN ATOM
M  V30 1 O 3.624046 -1.286410 4.653492 0
M  V30 2 C 3.322019 -1.382144 3.432198 0
M  V30 3 N 4.270494 -1.887201 2.470163 0
M  V30 4 C 3.698314 -2.547513 1.310054 0
M  V30 5 C 2.712469 -1.638029 0.593918 0 CFG=2
M  V30 6 C 2.082405 -2.406468 -0.512704 0
M  V30 7 C 2.144313 -1.759933 -1.858403 0
M  V30 8 C 3.347727 -0.909766 -2.107407 0
M  V30 9 N 4.307195 -0.923661 -1.000109 0
M  V30 10 C 3.507151 -0.441682 0.135665 0
M  V30 11 C 1.720861 -1.113642 1.578326 0
M  V30 12 N 0.442608 -0.683731 1.381970 0
M  V30 13 C -0.055804 -0.306040 2.556203 0
M  V30 14 C -1.407392 0.213901 2.737871 0
M  V30 15 C -1.895647 0.597623 3.969828 0
M  V30 16 C -3.196102 1.083376 4.058210 0
M  V30 17 N -3.961527 1.171262 2.931252 0
M  V30 18 C -3.469463 0.792568 1.737449 0
M  V30 19 C -4.257316 0.870304 0.501980 0
M  V30 20 C -5.554377 1.350492 0.565195 0
M  V30 21 C -6.266047 1.410640 -0.610530 0
M  V30 22 C -5.719023 1.011811 -1.805894 0
M  V30 23 N -4.458480 0.547997 -1.850337 0
M  V30 24 C -3.709660 0.468027 -0.712549 0
M  V30 25 N -2.213372 0.327075 1.674048 0
M  V30 26 C 0.892842 -0.482426 3.551453 0
M  V30 27 C 2.008669 -0.992840 2.918229 0
M  V30 28 H 5.293327 -1.750241 2.662075 0
M  V30 29 H 3.256871 -3.515895 1.611313 0
M  V30 30 H 4.527345 -2.750315 0.602010 0
M  V30 31 H 1.014015 -2.572734 -0.258931 0
M  V30 32 H 2.507693 -3.442534 -0.620872 0
M  V30 33 H 1.235936 -1.144370 -2.048792 0
M  V30 34 H 2.120938 -2.537479 -2.664004 0
M  V30 35 H 3.916690 -1.147215 -3.016351 0
M  V30 36 H 3.059345 0.177932 -2.195330 0
M  V30 37 H 4.979571 -0.149337 -1.186975 0
M  V30 38 H 4.180848 -0.109783 0.945760 0
M  V30 39 H 2.861747 0.394440 -0.203436 0
M  V30 40 H -0.035466 -0.669973 0.433013 0
M  V30 41 H -1.253514 0.510437 4.835042 0
M  V30 42 H -3.568403 1.382095 5.034105 0
M  V30 43 H -6.034142 1.676659 1.472899 0
M  V30 44 H -7.290513 1.771110 -0.672490 0
M  V30 45 H -6.175988 1.012426 -2.786992 0
M  V30 46 H -2.694417 0.098611 -0.723733 0
M  V30 47 H 0.771302 -0.261694 4.603712 0
M  V30 END ATOM
M  V30 BEGIN BOND
M  V30 1 2 1 2
M  V30 2 1 2 3
M  V30 3 1 3 4
M  V30 4 1 5 4 CFG=1
M  V30 5 1 5 6
M  V30 6 1 6 7
M  V30 7 1 7 8
M  V30 8 1 8 9
M  V30 9 1 9 10
M  V30 10 1 5 11
M  V30 11 1 11 12
M  V30 12 1 12 13
M  V30 13 1 13 14
M  V30 14 2 14 15
M  V30 15 1 15 16
M  V30 16 2 16 17
M  V30 17 1 17 18
M  V30 18 1 18 19
M  V30 19 2 19 20
M  V30 20 1 20 21
M  V30 21 2 21 22
M  V30 22 1 22 23
M  V30 23 2 23 24
M  V30 24 2 18 25
M  V30 25 2 13 26
M  V30 26 1 26 27
M  V30 27 1 27 2
M  V30 28 1 10 5
M  V30 29 2 27 11
M  V30 30 1 25 14
M  V30 31 1 24 19
M  V30 32 1 3 28
M  V30 33 1 4 29
M  V30 34 1 4 30
M  V30 35 1 6 31
M  V30 36 1 6 32
M  V30 37 1 7 33
M  V30 38 1 7 34
M  V30 39 1 8 35
M  V30 40 1 8 36
M  V30 41 1 9 37
M  V30 42 1 10 38
M  V30 43 1 10 39
M  V30 44 1 12 40
M  V30 45 1 15 41
M  V30 46 1 16 42
M  V30 47 1 20 43
M  V30 48 1 21 44
M  V30 49 1 22 45
M  V30 50 1 24 46
M  V30 51 1 26 47
M  V30 END BOND
M  V30 END CTAB
M  END
>  <Dataset>  (207) 
ChEMBL_Kinases

>  <Ligand_Instance>  (207) 
nan

>  <PDB_ID>  (207) 
nan

>  <Standardized_SMILES>  (207) 
O=C1NC[C@@]2(CCCNC2)c2[nH]c(-c3ccnc(-c4cccnc4)n3)cc21

>  <Name>  (207) 
nan

>  <Pocket>  (207) 
nan

>  <ATP_Site>  (207) 
nan

>  <Peripheral>  (207) 
nan

>  <Num_H_Atoms_ProtBoundConf>  (207) 
nan

>  <Num_Resolved_Atoms>  (207) 
nan

>  <Num_Not_Resolved_Atoms>  (207) 
nan

$$$$
CHEMBL1779487
     RDKit          3D

  0  0  0  0  0  0  0  0  0  0999 V3000
M  V30 BEGIN CTAB
M  V30 COUNTS 47 51 0 0 0
M  V30 BEGIN ATOM
M  V30 1 O 3.837954 -2.050869 3.901573 0
M  V30 2 C 3.482337 -1.760032 2.720648 0
M  V30 3 N 4.413312 -1.802259 1.637173 0
M  V30 4 C 3.814594 -2.074818 0.327539 0
M  V30 5 C 2.694718 -1.098503 0.004185 0
M  V30 6 C 2.112850 -1.527582 -1.310237 0
M  V30 7 C 2.494942 -0.637950 -2.458655 0
M  V30 8 C 3.857456 -0.038826 -2.383542 0
M  V30 9 N 4.469450 -0.019708 -1.093898 0
M  V30 10 C 3.394840 0.257802 -0.128821 0
M  V30 11 C 1.705248 -1.045618 1.109287 0
M  V30 12 N 0.394570 -0.733121 1.165669 0
M  V30 13 C -0.044370 -0.843471 2.432758 0
M  V30 14 C -1.404576 -0.589838 2.901546 0
M  V30 15 C -1.718990 -0.741040 4.228071 0
M  V30 16 C -3.011746 -0.498270 4.663676 0
M  V30 17 N -3.945546 -0.112272 3.755486 0
M  V30 18 C -3.638320 0.036379 2.454028 0
M  V30 19 C -4.688531 0.453965 1.528675 0
M  V30 20 C -4.424138 0.620566 0.184245 0
M  V30 21 C -5.517927 1.022098 -0.585661 0
M  V30 22 C -6.787927 1.244680 -0.065304 0
M  V30 23 N -6.958890 1.058768 1.257879 0
M  V30 24 C -5.941962 0.669788 2.064616 0
M  V30 25 N -2.371854 -0.210220 2.078170 0
M  V30 26 C 1.017972 -1.240137 3.219449 0
M  V30 27 C 2.105862 -1.365562 2.394979 0
M  V30 28 H 5.428501 -1.642086 1.836219 0
M  V30 29 H 3.444318 -3.118209 0.293139 0
M  V30 30 H 4.625171 -1.935320 -0.416815 0
M  V30 31 H 1.003707 -1.473747 -1.210145 0
M  V30 32 H 2.338617 -2.599520 -1.539435 0
M  V30 33 H 1.701952 0.148502 -2.613048 0
M  V30 34 H 2.453970 -1.267087 -3.376834 0
M  V30 35 H 4.563649 -0.487187 -3.133490 0
M  V30 36 H 3.779238 1.034572 -2.713095 0
M  V30 37 H 5.212164 0.707675 -1.075032 0
M  V30 38 H 2.758994 1.034954 -0.546674 0
M  V30 39 H 3.857575 0.508285 0.831983 0
M  V30 40 H -0.141039 -0.452792 0.302646 0
M  V30 41 H -0.973508 -1.044455 4.925574 0
M  V30 42 H -3.206847 -0.631341 5.714652 0
M  V30 43 H -3.455246 0.454498 -0.234479 0
M  V30 44 H -5.302705 1.152878 -1.652002 0
M  V30 45 H -7.598845 1.552423 -0.694463 0
M  V30 46 H -6.194989 0.550237 3.119674 0
M  V30 47 H 0.954081 -1.410503 4.299686 0
M  V30 END ATOM
M  V30 BEGIN BOND
M  V30 1 2 1 2
M  V30 2 1 2 3
M  V30 3 1 3 4
M  V30 4 1 4 5
M  V30 5 1 5 6
M  V30 6 1 6 7
M  V30 7 1 7 8
M  V30 8 1 8 9
M  V30 9 1 9 10
M  V30 10 1 5 11
M  V30 11 1 11 12
M  V30 12 1 12 13
M  V30 13 1 13 14
M  V30 14 2 14 15
M  V30 15 1 15 16
M  V30 16 2 16 17
M  V30 17 1 17 18
M  V30 18 1 18 19
M  V30 19 2 19 20
M  V30 20 1 20 21
M  V30 21 2 21 22
M  V30 22 1 22 23
M  V30 23 2 23 24
M  V30 24 2 18 25
M  V30 25 2 13 26
M  V30 26 1 26 27
M  V30 27 1 27 2
M  V30 28 1 10 5
M  V30 29 2 27 11
M  V30 30 1 25 14
M  V30 31 1 24 19
M  V30 32 1 3 28
M  V30 33 1 4 29
M  V30 34 1 4 30
M  V30 35 1 6 31
M  V30 36 1 6 32
M  V30 37 1 7 33
M  V30 38 1 7 34
M  V30 39 1 8 35
M  V30 40 1 8 36
M  V30 41 1 9 37
M  V30 42 1 10 38
M  V30 43 1 10 39
M  V30 44 1 12 40
M  V30 45 1 15 41
M  V30 46 1 16 42
M  V30 47 1 20 43
M  V30 48 1 21 44
M  V30 49 1 22 45
M  V30 50 1 24 46
M  V30 51 1 26 47
M  V30 END BOND
M  V30 END CTAB
M  END
>  <Dataset>  (208) 
ChEMBL_Kinases

>  <Ligand_Instance>  (208) 
nan

>  <PDB_ID>  (208) 
nan

>  <Standardized_SMILES>  (208) 
O=C1NCC2(CCCNC2)c2[nH]c(-c3ccnc(-c4cccnc4)n3)cc21

>  <Name>  (208) 
nan

>  <Pocket>  (208) 
nan

>  <ATP_Site>  (208) 
nan

>  <Peripheral>  (208) 
nan

>  <Num_H_Atoms_ProtBoundConf>  (208) 
nan

>  <Num_Resolved_Atoms>  (208) 
nan

>  <Num_Not_Resolved_Atoms>  (208) 
nan

$$$$
CHEMBL1779485
     RDKit          3D

  0  0  0  0  0  0  0  0  0  0999 V3000
M  V30 BEGIN CTAB
M  V30 COUNTS 61 65 0 0 0
M  V30 BEGIN ATOM
M  V30 1 C 4.954114 1.382311 2.089301 0
M  V30 2 O 5.959996 1.994077 1.384340 0
M  V30 3 C 6.749629 1.191924 0.621923 0
M  V30 4 C 6.153717 0.505627 -0.550659 0
M  V30 5 C 5.644297 1.386195 -1.640919 0
M  V30 6 O 4.624447 2.256412 -1.366207 0
M  V30 7 C 3.326074 2.028327 -0.979811 0
M  V30 8 C 2.685541 3.264964 -0.818266 0
M  V30 9 C 1.342207 3.352510 -0.427225 0
M  V30 10 C 0.627472 2.192912 -0.194000 0
M  V30 11 C -0.775765 2.214934 0.214724 0
M  V30 12 N -1.482689 3.344916 0.400696 0
M  V30 13 C -2.791010 3.282862 0.782333 0
M  V30 14 C -3.435996 2.069752 0.991087 0
M  V30 15 C -2.692264 0.927515 0.794621 0
M  V30 16 C -3.255129 -0.410295 0.981072 0
M  V30 17 C -4.547528 -0.711696 1.362234 0
M  V30 18 C -4.598319 -2.109552 1.400701 0
M  V30 19 C -3.354851 -2.596469 1.047136 0
M  V30 20 N -2.555533 -1.544332 0.796718 0
M  V30 21 C -3.141397 -4.069435 1.010094 0 CFG=1
M  V30 22 C -3.233541 -4.554556 -0.420783 0
M  V30 23 C -2.073465 -4.083945 -1.248669 0
M  V30 24 C -0.740972 -4.372439 -0.596535 0
M  V30 25 N -0.697971 -3.825167 0.733267 0
M  V30 26 C -1.758952 -4.450912 1.506625 0
M  V30 27 C -4.123070 -4.805630 1.881424 0
M  V30 28 N -5.487992 -4.388759 1.697852 0
M  V30 29 C -5.735843 -2.979894 1.746272 0
M  V30 30 O -6.837260 -2.485733 2.058360 0
M  V30 31 N -1.407112 1.057502 0.418514 0
M  V30 32 C 1.301048 1.000048 -0.366122 0
M  V30 33 N 2.588507 0.928202 -0.741153 0
M  V30 34 H 4.352583 2.136239 2.649890 0
M  V30 35 H 4.284833 0.850280 1.407854 0
M  V30 36 H 5.377994 0.639365 2.841625 0
M  V30 37 H 7.568594 1.862126 0.215732 0
M  V30 38 H 7.315248 0.433203 1.219685 0
M  V30 39 H 6.975969 -0.111269 -1.013972 0
M  V30 40 H 5.355608 -0.227490 -0.264878 0
M  V30 41 H 5.348616 0.768929 -2.549243 0
M  V30 42 H 6.512694 2.016923 -2.023478 0
M  V30 43 H 3.092630 4.263177 -0.958073 0
M  V30 44 H 0.797171 4.260482 -0.286732 0
M  V30 45 H -3.362272 4.194893 0.932699 0
M  V30 46 H -4.467613 1.989408 1.292548 0
M  V30 47 H -5.349139 -0.017000 1.583658 0
M  V30 48 H -1.542128 -1.612430 0.502933 0
M  V30 49 H -4.155838 -4.121391 -0.851979 0
M  V30 50 H -3.241845 -5.658364 -0.365264 0
M  V30 51 H -2.145813 -2.998443 -1.453237 0
M  V30 52 H -2.082372 -4.638490 -2.206844 0
M  V30 53 H 0.017202 -3.816290 -1.200538 0
M  V30 54 H -0.457484 -5.434722 -0.632480 0
M  V30 55 H 0.191290 -4.064292 1.182420 0
M  V30 56 H -1.630042 -4.250306 2.600493 0
M  V30 57 H -1.655883 -5.542373 1.344606 0
M  V30 58 H -3.782518 -4.721724 2.946696 0
M  V30 59 H -4.069446 -5.884175 1.628436 0
M  V30 60 H -6.329818 -5.013187 1.530526 0
M  V30 61 H 0.823574 0.044128 -0.206596 0
M  V30 END ATOM
M  V30 BEGIN BOND
M  V30 1 1 1 2
M  V30 2 1 2 3
M  V30 3 1 3 4
M  V30 4 1 4 5
M  V30 5 1 5 6
M  V30 6 1 6 7
M  V30 7 2 7 8
M  V30 8 1 8 9
M  V30 9 2 9 10
M  V30 10 1 10 11
M  V30 11 2 11 12
M  V30 12 1 12 13
M  V30 13 2 13 14
M  V30 14 1 14 15
M  V30 15 1 15 16
M  V30 16 2 16 17
M  V30 17 1 17 18
M  V30 18 2 18 19
M  V30 19 1 19 20
M  V30 20 1 19 21
M  V30 21 1 21 22 CFG=3
M  V30 22 1 22 23
M  V30 23 1 23 24
M  V30 24 1 24 25
M  V30 25 1 25 26
M  V30 26 1 21 27
M  V30 27 1 27 28
M  V30 28 1 28 29
M  V30 29 2 29 30
M  V30 30 2 15 31
M  V30 31 1 10 32
M  V30 32 2 32 33
M  V30 33 1 33 7
M  V30 34 1 31 11
M  V30 35 1 20 16
M  V30 36 1 26 21
M  V30 37 1 29 18
M  V30 38 1 1 34
M  V30 39 1 1 35
M  V30 40 1 1 36
M  V30 41 1 3 37
M  V30 42 1 3 38
M  V30 43 1 4 39
M  V30 44 1 4 40
M  V30 45 1 5 41
M  V30 46 1 5 42
M  V30 47 1 8 43
M  V30 48 1 9 44
M  V30 49 1 13 45
M  V30 50 1 14 46
M  V30 51 1 17 47
M  V30 52 1 20 48
M  V30 53 1 22 49
M  V30 54 1 22 50
M  V30 55 1 23 51
M  V30 56 1 23 52
M  V30 57 1 24 53
M  V30 58 1 24 54
M  V30 59 1 25 55
M  V30 60 1 26 56
M  V30 61 1 26 57
M  V30 62 1 27 58
M  V30 63 1 27 59
M  V30 64 1 28 60
M  V30 65 1 32 61
M  V30 END BOND
M  V30 END CTAB
M  END
>  <Dataset>  (209) 
ChEMBL_Kinases

>  <Ligand_Instance>  (209) 
nan

>  <PDB_ID>  (209) 
nan

>  <Standardized_SMILES>  (209) 
COCCCOc1ccc(-c2nccc(-c3cc4c([nH]3)[C@]3(CCCNC3)CNC4=O)n2)cn1

>  <Name>  (209) 
nan

>  <Pocket>  (209) 
nan

>  <ATP_Site>  (209) 
nan

>  <Peripheral>  (209) 
nan

>  <Num_H_Atoms_ProtBoundConf>  (209) 
nan

>  <Num_Resolved_Atoms>  (209) 
nan

>  <Num_Not_Resolved_Atoms>  (209) 
nan

$$$$
CHEMBL1779375
     RDKit          3D

  0  0  0  0  0  0  0  0  0  0999 V3000
M  V30 BEGIN CTAB
M  V30 COUNTS 51 55 0 0 0
M  V30 BEGIN ATOM
M  V30 1 C 2.309593 -4.826694 4.215012 0
M  V30 2 O 3.550372 -4.505519 4.816364 0
M  V30 3 C 4.118683 -3.277191 4.503026 0
M  V30 4 C 5.339889 -2.858603 5.039077 0
M  V30 5 N 5.890082 -1.659662 4.730422 0
M  V30 6 C 5.262271 -0.806307 3.872986 0
M  V30 7 C 4.053706 -1.151883 3.305083 0
M  V30 8 C 3.365917 -0.251273 2.384311 0
M  V30 9 N 3.888903 0.941678 2.061951 0
M  V30 10 C 3.210319 1.749876 1.197136 0
M  V30 11 C 1.990874 1.332089 0.661483 0
M  V30 12 C 1.472616 0.099625 1.008321 0
M  V30 13 C 0.189380 -0.327804 0.437992 0
M  V30 14 C -0.376304 -1.560182 0.755183 0
M  V30 15 C -1.546748 -1.595084 0.041699 0
M  V30 16 C -1.690416 -0.430887 -0.682300 0
M  V30 17 N -0.612749 0.328527 -0.421472 0
M  V30 18 C -2.826122 -0.093742 -1.576840 0 CFG=2
M  V30 19 C -2.332655 0.552515 -2.819129 0
M  V30 20 C -2.234572 2.028686 -2.823502 0
M  V30 21 C -3.142098 2.769719 -1.902899 0
M  V30 22 N -3.419996 2.122940 -0.653890 0
M  V30 23 C -3.788827 0.755122 -0.766254 0
M  V30 24 C -3.620500 -1.318419 -1.961637 0
M  V30 25 N -3.716411 -2.317003 -0.922786 0
M  V30 26 C -2.597945 -2.599935 -0.068796 0
M  V30 27 O -2.566565 -3.702968 0.551629 0
M  V30 28 N 2.190010 -0.644348 1.862452 0
M  V30 29 C 3.522049 -2.380491 3.641491 0
M  V30 30 H 1.620246 -3.966113 4.391689 0
M  V30 31 H 2.452003 -4.847198 3.097991 0
M  V30 32 H 1.895550 -5.774046 4.591781 0
M  V30 33 H 5.860410 -3.515798 5.722562 0
M  V30 34 H 5.667798 0.161286 3.599818 0
M  V30 35 H 3.677416 2.703893 0.969930 0
M  V30 36 H 1.494338 2.006623 -0.016625 0
M  V30 37 H -0.000643 -2.325868 1.407320 0
M  V30 38 H -0.319917 1.275296 -0.753854 0
M  V30 39 H -1.286368 0.161680 -2.990403 0
M  V30 40 H -2.889606 0.172508 -3.719708 0
M  V30 41 H -2.491585 2.386742 -3.853149 0
M  V30 42 H -1.173256 2.393991 -2.697775 0
M  V30 43 H -2.725615 3.771154 -1.694581 0
M  V30 44 H -4.137019 2.926918 -2.403223 0
M  V30 45 H -2.782248 2.355033 0.122106 0
M  V30 46 H -3.806474 0.312523 0.250745 0
M  V30 47 H -4.832232 0.698163 -1.143820 0
M  V30 48 H -3.182386 -1.826998 -2.849365 0
M  V30 49 H -4.667678 -1.070642 -2.234892 0
M  V30 50 H -4.580065 -2.875543 -0.737421 0
M  V30 51 H 2.572276 -2.623092 3.179424 0
M  V30 END ATOM
M  V30 BEGIN BOND
M  V30 1 1 1 2
M  V30 2 1 2 3
M  V30 3 2 3 4
M  V30 4 1 4 5
M  V30 5 2 5 6
M  V30 6 1 6 7
M  V30 7 1 7 8
M  V30 8 2 8 9
M  V30 9 1 9 10
M  V30 10 2 10 11
M  V30 11 1 11 12
M  V30 12 1 12 13
M  V30 13 2 13 14
M  V30 14 1 14 15
M  V30 15 2 15 16
M  V30 16 1 16 17
M  V30 17 1 16 18
M  V30 18 1 18 19 CFG=3
M  V30 19 1 19 20
M  V30 20 1 20 21
M  V30 21 1 21 22
M  V30 22 1 22 23
M  V30 23 1 18 24
M  V30 24 1 24 25
M  V30 25 1 25 26
M  V30 26 2 26 27
M  V30 27 2 12 28
M  V30 28 2 7 29
M  V30 29 1 29 3
M  V30 30 1 28 8
M  V30 31 1 17 13
M  V30 32 1 23 18
M  V30 33 1 26 15
M  V30 34 1 1 30
M  V30 35 1 1 31
M  V30 36 1 1 32
M  V30 37 1 4 33
M  V30 38 1 6 34
M  V30 39 1 10 35
M  V30 40 1 11 36
M  V30 41 1 14 37
M  V30 42 1 17 38
M  V30 43 1 19 39
M  V30 44 1 19 40
M  V30 45 1 20 41
M  V30 46 1 20 42
M  V30 47 1 21 43
M  V30 48 1 21 44
M  V30 49 1 22 45
M  V30 50 1 23 46
M  V30 51 1 23 47
M  V30 52 1 24 48
M  V30 53 1 24 49
M  V30 54 1 25 50
M  V30 55 1 29 51
M  V30 END BOND
M  V30 END CTAB
M  END
>  <Dataset>  (210) 
ChEMBL_Kinases

>  <Ligand_Instance>  (210) 
nan

>  <PDB_ID>  (210) 
nan

>  <Standardized_SMILES>  (210) 
COc1cncc(-c2nccc(-c3cc4c([nH]3)[C@@]3(CCCNC3)CNC4=O)n2)c1

>  <Name>  (210) 
nan

>  <Pocket>  (210) 
nan

>  <ATP_Site>  (210) 
nan

>  <Peripheral>  (210) 
nan

>  <Num_H_Atoms_ProtBoundConf>  (210) 
nan

>  <Num_Resolved_Atoms>  (210) 
nan

>  <Num_Not_Resolved_Atoms>  (210) 
nan

$$$$
CHEMBL1773736
     RDKit          3D

  0  0  0  0  0  0  0  0  0  0999 V3000
M  V30 BEGIN CTAB
M  V30 COUNTS 45 48 0 0 0
M  V30 BEGIN ATOM
M  V30 1 C 6.875448 -4.088684 3.849415 0
M  V30 2 C 5.717218 -3.360833 3.275771 0
M  V30 3 O 4.778293 -3.424550 4.106946 0
M  V30 4 N 5.836265 -2.762976 2.001409 0
M  V30 5 C 4.687516 -2.021538 1.395062 0
M  V30 6 N 4.444181 -0.933568 1.496205 0
M  V30 7 C 3.488164 -0.166783 1.028472 0
M  V30 8 C 3.229803 1.179725 1.183662 0
M  V30 9 C 2.135883 1.751916 0.573487 0
M  V30 10 C 1.230829 1.075703 -0.214995 0
M  V30 11 C 0.067948 1.649893 -0.871504 0
M  V30 12 C 0.111088 2.967907 -1.307981 0
M  V30 13 N -0.982814 3.467599 -1.908889 0
M  V30 14 C -2.100093 2.757509 -2.102985 0
M  V30 15 Cl -3.473555 3.530782 -2.907438 0
M  V30 16 C -2.228125 1.423425 -1.694376 0
M  V30 17 N -3.408331 0.669014 -1.900184 0
M  V30 18 S -3.786310 -0.876766 -1.298636 0
M  V30 19 O -5.127460 -1.318442 -1.809777 0
M  V30 20 O -2.764624 -1.841181 -1.851788 0
M  V30 21 C -3.845789 -0.968595 0.441237 0
M  V30 22 C -5.049185 -0.626445 1.042779 0
M  V30 23 C -5.281057 -0.646069 2.406444 0
M  V30 24 C -4.240011 -1.035057 3.243047 0
M  V30 25 C -3.026369 -1.382193 2.664018 0
M  V30 26 F -2.011018 -1.761859 3.470936 0
M  V30 27 C -2.854637 -1.343813 1.304294 0
M  V30 28 C -1.101123 0.954472 -1.090924 0
M  V30 29 C 1.462165 -0.269744 -0.388462 0
M  V30 30 C 2.601960 -0.830692 0.255801 0
M  V30 31 S 3.217499 -2.528800 0.260046 0
M  V30 32 H 6.643441 -5.129946 4.125637 0
M  V30 33 H 7.768842 -4.100502 3.194972 0
M  V30 34 H 7.176808 -3.573745 4.790142 0
M  V30 35 H 6.725785 -2.836786 1.478824 0
M  V30 36 H 3.822048 1.866683 1.760297 0
M  V30 37 H 1.906116 2.825904 0.680745 0
M  V30 38 H 1.015039 3.538518 -1.149404 0
M  V30 39 H -4.126903 1.158014 -2.511644 0
M  V30 40 H -5.909129 -0.310373 0.433728 0
M  V30 41 H -6.255821 -0.362737 2.808076 0
M  V30 42 H -4.449839 -1.039638 4.287506 0
M  V30 43 H -1.920071 -1.613738 0.849900 0
M  V30 44 H -1.072266 -0.065088 -0.732678 0
M  V30 45 H 0.901025 -0.968929 -0.947049 0
M  V30 END ATOM
M  V30 BEGIN BOND
M  V30 1 1 1 2
M  V30 2 2 2 3
M  V30 3 1 2 4
M  V30 4 1 4 5
M  V30 5 2 5 6
M  V30 6 1 6 7
M  V30 7 2 7 8
M  V30 8 1 8 9
M  V30 9 2 9 10
M  V30 10 1 10 11
M  V30 11 2 11 12
M  V30 12 1 12 13
M  V30 13 2 13 14
M  V30 14 1 14 15
M  V30 15 1 14 16
M  V30 16 1 16 17
M  V30 17 1 17 18
M  V30 18 2 18 19
M  V30 19 2 18 20
M  V30 20 1 18 21
M  V30 21 2 21 22
M  V30 22 1 22 23
M  V30 23 2 23 24
M  V30 24 1 24 25
M  V30 25 1 25 26
M  V30 26 2 25 27
M  V30 27 2 16 28
M  V30 28 1 10 29
M  V30 29 2 29 30
M  V30 30 1 30 31
M  V30 31 1 31 5
M  V30 32 1 30 7
M  V30 33 1 28 11
M  V30 34 1 27 21
M  V30 35 1 1 32
M  V30 36 1 1 33
M  V30 37 1 1 34
M  V30 38 1 4 35
M  V30 39 1 8 36
M  V30 40 1 9 37
M  V30 41 1 12 38
M  V30 42 1 17 39
M  V30 43 1 22 40
M  V30 44 1 23 41
M  V30 45 1 24 42
M  V30 46 1 27 43
M  V30 47 1 28 44
M  V30 48 1 29 45
M  V30 END BOND
M  V30 END CTAB
M  END
>  <Dataset>  (211) 
ChEMBL_Kinases

>  <Ligand_Instance>  (211) 
nan

>  <PDB_ID>  (211) 
nan

>  <Standardized_SMILES>  (211) 
CC(=O)Nc1nc2ccc(-c3cnc(Cl)c(NS(=O)(=O)c4cccc(F)c4)c3)cc2s1

>  <Name>  (211) 
nan

>  <Pocket>  (211) 
nan

>  <ATP_Site>  (211) 
nan

>  <Peripheral>  (211) 
nan

>  <Num_H_Atoms_ProtBoundConf>  (211) 
nan

>  <Num_Resolved_Atoms>  (211) 
nan

>  <Num_Not_Resolved_Atoms>  (211) 
nan

$$$$
CHEMBL1774327
     RDKit          3D

  0  0  0  0  0  0  0  0  0  0999 V3000
M  V30 BEGIN CTAB
M  V30 COUNTS 60 64 0 0 0
M  V30 BEGIN ATOM
M  V30 1 C 2.891878 -1.604907 5.233514 0
M  V30 2 N 3.450023 -2.484519 4.225920 0
M  V30 3 C 2.460760 -2.816512 3.219305 0
M  V30 4 C 2.228372 -1.588619 2.416450 0
M  V30 5 C 2.910952 -0.472956 2.256723 0
M  V30 6 C 2.549424 0.656985 1.422818 0
M  V30 7 C 3.387538 1.746160 1.432609 0
M  V30 8 C 3.112415 2.853735 0.670477 0
M  V30 9 C 1.987137 2.876863 -0.112259 0
M  V30 10 O 1.860415 4.076440 -0.818191 0
M  V30 11 C 1.233828 5.220642 -0.318306 0
M  V30 12 F 1.885647 5.673796 0.843166 0
M  V30 13 F -0.066340 4.957877 0.018708 0
M  V30 14 F 1.230937 6.236957 -1.242811 0
M  V30 15 C 1.098221 1.797274 -0.164109 0
M  V30 16 N -0.021301 1.924234 -1.016946 0
M  V30 17 C -1.094198 1.052607 -1.341911 0
M  V30 18 N -2.095395 1.577535 -2.092945 0
M  V30 19 C -3.173407 0.911833 -2.510756 0
M  V30 20 C -3.271916 -0.408375 -2.149710 0
M  V30 21 C -2.257731 -0.944336 -1.388359 0
M  V30 22 N -1.179500 -0.260059 -0.975464 0
M  V30 23 C -2.472920 -2.343056 -1.082996 0
M  V30 24 C -3.592367 -3.006830 -1.534113 0
M  V30 25 C -3.556977 -4.321765 -1.116616 0
M  V30 26 C -4.450855 -5.457701 -1.293124 0
M  V30 27 N -5.665826 -5.288639 -2.052719 0
M  V30 28 O -4.280937 -6.623709 -0.840720 0
M  V30 29 N -2.396108 -4.428826 -0.409096 0
M  V30 30 N -1.780544 -3.265489 -0.402344 0
M  V30 31 C -0.515644 -3.042186 0.255034 0
M  V30 32 C -4.704514 -2.455496 -2.350591 0
M  V30 33 C -4.522019 -1.003056 -2.688867 0
M  V30 34 C 1.434452 0.728778 0.620462 0
M  V30 35 C 4.170655 -0.460086 3.046749 0
M  V30 36 C 4.538789 -1.846802 3.512319 0
M  V30 37 H 2.330834 -2.198132 5.998217 0
M  V30 38 H 2.229955 -0.830010 4.808375 0
M  V30 39 H 3.746167 -1.114769 5.769133 0
M  V30 40 H 1.521333 -3.194518 3.670346 0
M  V30 41 H 2.884739 -3.559904 2.524506 0
M  V30 42 H 1.310703 -1.604460 1.849153 0
M  V30 43 H 4.285357 1.733038 2.055981 0
M  V30 44 H 3.816264 3.665417 0.732050 0
M  V30 45 H -0.070709 2.854078 -1.539394 0
M  V30 46 H -3.880510 1.500622 -3.109839 0
M  V30 47 H -6.429141 -5.035917 -1.357140 0
M  V30 48 H -6.278472 -5.261706 -2.903065 0
M  V30 49 H -0.675119 -2.917945 1.325211 0
M  V30 50 H 0.113378 -3.975781 0.154589 0
M  V30 51 H 0.061284 -2.241858 -0.247944 0
M  V30 52 H -4.724995 -3.025511 -3.322890 0
M  V30 53 H -5.693760 -2.660302 -1.889441 0
M  V30 54 H -4.562191 -0.874563 -3.799327 0
M  V30 55 H -5.374239 -0.438900 -2.249345 0
M  V30 56 H 0.757631 -0.112461 0.592949 0
M  V30 57 H 4.988297 -0.140551 2.366617 0
M  V30 58 H 4.089093 0.244987 3.871401 0
M  V30 59 H 5.455650 -1.844486 4.097648 0
M  V30 60 H 4.722183 -2.479120 2.595779 0
M  V30 END ATOM
M  V30 BEGIN BOND
M  V30 1 1 1 2
M  V30 2 1 2 3
M  V30 3 1 3 4
M  V30 4 2 4 5
M  V30 5 1 5 6
M  V30 6 2 6 7
M  V30 7 1 7 8
M  V30 8 2 8 9
M  V30 9 1 9 10
M  V30 10 1 10 11
M  V30 11 1 11 12
M  V30 12 1 11 13
M  V30 13 1 11 14
M  V30 14 1 9 15
M  V30 15 1 15 16
M  V30 16 1 16 17
M  V30 17 2 17 18
M  V30 18 1 18 19
M  V30 19 2 19 20
M  V30 20 1 20 21
M  V30 21 2 21 22
M  V30 22 1 21 23
M  V30 23 2 23 24
M  V30 24 1 24 25
M  V30 25 1 25 26
M  V30 26 1 26 27
M  V30 27 2 26 28
M  V30 28 2 25 29
M  V30 29 1 29 30
M  V30 30 1 30 31
M  V30 31 1 24 32
M  V30 32 1 32 33
M  V30 33 2 15 34
M  V30 34 1 5 35
M  V30 35 1 35 36
M  V30 36 1 36 2
M  V30 37 1 34 6
M  V30 38 1 22 17
M  V30 39 1 30 23
M  V30 40 1 33 20
M  V30 41 1 1 37
M  V30 42 1 1 38
M  V30 43 1 1 39
M  V30 44 1 3 40
M  V30 45 1 3 41
M  V30 46 1 4 42
M  V30 47 1 7 43
M  V30 48 1 8 44
M  V30 49 1 16 45
M  V30 50 1 19 46
M  V30 51 1 27 47
M  V30 52 1 27 48
M  V30 53 1 31 49
M  V30 54 1 31 50
M  V30 55 1 31 51
M  V30 56 1 32 52
M  V30 57 1 32 53
M  V30 58 1 33 54
M  V30 59 1 33 55
M  V30 60 1 34 56
M  V30 61 1 35 57
M  V30 62 1 35 58
M  V30 63 1 36 59
M  V30 64 1 36 60
M  V30 END BOND
M  V30 END CTAB
M  END
>  <Dataset>  (212) 
ChEMBL_Kinases

>  <Ligand_Instance>  (212) 
nan

>  <PDB_ID>  (212) 
nan

>  <Standardized_SMILES>  (212) 
CN1CC=C(c2ccc(OC(F)(F)F)c(Nc3ncc4c(n3)-c3c(c(C(N)=O)nn3C)CC4)c2)CC1

>  <Name>  (212) 
nan

>  <Pocket>  (212) 
nan

>  <ATP_Site>  (212) 
nan

>  <Peripheral>  (212) 
nan

>  <Num_H_Atoms_ProtBoundConf>  (212) 
nan

>  <Num_Resolved_Atoms>  (212) 
nan

>  <Num_Not_Resolved_Atoms>  (212) 
nan

$$$$
CHEMBL177434
     RDKit          3D

  0  0  0  0  0  0  0  0  0  0999 V3000
M  V30 BEGIN CTAB
M  V30 COUNTS 43 45 0 0 0
M  V30 BEGIN ATOM
M  V30 1 O -1.434956 -6.437589 0.579353 0
M  V30 2 C -0.570277 -6.074951 -0.474272 0
M  V30 3 C -0.871601 -4.696136 -0.963426 0
M  V30 4 C -0.004298 -4.235572 -2.098272 0
M  V30 5 N 1.385473 -4.177172 -1.842716 0
M  V30 6 C 1.566811 -3.273779 -0.742690 0
M  V30 7 C 1.378233 -1.918513 -0.890207 0
M  V30 8 C 1.556012 -1.018047 0.154072 0
M  V30 9 C 1.312028 0.403328 -0.077571 0
M  V30 10 C 0.889088 0.928547 -1.277032 0
M  V30 11 N 0.653180 2.252218 -1.442934 0
M  V30 12 C 0.842014 3.100346 -0.378135 0
M  V30 13 C 1.271201 2.569758 0.842661 0
M  V30 14 N 1.389367 3.609510 1.798194 0
M  V30 15 C 0.474220 3.737161 2.897201 0
M  V30 16 C 0.347910 4.874578 3.699503 0
M  V30 17 C -0.530044 4.903132 4.755204 0
M  V30 18 C -1.279417 3.775315 4.994977 0
M  V30 19 C -1.203059 2.609720 4.234648 0
M  V30 20 Cl -2.183154 1.176097 4.581975 0
M  V30 21 C -0.304123 2.635585 3.185583 0
M  V30 22 N 1.494886 1.252324 0.968304 0
M  V30 23 C 1.938067 -1.476956 1.394531 0
M  V30 24 C 2.121963 -2.868232 1.508346 0
M  V30 25 N 1.945464 -3.733938 0.489889 0
M  V30 26 H -2.327284 -6.059019 0.315329 0
M  V30 27 H -0.647342 -6.845837 -1.248185 0
M  V30 28 H 0.457227 -6.176262 -0.038150 0
M  V30 29 H -1.954432 -4.635591 -1.222855 0
M  V30 30 H -0.665040 -4.003194 -0.099241 0
M  V30 31 H -0.331944 -3.192816 -2.393171 0
M  V30 32 H -0.210193 -4.836052 -3.011104 0
M  V30 33 H 2.171819 -4.668979 -2.322344 0
M  V30 34 H 1.085878 -1.642997 -1.886105 0
M  V30 35 H 0.729968 0.304623 -2.131461 0
M  V30 36 H 0.631871 4.136963 -0.607542 0
M  V30 37 H 2.188443 4.282359 1.655153 0
M  V30 38 H 0.981682 5.733982 3.440026 0
M  V30 39 H -0.604817 5.801525 5.355003 0
M  V30 40 H -1.967591 3.803275 5.829925 0
M  V30 41 H -0.263874 1.720675 2.611379 0
M  V30 42 H 2.090293 -0.830101 2.226809 0
M  V30 43 H 2.425314 -3.188669 2.518138 0
M  V30 END ATOM
M  V30 BEGIN BOND
M  V30 1 1 1 2
M  V30 2 1 2 3
M  V30 3 1 3 4
M  V30 4 1 4 5
M  V30 5 1 5 6
M  V30 6 2 6 7
M  V30 7 1 7 8
M  V30 8 1 8 9
M  V30 9 2 9 10
M  V30 10 1 10 11
M  V30 11 2 11 12
M  V30 12 1 12 13
M  V30 13 1 13 14
M  V30 14 1 14 15
M  V30 15 2 15 16
M  V30 16 1 16 17
M  V30 17 2 17 18
M  V30 18 1 18 19
M  V30 19 1 19 20
M  V30 20 2 19 21
M  V30 21 2 13 22
M  V30 22 2 8 23
M  V30 23 1 23 24
M  V30 24 2 24 25
M  V30 25 1 25 6
M  V30 26 1 22 9
M  V30 27 1 21 15
M  V30 28 1 1 26
M  V30 29 1 2 27
M  V30 30 1 2 28
M  V30 31 1 3 29
M  V30 32 1 3 30
M  V30 33 1 4 31
M  V30 34 1 4 32
M  V30 35 1 5 33
M  V30 36 1 7 34
M  V30 37 1 10 35
M  V30 38 1 12 36
M  V30 39 1 14 37
M  V30 40 1 16 38
M  V30 41 1 17 39
M  V30 42 1 18 40
M  V30 43 1 21 41
M  V30 44 1 23 42
M  V30 45 1 24 43
M  V30 END BOND
M  V30 END CTAB
M  END
>  <Dataset>  (213) 
ChEMBL_Kinases

>  <Ligand_Instance>  (213) 
nan

>  <PDB_ID>  (213) 
nan

>  <Standardized_SMILES>  (213) 
OCCCNc1cc(-c2cncc(Nc3cccc(Cl)c3)n2)ccn1

>  <Name>  (213) 
nan

>  <Pocket>  (213) 
nan

>  <ATP_Site>  (213) 
nan

>  <Peripheral>  (213) 
nan

>  <Num_H_Atoms_ProtBoundConf>  (213) 
nan

>  <Num_Resolved_Atoms>  (213) 
nan

>  <Num_Not_Resolved_Atoms>  (213) 
nan

$$$$
CHEMBL1774404
     RDKit          3D

  0  0  0  0  0  0  0  0  0  0999 V3000
M  V30 BEGIN CTAB
M  V30 COUNTS 71 75 0 0 0
M  V30 BEGIN ATOM
M  V30 1 C -0.945201 -1.051037 5.434207 0
M  V30 2 C 0.078906 -1.037607 4.333481 0
M  V30 3 O 1.237414 -1.485118 4.529831 0
M  V30 4 O -0.284583 -0.520785 3.099644 0
M  V30 5 C 0.612450 -0.466685 2.004267 0 CFG=2
M  V30 6 C 1.019072 0.961482 1.787890 0
M  V30 7 C 1.668716 1.305378 0.501882 0 CFG=1
M  V30 8 C 2.818898 2.252239 0.648262 0
M  V30 9 C 2.212581 3.612195 1.017246 0
M  V30 10 C 3.853305 1.898581 1.646488 0
M  V30 11 C 3.420233 2.474408 -0.714745 0
M  V30 12 O 4.480349 3.163954 -0.703330 0
M  V30 13 C 2.770352 1.904512 -1.913954 0
M  V30 14 C 2.046368 0.800152 -1.823407 0
M  V30 15 C 1.927411 0.171725 -0.450575 0 CFG=1
M  V30 16 C 3.172901 -0.569233 -0.262386 0
M  V30 17 C 0.647295 -0.577465 -0.495670 0 CFG=1
M  V30 18 C 0.436198 -1.551132 -1.584447 0
M  V30 19 C -1.048845 -1.626532 -1.875470 0
M  V30 20 C -1.930550 -1.341021 -0.732006 0 CFG=2
M  V30 21 C -2.537960 0.046399 -0.692508 0
M  V30 22 C -1.226976 -1.512837 0.606054 0
M  V30 23 C -2.077767 -1.950398 1.521939 0
M  V30 24 C -3.417893 -2.105369 0.862381 0
M  V30 25 C -2.993287 -2.375542 -0.595495 0 CFG=1
M  V30 26 C -4.151710 -2.355141 -1.483046 0 CFG=1
M  V30 27 C -3.958262 -2.490873 -2.941636 0
M  V30 28 O -3.528281 -3.822135 -3.097716 0
M  V30 29 C -4.246202 -4.558304 -2.163924 0
M  V30 30 O -4.371410 -5.811511 -2.034725 0
M  V30 31 C -4.938824 -3.646372 -1.214623 0
M  V30 32 C 0.233119 -1.227026 0.813012 0 CFG=2
M  V30 33 C 0.830366 -2.642210 0.925825 0
M  V30 34 H -1.039273 -0.053231 5.903764 0
M  V30 35 H -0.651371 -1.796947 6.181413 0
M  V30 36 H -1.881404 -1.429607 4.974510 0
M  V30 37 H 1.548218 -0.925941 2.451009 0
M  V30 38 H 0.101700 1.564235 2.014163 0
M  V30 39 H 1.733451 1.309052 2.593748 0
M  V30 40 H 0.886407 1.912848 -0.055454 0
M  V30 41 H 1.955030 3.646552 2.100157 0
M  V30 42 H 2.860296 4.447126 0.700692 0
M  V30 43 H 1.229646 3.735300 0.477691 0
M  V30 44 H 3.955169 2.709801 2.426214 0
M  V30 45 H 4.860960 1.935982 1.136846 0
M  V30 46 H 3.710876 0.985301 2.220268 0
M  V30 47 H 2.985557 2.516781 -2.804275 0
M  V30 48 H 1.672147 0.576936 -2.832181 0
M  V30 49 H 4.025393 0.030210 -0.700391 0
M  V30 50 H 3.137103 -1.468288 -0.911389 0
M  V30 51 H 3.474421 -0.881594 0.735071 0
M  V30 52 H -0.107748 0.244458 -0.693119 0
M  V30 53 H 0.877147 -2.528703 -1.302045 0
M  V30 54 H 0.919824 -1.296368 -2.557630 0
M  V30 55 H -1.200983 -2.650587 -2.268175 0
M  V30 56 H -1.297930 -0.928297 -2.716429 0
M  V30 57 H -3.664493 0.028367 -0.694427 0
M  V30 58 H -2.291097 0.615224 0.228982 0
M  V30 59 H -2.285998 0.618802 -1.621253 0
M  V30 60 H -1.908551 -2.175959 2.569227 0
M  V30 61 H -4.027354 -1.203206 0.888286 0
M  V30 62 H -3.896065 -2.990020 1.297512 0
M  V30 63 H -2.510872 -3.367466 -0.643560 0
M  V30 64 H -4.889655 -1.549679 -1.323400 0
M  V30 65 H -3.407223 -1.730708 -3.474211 0
M  V30 66 H -4.995569 -2.474169 -3.399739 0
M  V30 67 H -5.985974 -3.498705 -1.598959 0
M  V30 68 H -4.913096 -3.963517 -0.176076 0
M  V30 69 H 0.715121 -2.881928 2.025774 0
M  V30 70 H 0.236440 -3.400570 0.421041 0
M  V30 71 H 1.898841 -2.677607 0.743198 0
M  V30 END ATOM
M  V30 BEGIN BOND
M  V30 1 1 1 2
M  V30 2 2 2 3
M  V30 3 1 2 4
M  V30 4 1 4 5
M  V30 5 1 5 6
M  V30 6 1 6 7
M  V30 7 1 7 8
M  V30 8 1 8 9
M  V30 9 1 8 10
M  V30 10 1 8 11
M  V30 11 2 11 12
M  V30 12 1 11 13
M  V30 13 2 13 14
M  V30 14 1 14 15
M  V30 15 1 15 16 CFG=1
M  V30 16 1 15 17
M  V30 17 1 17 18
M  V30 18 1 18 19
M  V30 19 1 19 20
M  V30 20 1 20 21 CFG=3
M  V30 21 1 20 22
M  V30 22 2 22 23
M  V30 23 1 23 24
M  V30 24 1 24 25
M  V30 25 1 25 26
M  V30 26 1 26 27
M  V30 27 1 27 28
M  V30 28 1 28 29
M  V30 29 2 29 30
M  V30 30 1 29 31
M  V30 31 1 22 32
M  V30 32 1 32 33 CFG=1
M  V30 33 1 32 5
M  V30 34 1 15 7
M  V30 35 1 32 17
M  V30 36 1 25 20
M  V30 37 1 31 26
M  V30 38 1 1 34
M  V30 39 1 1 35
M  V30 40 1 1 36
M  V30 41 1 5 37 CFG=1
M  V30 42 1 6 38
M  V30 43 1 6 39
M  V30 44 1 7 40 CFG=3
M  V30 45 1 9 41
M  V30 46 1 9 42
M  V30 47 1 9 43
M  V30 48 1 10 44
M  V30 49 1 10 45
M  V30 50 1 10 46
M  V30 51 1 13 47
M  V30 52 1 14 48
M  V30 53 1 16 49
M  V30 54 1 16 50
M  V30 55 1 16 51
M  V30 56 1 17 52 CFG=3
M  V30 57 1 18 53
M  V30 58 1 18 54
M  V30 59 1 19 55
M  V30 60 1 19 56
M  V30 61 1 21 57
M  V30 62 1 21 58
M  V30 63 1 21 59
M  V30 64 1 23 60
M  V30 65 1 24 61
M  V30 66 1 24 62
M  V30 67 1 25 63 CFG=1
M  V30 68 1 26 64 CFG=3
M  V30 69 1 27 65
M  V30 70 1 27 66
M  V30 71 1 31 67
M  V30 72 1 31 68
M  V30 73 1 33 69
M  V30 74 1 33 70
M  V30 75 1 33 71
M  V30 END BOND
M  V30 END CTAB
M  END
>  <Dataset>  (214) 
ChEMBL_Kinases

>  <Ligand_Instance>  (214) 
nan

>  <PDB_ID>  (214) 
nan

>  <Standardized_SMILES>  (214) 
CC(=O)O[C@@H]1C[C@H]2C(C)(C)C(=O)C=C[C@]2(C)[C@H]2CC[C@]3(C)C(=CC[C@H]3[C@H]3COC(=O)C3)[C@@]21C

>  <Name>  (214) 
nan

>  <Pocket>  (214) 
nan

>  <ATP_Site>  (214) 
nan

>  <Peripheral>  (214) 
nan

>  <Num_H_Atoms_ProtBoundConf>  (214) 
nan

>  <Num_Resolved_Atoms>  (214) 
nan

>  <Num_Not_Resolved_Atoms>  (214) 
nan

$$$$
CHEMBL1775068
     RDKit          3D

  0  0  0  0  0  0  0  0  0  0999 V3000
M  V30 BEGIN CTAB
M  V30 COUNTS 44 47 0 0 0
M  V30 BEGIN ATOM
M  V30 1 O -1.533437 -3.206139 -0.159684 0
M  V30 2 C -1.245156 -2.932485 -1.346383 0
M  V30 3 C -0.589236 -3.783063 -2.327365 0
M  V30 4 C -0.141049 -5.076892 -2.160074 0
M  V30 5 C 0.452915 -5.681863 -3.243052 0
M  V30 6 C 0.568798 -4.975890 -4.423140 0
M  V30 7 C 0.105628 -3.692824 -4.532501 0
M  V30 8 C -0.500933 -3.031415 -3.477811 0
M  V30 9 C -1.103879 -1.711858 -3.207536 0
M  V30 10 O -1.092975 -0.907706 -4.186539 0
M  V30 11 N -1.573050 -1.655503 -1.855577 0
M  V30 12 C -2.159617 -0.406731 -1.497032 0
M  V30 13 N -1.297367 0.605986 -1.003142 0
M  V30 14 C -0.503290 0.869210 0.140486 0
M  V30 15 C 0.301246 2.000712 0.326711 0
M  V30 16 C 1.020912 2.163944 1.481667 0
M  V30 17 C 0.999915 1.248426 2.508414 0
M  V30 18 N 1.761582 1.460040 3.689289 0
M  V30 19 C 1.887831 0.592793 4.839492 0
M  V30 20 C 1.327776 1.303879 6.057457 0
M  V30 21 O 2.159913 2.384862 6.350829 0
M  V30 22 C 2.179768 3.272338 5.301407 0
M  V30 23 C 2.581635 2.606861 3.993127 0
M  V30 24 C 0.226153 0.119891 2.376674 0
M  V30 25 C -0.485476 -0.012985 1.201766 0
M  V30 26 H -0.249959 -5.598018 -1.218373 0
M  V30 27 H 0.819825 -6.695947 -3.159143 0
M  V30 28 H 1.037702 -5.434779 -5.300085 0
M  V30 29 H 0.200700 -3.143998 -5.464980 0
M  V30 30 H -2.869916 -0.660835 -0.631672 0
M  V30 31 H -2.850064 0.004112 -2.253295 0
M  V30 32 H -1.203093 1.413260 -1.676535 0
M  V30 33 H 0.316880 2.718389 -0.479824 0
M  V30 34 H 1.597106 3.077234 1.493637 0
M  V30 35 H 1.287479 -0.318094 4.684008 0
M  V30 36 H 2.945639 0.318739 5.047812 0
M  V30 37 H 1.344347 0.598306 6.895869 0
M  V30 38 H 0.289766 1.584807 5.850063 0
M  V30 39 H 2.966857 4.048437 5.499790 0
M  V30 40 H 1.180215 3.768946 5.191233 0
M  V30 41 H 3.641542 2.247284 4.148041 0
M  V30 42 H 2.563193 3.394273 3.202615 0
M  V30 43 H 0.132853 -0.657028 3.107910 0
M  V30 44 H -1.101793 -0.889495 1.093036 0
M  V30 END ATOM
M  V30 BEGIN BOND
M  V30 1 2 1 2
M  V30 2 1 2 3
M  V30 3 2 3 4
M  V30 4 1 4 5
M  V30 5 2 5 6
M  V30 6 1 6 7
M  V30 7 2 7 8
M  V30 8 1 8 9
M  V30 9 2 9 10
M  V30 10 1 9 11
M  V30 11 1 11 12
M  V30 12 1 12 13
M  V30 13 1 13 14
M  V30 14 2 14 15
M  V30 15 1 15 16
M  V30 16 2 16 17
M  V30 17 1 17 18
M  V30 18 1 18 19
M  V30 19 1 19 20
M  V30 20 1 20 21
M  V30 21 1 21 22
M  V30 22 1 22 23
M  V30 23 1 17 24
M  V30 24 2 24 25
M  V30 25 1 11 2
M  V30 26 1 25 14
M  V30 27 1 8 3
M  V30 28 1 23 18
M  V30 29 1 4 26
M  V30 30 1 5 27
M  V30 31 1 6 28
M  V30 32 1 7 29
M  V30 33 1 12 30
M  V30 34 1 12 31
M  V30 35 1 13 32
M  V30 36 1 15 33
M  V30 37 1 16 34
M  V30 38 1 19 35
M  V30 39 1 19 36
M  V30 40 1 20 37
M  V30 41 1 20 38
M  V30 42 1 22 39
M  V30 43 1 22 40
M  V30 44 1 23 41
M  V30 45 1 23 42
M  V30 46 1 24 43
M  V30 47 1 25 44
M  V30 END BOND
M  V30 END CTAB
M  END
>  <Dataset>  (215) 
ChEMBL_Kinases

>  <Ligand_Instance>  (215) 
nan

>  <PDB_ID>  (215) 
nan

>  <Standardized_SMILES>  (215) 
O=C1c2ccccc2C(=O)N1CNc1ccc(N2CCOCC2)cc1

>  <Name>  (215) 
nan

>  <Pocket>  (215) 
nan

>  <ATP_Site>  (215) 
nan

>  <Peripheral>  (215) 
nan

>  <Num_H_Atoms_ProtBoundConf>  (215) 
nan

>  <Num_Resolved_Atoms>  (215) 
nan

>  <Num_Not_Resolved_Atoms>  (215) 
nan

$$$$
CHEMBL17784
     RDKit          3D

  0  0  0  0  0  0  0  0  0  0999 V3000
M  V30 BEGIN CTAB
M  V30 COUNTS 28 30 0 0 0
M  V30 BEGIN ATOM
M  V30 1 C 0.832274 -3.659938 5.291819 0
M  V30 2 C -0.022255 -2.582563 5.403370 0
M  V30 3 C -0.147198 -1.818505 4.237219 0
M  V30 4 C 0.549056 -2.157117 3.095116 0
M  V30 5 C 0.403522 -1.345844 1.890210 0
M  V30 6 N 1.080179 -1.671899 0.774303 0
M  V30 7 N 0.949607 -0.928472 -0.337045 0
M  V30 8 C 0.128534 0.155134 -0.324183 0
M  V30 9 C -0.014664 0.963996 -1.530398 0
M  V30 10 C 0.680060 0.627968 -2.673580 0
M  V30 11 C 0.639852 1.299128 -3.877939 0
M  V30 12 C -0.190763 2.399912 -3.873908 0
M  V30 13 C -0.928365 2.821079 -2.785720 0
M  V30 14 C -0.817646 2.081280 -1.630062 0
M  V30 15 N -0.550096 0.485546 0.788336 0
M  V30 16 N -0.408791 -0.268071 1.891763 0
M  V30 17 C 1.386033 -3.254145 3.067314 0
M  V30 18 C 1.562097 -4.065948 4.194216 0
M  V30 19 H 0.952809 -4.281325 6.191226 0
M  V30 20 H -0.525332 -2.395572 6.341021 0
M  V30 21 H -0.813646 -0.962134 4.292777 0
M  V30 22 H 1.323687 -0.258102 -2.612198 0
M  V30 23 H 1.211220 0.977793 -4.730468 0
M  V30 24 H -0.271682 2.981119 -4.797510 0
M  V30 25 H -1.563886 3.699797 -2.853764 0
M  V30 26 H -1.386391 2.383358 -0.746799 0
M  V30 27 H 1.954485 -3.553031 2.178574 0
M  V30 28 H 2.192905 -4.926431 4.238922 0
M  V30 END ATOM
M  V30 BEGIN BOND
M  V30 1 2 1 2
M  V30 2 1 2 3
M  V30 3 2 3 4
M  V30 4 1 4 5
M  V30 5 2 5 6
M  V30 6 1 6 7
M  V30 7 2 7 8
M  V30 8 1 8 9
M  V30 9 2 9 10
M  V30 10 1 10 11
M  V30 11 2 11 12
M  V30 12 1 12 13
M  V30 13 2 13 14
M  V30 14 1 8 15
M  V30 15 2 15 16
M  V30 16 1 4 17
M  V30 17 2 17 18
M  V30 18 1 18 1
M  V30 19 1 16 5
M  V30 20 1 14 9
M  V30 21 1 1 19
M  V30 22 1 2 20
M  V30 23 1 3 21
M  V30 24 1 10 22
M  V30 25 1 11 23
M  V30 26 1 12 24
M  V30 27 1 13 25
M  V30 28 1 14 26
M  V30 29 1 17 27
M  V30 30 1 18 28
M  V30 END BOND
M  V30 END CTAB
M  END
>  <Dataset>  (216) 
ChEMBL_Kinases

>  <Ligand_Instance>  (216) 
nan

>  <PDB_ID>  (216) 
nan

>  <Standardized_SMILES>  (216) 
c1ccc(-c2nnc(-c3ccccc3)nn2)cc1

>  <Name>  (216) 
nan

>  <Pocket>  (216) 
nan

>  <ATP_Site>  (216) 
nan

>  <Peripheral>  (216) 
nan

>  <Num_H_Atoms_ProtBoundConf>  (216) 
nan

>  <Num_Resolved_Atoms>  (216) 
nan

>  <Num_Not_Resolved_Atoms>  (216) 
nan

$$$$
CHEMBL1778710
     RDKit          3D

  0  0  0  0  0  0  0  0  0  0999 V3000
M  V30 BEGIN CTAB
M  V30 COUNTS 35 38 0 0 0
M  V30 BEGIN ATOM
M  V30 1 O 2.681254 0.026476 2.560458 0
M  V30 2 C 2.411028 -0.983309 1.887296 0
M  V30 3 N 2.940532 -2.249605 2.212840 0
M  V30 4 C 2.417323 -3.158827 1.231647 0
M  V30 5 C 2.578569 -4.514334 1.033804 0
M  V30 6 C 1.975097 -5.212518 0.008537 0
M  V30 7 C 1.187190 -4.495738 -0.832498 0
M  V30 8 C 0.958751 -3.123771 -0.720744 0
M  V30 9 C 1.595679 -2.494117 0.328854 0
M  V30 10 C 1.562281 -1.089491 0.712014 0
M  V30 11 C 0.953790 -0.038086 0.192959 0
M  V30 12 C 0.960304 1.330907 0.588270 0
M  V30 13 C 1.851868 2.311572 0.952497 0
M  V30 14 N 1.273066 3.474101 1.274866 0
M  V30 15 N -0.019253 3.274799 1.125185 0
M  V30 16 C -0.263785 2.002866 0.713069 0
M  V30 17 C -1.702353 1.727640 0.540415 0
M  V30 18 C -2.105100 1.118406 -0.618743 0
M  V30 19 C -3.461540 0.832153 -0.807282 0
M  V30 20 C -4.416398 1.149540 0.153096 0
M  V30 21 C -3.965946 1.762236 1.304307 0
M  V30 22 C -2.626565 2.049605 1.499721 0
M  V30 23 H 3.574470 -2.502169 2.987353 0
M  V30 24 H 3.212418 -5.041866 1.725997 0
M  V30 25 H 2.081812 -6.257804 -0.166936 0
M  V30 26 H 0.667395 -4.963490 -1.673321 0
M  V30 27 H 0.324326 -2.576469 -1.408917 0
M  V30 28 H 0.371975 -0.351879 -0.683639 0
M  V30 29 H 2.916141 2.126036 0.951974 0
M  V30 30 H 1.781265 4.330025 1.574537 0
M  V30 31 H -1.522772 0.815045 -1.447255 0
M  V30 32 H -3.868772 0.352756 -1.691258 0
M  V30 33 H -5.465609 0.925953 0.004207 0
M  V30 34 H -4.657762 2.036472 2.092926 0
M  V30 35 H -2.306515 2.535430 2.423058 0
M  V30 END ATOM
M  V30 BEGIN BOND
M  V30 1 2 1 2
M  V30 2 1 2 3
M  V30 3 1 3 4
M  V30 4 2 4 5
M  V30 5 1 5 6
M  V30 6 2 6 7
M  V30 7 1 7 8
M  V30 8 2 8 9
M  V30 9 1 9 10
M  V30 10 2 10 11
M  V30 11 1 11 12
M  V30 12 2 12 13
M  V30 13 1 13 14
M  V30 14 1 14 15
M  V30 15 2 15 16
M  V30 16 1 16 17
M  V30 17 2 17 18
M  V30 18 1 18 19
M  V30 19 2 19 20
M  V30 20 1 20 21
M  V30 21 2 21 22
M  V30 22 1 10 2
M  V30 23 1 16 12
M  V30 24 1 22 17
M  V30 25 1 9 4
M  V30 26 1 3 23
M  V30 27 1 5 24
M  V30 28 1 6 25
M  V30 29 1 7 26
M  V30 30 1 8 27
M  V30 31 1 11 28
M  V30 32 1 13 29
M  V30 33 1 14 30
M  V30 34 1 18 31
M  V30 35 1 19 32
M  V30 36 1 20 33
M  V30 37 1 21 34
M  V30 38 1 22 35
M  V30 END BOND
M  V30 END CTAB
M  END
>  <Dataset>  (217) 
ChEMBL_Kinases

>  <Ligand_Instance>  (217) 
nan

>  <PDB_ID>  (217) 
nan

>  <Standardized_SMILES>  (217) 
O=C1Nc2ccccc2/C1=C/c1c[nH]nc1-c1ccccc1

>  <Name>  (217) 
nan

>  <Pocket>  (217) 
nan

>  <ATP_Site>  (217) 
nan

>  <Peripheral>  (217) 
nan

>  <Num_H_Atoms_ProtBoundConf>  (217) 
nan

>  <Num_Resolved_Atoms>  (217) 
nan

>  <Num_Not_Resolved_Atoms>  (217) 
nan

$$$$
CHEMBL1778819
     RDKit          3D

  0  0  0  0  0  0  0  0  0  0999 V3000
M  V30 BEGIN CTAB
M  V30 COUNTS 90 91 0 0 0
M  V30 BEGIN ATOM
M  V30 1 C 2.425215 -3.147234 5.669027 0
M  V30 2 C 3.468012 -3.751970 4.753974 0
M  V30 3 C 3.119675 -3.666029 3.326840 0
M  V30 4 C 2.852321 -2.382186 2.679990 0
M  V30 5 C 3.838200 -1.304387 2.578024 0
M  V30 6 C 4.348376 -0.693246 3.840604 0
M  V30 7 C 5.320145 0.406339 3.638367 0
M  V30 8 C 5.015738 1.613540 2.884907 0
M  V30 9 C 4.003912 2.598272 3.256088 0
M  V30 10 C 2.582535 2.112213 3.295917 0
M  V30 11 C 1.626808 3.233197 3.657837 0
M  V30 12 C 0.200061 2.881484 3.801658 0
M  V30 13 O -0.551595 2.371697 2.826264 0
M  V30 14 C -0.707886 1.352894 1.998666 0
M  V30 15 C 0.000300 0.198934 1.800067 0
M  V30 16 C -0.298235 -0.797994 0.862357 0
M  V30 17 C -1.410744 -0.556799 0.091935 0
M  V30 18 C -2.230302 0.538178 0.154689 0
M  V30 19 C -1.807258 1.419979 1.126981 0
M  V30 20 C -2.971290 2.342352 1.168303 0
M  V30 21 O -3.154844 3.367392 1.867455 0
M  V30 22 O -3.937284 1.950500 0.287981 0
M  V30 23 C -3.421014 1.063858 -0.645667 0 CFG=1
M  V30 24 C -2.956481 1.856452 -1.836638 0
M  V30 25 O -3.984667 2.571030 -2.437132 0
M  V30 26 C -4.317546 -0.104635 -0.998599 0
M  V30 27 O -4.076537 -0.803756 -2.092283 0
M  V30 28 C -3.782685 -1.468471 -3.106761 0
M  V30 29 O -2.574162 -1.530384 -2.904803 0
M  V30 30 C -3.230066 -2.263381 -4.283495 0
M  V30 31 C -1.775527 -2.528677 -4.198744 0
M  V30 32 C -1.288879 -3.390752 -5.388161 0
M  V30 33 C -0.842006 -1.351198 -4.211177 0
M  V30 34 C -1.383914 -3.349525 -2.983772 0
M  V30 35 C -3.801613 -1.596053 -5.483709 0
M  V30 36 C -5.335311 -1.714035 -5.269349 0
M  V30 37 C -3.559664 -2.250493 -6.816957 0
M  V30 38 C -3.570472 -0.105056 -5.572553 0
M  V30 39 H 1.725993 -3.890187 6.100684 0
M  V30 40 H 1.799946 -2.391151 5.143769 0
M  V30 41 H 2.889407 -2.621913 6.554641 0
M  V30 42 H 3.383066 -4.884959 5.000052 0
M  V30 43 H 4.454186 -3.512612 5.100172 0
M  V30 44 H 2.169866 -4.293133 3.198269 0
M  V30 45 H 3.857259 -4.279233 2.711810 0
M  V30 46 H 2.503222 -2.631015 1.616110 0
M  V30 47 H 1.894863 -1.918319 3.098257 0
M  V30 48 H 3.337804 -0.449454 2.018489 0
M  V30 49 H 4.694040 -1.554872 1.870875 0
M  V30 50 H 4.962477 -1.471295 4.425707 0
M  V30 51 H 3.547537 -0.456092 4.512941 0
M  V30 52 H 5.736892 0.732845 4.667890 0
M  V30 53 H 6.261454 -0.093181 3.209378 0
M  V30 54 H 6.011482 2.208096 2.848341 0
M  V30 55 H 4.945423 1.360171 1.752698 0
M  V30 56 H 4.033762 3.526146 2.596328 0
M  V30 57 H 4.291472 3.027951 4.269227 0
M  V30 58 H 2.350672 1.734391 2.268635 0
M  V30 59 H 2.472618 1.381887 4.101649 0
M  V30 60 H 1.988534 3.758946 4.557788 0
M  V30 61 H 1.703964 3.962436 2.805096 0
M  V30 62 H -0.294677 3.825008 4.264362 0
M  V30 63 H 0.151896 2.176374 4.697839 0
M  V30 64 H 0.839451 0.048615 2.436399 0
M  V30 65 H 0.332363 -1.669705 0.794010 0
M  V30 66 H -1.573250 -1.372624 -0.582629 0
M  V30 67 H -2.216592 2.634710 -1.519579 0
M  V30 68 H -2.542120 1.166073 -2.570654 0
M  V30 69 H -4.125637 3.390681 -1.912988 0
M  V30 70 H -5.346008 0.384426 -1.096445 0
M  V30 71 H -4.478192 -0.736400 -0.060593 0
M  V30 72 H -3.762276 -3.235277 -4.221840 0
M  V30 73 H -1.147960 -2.841503 -6.303089 0
M  V30 74 H -1.845482 -4.342048 -5.460043 0
M  V30 75 H -0.231130 -3.757410 -5.126653 0
M  V30 76 H 0.109093 -1.717339 -4.720081 0
M  V30 77 H -0.429290 -1.074498 -3.200792 0
M  V30 78 H -1.134311 -0.510056 -4.832762 0
M  V30 79 H -0.821738 -4.265226 -3.268236 0
M  V30 80 H -2.271798 -3.741996 -2.439833 0
M  V30 81 H -0.675887 -2.801341 -2.314770 0
M  V30 82 H -5.755824 -0.793630 -4.835747 0
M  V30 83 H -5.603581 -2.563006 -4.647981 0
M  V30 84 H -5.862565 -1.841907 -6.251111 0
M  V30 85 H -4.474802 -2.098325 -7.496012 0
M  V30 86 H -2.785423 -1.675479 -7.407467 0
M  V30 87 H -3.441589 -3.324121 -6.818435 0
M  V30 88 H -3.327856 0.372086 -4.631185 0
M  V30 89 H -2.826461 0.179413 -6.363091 0
M  V30 90 H -4.499360 0.421921 -5.928021 0
M  V30 END ATOM
M  V30 BEGIN BOND
M  V30 1 1 1 2
M  V30 2 1 2 3
M  V30 3 1 3 4
M  V30 4 1 4 5
M  V30 5 1 5 6
M  V30 6 1 6 7
M  V30 7 1 7 8
M  V30 8 1 8 9
M  V30 9 1 9 10
M  V30 10 1 10 11
M  V30 11 1 11 12
M  V30 12 1 12 13
M  V30 13 1 13 14
M  V30 14 2 14 15
M  V30 15 1 15 16
M  V30 16 2 16 17
M  V30 17 1 17 18
M  V30 18 2 18 19
M  V30 19 1 19 20
M  V30 20 2 20 21
M  V30 21 1 20 22
M  V30 22 1 22 23
M  V30 23 1 23 24 CFG=3
M  V30 24 1 24 25
M  V30 25 1 23 26
M  V30 26 1 26 27
M  V30 27 1 27 28
M  V30 28 2 28 29
M  V30 29 1 28 30
M  V30 30 1 30 31
M  V30 31 1 31 32
M  V30 32 1 31 33
M  V30 33 1 31 34
M  V30 34 1 30 35
M  V30 35 1 35 36
M  V30 36 1 35 37
M  V30 37 1 35 38
M  V30 38 1 19 14
M  V30 39 1 23 18
M  V30 40 1 1 39
M  V30 41 1 1 40
M  V30 42 1 1 41
M  V30 43 1 2 42
M  V30 44 1 2 43
M  V30 45 1 3 44
M  V30 46 1 3 45
M  V30 47 1 4 46
M  V30 48 1 4 47
M  V30 49 1 5 48
M  V30 50 1 5 49
M  V30 51 1 6 50
M  V30 52 1 6 51
M  V30 53 1 7 52
M  V30 54 1 7 53
M  V30 55 1 8 54
M  V30 56 1 8 55
M  V30 57 1 9 56
M  V30 58 1 9 57
M  V30 59 1 10 58
M  V30 60 1 10 59
M  V30 61 1 11 60
M  V30 62 1 11 61
M  V30 63 1 12 62
M  V30 64 1 12 63
M  V30 65 1 15 64
M  V30 66 1 16 65
M  V30 67 1 17 66
M  V30 68 1 24 67
M  V30 69 1 24 68
M  V30 70 1 25 69
M  V30 71 1 26 70
M  V30 72 1 26 71
M  V30 73 1 30 72
M  V30 74 1 32 73
M  V30 75 1 32 74
M  V30 76 1 32 75
M  V30 77 1 33 76
M  V30 78 1 33 77
M  V30 79 1 33 78
M  V30 80 1 34 79
M  V30 81 1 34 80
M  V30 82 1 34 81
M  V30 83 1 36 82
M  V30 84 1 36 83
M  V30 85 1 36 84
M  V30 86 1 37 85
M  V30 87 1 37 86
M  V30 88 1 37 87
M  V30 89 1 38 88
M  V30 90 1 38 89
M  V30 91 1 38 90
M  V30 END BOND
M  V30 END CTAB
M  END
>  <Dataset>  (218) 
ChEMBL_Kinases

>  <Ligand_Instance>  (218) 
nan

>  <PDB_ID>  (218) 
nan

>  <Standardized_SMILES>  (218) 
CCCCCCCCCCCCOc1cccc2c1C(=O)O[C@]2(CO)COC(=O)C(C(C)(C)C)C(C)(C)C

>  <Name>  (218) 
nan

>  <Pocket>  (218) 
nan

>  <ATP_Site>  (218) 
nan

>  <Peripheral>  (218) 
nan

>  <Num_H_Atoms_ProtBoundConf>  (218) 
nan

>  <Num_Resolved_Atoms>  (218) 
nan

>  <Num_Not_Resolved_Atoms>  (218) 
nan

$$$$
CHEMBL1779374
     RDKit          3D

  0  0  0  0  0  0  0  0  0  0999 V3000
M  V30 BEGIN CTAB
M  V30 COUNTS 51 55 0 0 0
M  V30 BEGIN ATOM
M  V30 1 C 0.173400 -3.124645 6.310744 0
M  V30 2 O 0.527662 -2.495340 5.086922 0
M  V30 3 C 1.810226 -2.015944 4.897996 0
M  V30 4 C 2.905827 -2.030730 5.737094 0
M  V30 5 N 4.065200 -1.501003 5.339059 0
M  V30 6 C 4.236503 -0.940517 4.143188 0
M  V30 7 C 3.175853 -0.893152 3.252920 0
M  V30 8 C 3.402219 -0.269855 1.949277 0
M  V30 9 N 4.579690 0.260277 1.563423 0
M  V30 10 C 4.702555 0.820219 0.333141 0
M  V30 11 C 3.633791 0.868745 -0.565812 0
M  V30 12 C 2.443983 0.316699 -0.137336 0
M  V30 13 C 1.262193 0.314980 -1.000688 0
M  V30 14 C 1.216140 0.841116 -2.275250 0
M  V30 15 C -0.075730 0.626130 -2.716440 0
M  V30 16 C -0.783610 -0.016346 -1.720878 0
M  V30 17 N 0.069958 -0.194932 -0.673244 0
M  V30 18 C -2.209625 -0.446467 -1.753173 0 CFG=1
M  V30 19 C -2.406408 -1.795070 -1.081128 0
M  V30 20 C -3.312150 -1.704385 0.125530 0
M  V30 21 C -3.016071 -0.539974 1.000602 0
M  V30 22 N -2.888466 0.711051 0.302734 0
M  V30 23 C -3.101501 0.595486 -1.119864 0
M  V30 24 C -2.659993 -0.620762 -3.185135 0
M  V30 25 N -2.216352 0.500650 -3.991543 0
M  V30 26 C -0.837742 0.909948 -3.944981 0
M  V30 27 O -0.244055 1.496201 -4.891768 0
M  V30 28 N 2.381218 -0.224666 1.093252 0
M  V30 29 C 1.942279 -1.437293 3.630483 0
M  V30 30 H -0.245685 -2.419637 7.044710 0
M  V30 31 H -0.606043 -3.897736 6.104929 0
M  V30 32 H 1.009834 -3.665005 6.776168 0
M  V30 33 H 2.684595 -2.503475 6.689416 0
M  V30 34 H 5.217335 -0.546257 3.933517 0
M  V30 35 H 5.660551 1.240593 0.045040 0
M  V30 36 H 3.740977 1.316935 -1.544079 0
M  V30 37 H 1.982387 1.329447 -2.864471 0
M  V30 38 H -0.128141 -0.653974 0.263895 0
M  V30 39 H -2.775910 -2.574720 -1.762362 0
M  V30 40 H -1.404840 -2.131422 -0.741461 0
M  V30 41 H -4.384275 -1.737525 -0.143731 0
M  V30 42 H -3.112841 -2.627731 0.719670 0
M  V30 43 H -3.854351 -0.439946 1.721282 0
M  V30 44 H -2.121612 -0.743364 1.637383 0
M  V30 45 H -3.509905 1.448676 0.664139 0
M  V30 46 H -4.151835 0.391459 -1.390929 0
M  V30 47 H -2.831236 1.570688 -1.576194 0
M  V30 48 H -2.252015 -1.598495 -3.542384 0
M  V30 49 H -3.775335 -0.603047 -3.255296 0
M  V30 50 H -2.831117 1.064992 -4.632151 0
M  V30 51 H 1.160172 -1.357587 2.868446 0
M  V30 END ATOM
M  V30 BEGIN BOND
M  V30 1 1 1 2
M  V30 2 1 2 3
M  V30 3 2 3 4
M  V30 4 1 4 5
M  V30 5 2 5 6
M  V30 6 1 6 7
M  V30 7 1 7 8
M  V30 8 2 8 9
M  V30 9 1 9 10
M  V30 10 2 10 11
M  V30 11 1 11 12
M  V30 12 1 12 13
M  V30 13 2 13 14
M  V30 14 1 14 15
M  V30 15 2 15 16
M  V30 16 1 16 17
M  V30 17 1 16 18
M  V30 18 1 18 19 CFG=1
M  V30 19 1 19 20
M  V30 20 1 20 21
M  V30 21 1 21 22
M  V30 22 1 22 23
M  V30 23 1 18 24
M  V30 24 1 24 25
M  V30 25 1 25 26
M  V30 26 2 26 27
M  V30 27 2 12 28
M  V30 28 2 7 29
M  V30 29 1 29 3
M  V30 30 1 28 8
M  V30 31 1 17 13
M  V30 32 1 23 18
M  V30 33 1 26 15
M  V30 34 1 1 30
M  V30 35 1 1 31
M  V30 36 1 1 32
M  V30 37 1 4 33
M  V30 38 1 6 34
M  V30 39 1 10 35
M  V30 40 1 11 36
M  V30 41 1 14 37
M  V30 42 1 17 38
M  V30 43 1 19 39
M  V30 44 1 19 40
M  V30 45 1 20 41
M  V30 46 1 20 42
M  V30 47 1 21 43
M  V30 48 1 21 44
M  V30 49 1 22 45
M  V30 50 1 23 46
M  V30 51 1 23 47
M  V30 52 1 24 48
M  V30 53 1 24 49
M  V30 54 1 25 50
M  V30 55 1 29 51
M  V30 END BOND
M  V30 END CTAB
M  END
>  <Dataset>  (219) 
ChEMBL_Kinases

>  <Ligand_Instance>  (219) 
nan

>  <PDB_ID>  (219) 
nan

>  <Standardized_SMILES>  (219) 
COc1cncc(-c2nccc(-c3cc4c([nH]3)[C@]3(CCCNC3)CNC4=O)n2)c1

>  <Name>  (219) 
nan

>  <Pocket>  (219) 
nan

>  <ATP_Site>  (219) 
nan

>  <Peripheral>  (219) 
nan

>  <Num_H_Atoms_ProtBoundConf>  (219) 
nan

>  <Num_Resolved_Atoms>  (219) 
nan

>  <Num_Not_Resolved_Atoms>  (219) 
nan

$$$$
CHEMBL1778822
     RDKit          3D

  0  0  0  0  0  0  0  0  0  0999 V3000
M  V30 BEGIN CTAB
M  V30 COUNTS 128 130 0 0 0
M  V30 BEGIN ATOM
M  V30 1 C 5.993657 1.804177 3.830985 0
M  V30 2 C 6.351804 1.260628 2.461324 0
M  V30 3 C 6.240438 2.276209 1.377520 0
M  V30 4 C 6.595282 1.730897 0.010611 0
M  V30 5 C 5.723198 0.597143 -0.401486 0
M  V30 6 C 6.054179 0.038252 -1.786379 0
M  V30 7 C 5.148888 -1.088498 -2.140499 0
M  V30 8 C 5.353659 -1.729756 -3.462205 0
M  V30 9 C 5.205519 -0.822051 -4.655619 0
M  V30 10 C 3.835336 -0.210943 -4.638185 0
M  V30 11 C 2.705731 -1.216118 -4.647806 0
M  V30 12 C 1.424812 -0.363893 -4.606494 0
M  V30 13 O 0.344018 -1.188128 -4.576612 0
M  V30 14 C -0.878546 -0.538872 -4.501293 0 CFG=2
M  V30 15 C -1.566665 -0.805888 -3.165779 0 CFG=2
M  V30 16 O -0.860120 -0.280662 -2.101439 0
M  V30 17 C -1.514592 0.805402 -1.488087 0
M  V30 18 C -1.735739 -2.299484 -3.151680 0 CFG=1
M  V30 19 O -1.631800 -2.852213 -1.891104 0
M  V30 20 C -0.598111 -3.800901 -1.845351 0
M  V30 21 C -3.009581 -2.573574 -3.882633 0 CFG=2
M  V30 22 O -3.234343 -3.894462 -4.217306 0
M  V30 23 C -4.381830 -4.420206 -3.622286 0
M  V30 24 C -4.314189 -4.433478 -2.156811 0
M  V30 25 C -4.247522 -4.461688 -0.956064 0
M  V30 26 C -4.144706 -4.487993 0.481544 0
M  V30 27 C -4.133547 -5.643970 1.250858 0
M  V30 28 C -4.011293 -5.547068 2.642255 0
M  V30 29 C -3.897884 -4.312577 3.291490 0
M  V30 30 C -3.907024 -3.135835 2.531657 0
M  V30 31 C -4.031377 -3.309717 1.172230 0
M  V30 32 C -4.029370 -1.949061 0.687679 0
M  V30 33 O -4.124072 -1.592440 -0.521374 0
M  V30 34 O -3.910623 -1.025582 1.705953 0
M  V30 35 C -3.790075 -1.720157 2.920521 0 CFG=1
M  V30 36 C -4.841285 -1.320536 3.919684 0
M  V30 37 O -4.669730 -2.025571 5.113383 0
M  V30 38 C -2.403573 -1.409974 3.465056 0
M  V30 39 O -2.314965 -0.014104 3.659877 0
M  V30 40 C -1.142559 0.572083 4.127757 0
M  V30 41 O -0.344460 -0.410057 4.281062 0
M  V30 42 C -0.962773 2.061238 4.365760 0
M  V30 43 C -1.927450 2.425961 5.412712 0
M  V30 44 C -1.528860 1.552307 6.630712 0
M  V30 45 C -1.855303 3.833383 5.943607 0
M  V30 46 C -3.373778 2.053827 5.132875 0
M  V30 47 C -0.931660 2.750528 3.070147 0
M  V30 48 C 0.263971 2.150736 2.290436 0
M  V30 49 C -0.588851 4.219776 3.166935 0
M  V30 50 C -2.097028 2.626477 2.153259 0
M  V30 51 C -3.065554 -1.648361 -5.070690 0 CFG=1
M  V30 52 O -3.989352 -0.623052 -4.948267 0
M  V30 53 C -4.998651 -0.781680 -5.874509 0
M  V30 54 C -1.773452 -1.105717 -5.554731 0 CFG=2
M  V30 55 O -1.154914 -1.997722 -6.429390 0
M  V30 56 C -1.102627 -1.502453 -7.725461 0
M  V30 57 H 5.503577 1.003695 4.431932 0
M  V30 58 H 5.272359 2.625921 3.764095 0
M  V30 59 H 6.889270 2.169069 4.384673 0
M  V30 60 H 5.646962 0.410069 2.264822 0
M  V30 61 H 7.408006 0.921145 2.504027 0
M  V30 62 H 6.981186 3.101875 1.599754 0
M  V30 63 H 5.262861 2.788277 1.375033 0
M  V30 64 H 6.490536 2.585376 -0.711691 0
M  V30 65 H 7.688390 1.473457 0.038591 0
M  V30 66 H 5.827887 -0.220428 0.363662 0
M  V30 67 H 4.672905 0.914491 -0.335593 0
M  V30 68 H 5.948369 0.919070 -2.482405 0
M  V30 69 H 7.128653 -0.221589 -1.794199 0
M  V30 70 H 4.102562 -0.708555 -2.062334 0
M  V30 71 H 5.266143 -1.855486 -1.315039 0
M  V30 72 H 4.694182 -2.636776 -3.585056 0
M  V30 73 H 6.388819 -2.166583 -3.465298 0
M  V30 74 H 5.319735 -1.461550 -5.560352 0
M  V30 75 H 6.011096 -0.066062 -4.582781 0
M  V30 76 H 3.717979 0.530479 -3.833214 0
M  V30 77 H 3.742656 0.399790 -5.590642 0
M  V30 78 H 2.772916 -1.812480 -5.580484 0
M  V30 79 H 2.742141 -1.795199 -3.716748 0
M  V30 80 H 1.506111 0.260895 -5.519104 0
M  V30 81 H 1.491154 0.181565 -3.659097 0
M  V30 82 H -0.738608 0.559042 -4.524395 0
M  V30 83 H -2.501152 -0.222023 -3.230056 0
M  V30 84 H -2.495187 0.500973 -1.100803 0
M  V30 85 H -1.757558 1.578092 -2.281967 0
M  V30 86 H -0.857922 1.325414 -0.788882 0
M  V30 87 H -0.929814 -2.814842 -3.757624 0
M  V30 88 H -0.482289 -4.268541 -0.853319 0
M  V30 89 H 0.378860 -3.333447 -2.097200 0
M  V30 90 H -0.728845 -4.599097 -2.635783 0
M  V30 91 H -3.840492 -2.260422 -3.199824 0
M  V30 92 H -4.658727 -5.381485 -4.060436 0
M  V30 93 H -5.266718 -3.743665 -3.844553 0
M  V30 94 H -4.221040 -6.576939 0.730422 0
M  V30 95 H -4.003573 -6.457686 3.236609 0
M  V30 96 H -3.804516 -4.245700 4.366002 0
M  V30 97 H -4.869516 -0.255411 4.129675 0
M  V30 98 H -5.864440 -1.626009 3.559554 0
M  V30 99 H -4.651129 -1.417847 5.902352 0
M  V30 100 H -2.173866 -1.991385 4.360294 0
M  V30 101 H -1.706741 -1.614842 2.597348 0
M  V30 102 H 0.056640 2.113338 4.811032 0
M  V30 103 H -0.556076 1.892856 7.060128 0
M  V30 104 H -1.377039 0.502080 6.343464 0
M  V30 105 H -2.278612 1.685424 7.449171 0
M  V30 106 H -2.057832 3.848650 7.065071 0
M  V30 107 H -0.848256 4.253834 5.866504 0
M  V30 108 H -2.673797 4.496757 5.567758 0
M  V30 109 H -3.683175 1.113655 5.671563 0
M  V30 110 H -3.607730 1.897734 4.080061 0
M  V30 111 H -4.029995 2.828449 5.614667 0
M  V30 112 H 1.227115 2.466186 2.705649 0
M  V30 113 H 0.141287 1.080559 2.114297 0
M  V30 114 H 0.215957 2.648208 1.278251 0
M  V30 115 H -0.392174 4.647355 2.143957 0
M  V30 116 H 0.316201 4.327647 3.791017 0
M  V30 117 H -1.385500 4.831114 3.615242 0
M  V30 118 H -2.862243 3.402364 2.365553 0
M  V30 119 H -1.715502 2.938434 1.132264 0
M  V30 120 H -2.474957 1.618409 1.991775 0
M  V30 121 H -3.457298 -2.286945 -5.916255 0
M  V30 122 H -4.625848 -0.768759 -6.924433 0
M  V30 123 H -5.768018 -0.010400 -5.671019 0
M  V30 124 H -5.496265 -1.788253 -5.761775 0
M  V30 125 H -2.045037 -0.227655 -6.220443 0
M  V30 126 H -0.597810 -2.279547 -8.343937 0
M  V30 127 H -0.500844 -0.598526 -7.816560 0
M  V30 128 H -2.141609 -1.420459 -8.132290 0
M  V30 END ATOM
M  V30 BEGIN BOND
M  V30 1 1 1 2
M  V30 2 1 2 3
M  V30 3 1 3 4
M  V30 4 1 4 5
M  V30 5 1 5 6
M  V30 6 1 6 7
M  V30 7 1 7 8
M  V30 8 1 8 9
M  V30 9 1 9 10
M  V30 10 1 10 11
M  V30 11 1 11 12
M  V30 12 1 12 13
M  V30 13 1 13 14
M  V30 14 1 14 15
M  V30 15 1 15 16
M  V30 16 1 16 17
M  V30 17 1 15 18
M  V30 18 1 18 19
M  V30 19 1 19 20
M  V30 20 1 18 21
M  V30 21 1 21 22
M  V30 22 1 22 23
M  V30 23 1 23 24
M  V30 24 3 24 25
M  V30 25 1 25 26
M  V30 26 2 26 27
M  V30 27 1 27 28
M  V30 28 2 28 29
M  V30 29 1 29 30
M  V30 30 2 30 31
M  V30 31 1 31 32
M  V30 32 2 32 33
M  V30 33 1 32 34
M  V30 34 1 34 35
M  V30 35 1 35 36 CFG=1
M  V30 36 1 36 37
M  V30 37 1 35 38
M  V30 38 1 38 39
M  V30 39 1 39 40
M  V30 40 2 40 41
M  V30 41 1 40 42
M  V30 42 1 42 43
M  V30 43 1 43 44
M  V30 44 1 43 45
M  V30 45 1 43 46
M  V30 46 1 42 47
M  V30 47 1 47 48
M  V30 48 1 47 49
M  V30 49 1 47 50
M  V30 50 1 21 51
M  V30 51 1 51 52
M  V30 52 1 52 53
M  V30 53 1 51 54
M  V30 54 1 54 55
M  V30 55 1 55 56
M  V30 56 1 54 14
M  V30 57 1 31 26
M  V30 58 1 35 30
M  V30 59 1 1 57
M  V30 60 1 1 58
M  V30 61 1 1 59
M  V30 62 1 2 60
M  V30 63 1 2 61
M  V30 64 1 3 62
M  V30 65 1 3 63
M  V30 66 1 4 64
M  V30 67 1 4 65
M  V30 68 1 5 66
M  V30 69 1 5 67
M  V30 70 1 6 68
M  V30 71 1 6 69
M  V30 72 1 7 70
M  V30 73 1 7 71
M  V30 74 1 8 72
M  V30 75 1 8 73
M  V30 76 1 9 74
M  V30 77 1 9 75
M  V30 78 1 10 76
M  V30 79 1 10 77
M  V30 80 1 11 78
M  V30 81 1 11 79
M  V30 82 1 12 80
M  V30 83 1 12 81
M  V30 84 1 14 82 CFG=3
M  V30 85 1 15 83 CFG=3
M  V30 86 1 17 84
M  V30 87 1 17 85
M  V30 88 1 17 86
M  V30 89 1 18 87 CFG=3
M  V30 90 1 20 88
M  V30 91 1 20 89
M  V30 92 1 20 90
M  V30 93 1 21 91 CFG=1
M  V30 94 1 23 92
M  V30 95 1 23 93
M  V30 96 1 27 94
M  V30 97 1 28 95
M  V30 98 1 29 96
M  V30 99 1 36 97
M  V30 100 1 36 98
M  V30 101 1 37 99
M  V30 102 1 38 100
M  V30 103 1 38 101
M  V30 104 1 42 102
M  V30 105 1 44 103
M  V30 106 1 44 104
M  V30 107 1 44 105
M  V30 108 1 45 106
M  V30 109 1 45 107
M  V30 110 1 45 108
M  V30 111 1 46 109
M  V30 112 1 46 110
M  V30 113 1 46 111
M  V30 114 1 48 112
M  V30 115 1 48 113
M  V30 116 1 48 114
M  V30 117 1 49 115
M  V30 118 1 49 116
M  V30 119 1 49 117
M  V30 120 1 50 118
M  V30 121 1 50 119
M  V30 122 1 50 120
M  V30 123 1 51 121 CFG=3
M  V30 124 1 53 122
M  V30 125 1 53 123
M  V30 126 1 53 124
M  V30 127 1 54 125 CFG=3
M  V30 128 1 56 126
M  V30 129 1 56 127
M  V30 130 1 56 128
M  V30 END BOND
M  V30 END CTAB
M  END
>  <Dataset>  (220) 
ChEMBL_Kinases

>  <Ligand_Instance>  (220) 
nan

>  <PDB_ID>  (220) 
nan

>  <Standardized_SMILES>  (220) 
CCCCCCCCCCCCO[C@@H]1[C@H](OC)[C@@H](OC)[C@H](OCC#Cc2cccc3c2C(=O)O[C@]3(CO)COC(=O)C(C(C)(C)C)C(C)(C)C)[C@@H](OC)[C@@H]1OC

>  <Name>  (220) 
nan

>  <Pocket>  (220) 
nan

>  <ATP_Site>  (220) 
nan

>  <Peripheral>  (220) 
nan

>  <Num_H_Atoms_ProtBoundConf>  (220) 
nan

>  <Num_Resolved_Atoms>  (220) 
nan

>  <Num_Not_Resolved_Atoms>  (220) 
nan

$$$$
CHEMBL1779352
     RDKit          3D

  0  0  0  0  0  0  0  0  0  0999 V3000
M  V30 BEGIN CTAB
M  V30 COUNTS 51 56 0 0 0
M  V30 BEGIN ATOM
M  V30 1 O 1.358556 -0.276371 6.386023 0
M  V30 2 C 1.839770 -0.486156 5.219967 0
M  V30 3 N 3.234599 -0.767216 5.030796 0
M  V30 4 C 3.576022 -1.585308 3.880405 0
M  V30 5 C 3.020184 -0.975919 2.600729 0
M  V30 6 C 3.732010 0.330496 2.339585 0
M  V30 7 C 5.118203 0.125767 1.782048 0
M  V30 8 N 4.992756 -0.622822 0.530230 0
M  V30 9 C 4.584725 -1.973601 0.891131 0
M  V30 10 C 3.192695 -1.956780 1.476642 0
M  V30 11 C 1.572807 -0.685495 2.786304 0
M  V30 12 N 0.548945 -0.585490 1.888618 0
M  V30 13 C -0.581573 -0.308668 2.520628 0
M  V30 14 C -1.891042 -0.127470 1.892575 0
M  V30 15 C -3.020748 0.159940 2.628552 0
M  V30 16 C -4.255908 0.329453 2.021972 0
M  V30 17 N -4.344412 0.206883 0.664867 0
M  V30 18 C -3.240561 -0.073567 -0.050504 0
M  V30 19 C -3.433428 -0.185629 -1.495881 0
M  V30 20 C -4.377453 -1.071480 -2.024238 0
M  V30 21 C -4.308145 -0.933638 -3.398190 0
M  V30 22 C -5.017989 -1.568936 -4.392990 0
M  V30 23 C -4.723765 -1.217325 -5.693482 0
M  V30 24 C -3.760366 -0.270037 -5.993612 0
M  V30 25 C -3.056393 0.357586 -4.960052 0
M  V30 26 C -3.343549 0.012125 -3.646290 0
M  V30 27 O -2.854323 0.426489 -2.504854 0
M  V30 28 N -2.047191 -0.234801 0.560342 0
M  V30 29 C -0.364938 -0.209912 3.880332 0
M  V30 30 C 0.990242 -0.450262 4.015176 0
M  V30 31 H 3.910077 -0.358576 5.741885 0
M  V30 32 H 4.672956 -1.708392 3.783386 0
M  V30 33 H 3.098145 -2.583720 4.050736 0
M  V30 34 H 3.158420 0.995270 1.658026 0
M  V30 35 H 3.878747 0.851350 3.326734 0
M  V30 36 H 5.682369 -0.512631 2.474058 0
M  V30 37 H 5.554022 1.130289 1.642391 0
M  V30 38 H 4.333836 -0.197930 -0.135278 0
M  V30 39 H 5.341675 -2.420579 1.549125 0
M  V30 40 H 4.530664 -2.559119 -0.049505 0
M  V30 41 H 2.906489 -2.961809 1.785089 0
M  V30 42 H 2.529316 -1.592181 0.645721 0
M  V30 43 H 0.664943 -0.712589 0.861007 0
M  V30 44 H -2.933026 0.253959 3.705793 0
M  V30 45 H -5.162715 0.555840 2.570697 0
M  V30 46 H -5.040837 -1.741698 -1.469849 0
M  V30 47 H -5.778466 -2.314164 -4.205025 0
M  V30 48 H -5.276478 -1.711680 -6.474488 0
M  V30 49 H -3.566187 -0.029098 -7.024479 0
M  V30 50 H -2.295659 1.104435 -5.174225 0
M  V30 51 H -1.100319 0.004459 4.626031 0
M  V30 END ATOM
M  V30 BEGIN BOND
M  V30 1 2 1 2
M  V30 2 1 2 3
M  V30 3 1 3 4
M  V30 4 1 4 5
M  V30 5 1 5 6
M  V30 6 1 6 7
M  V30 7 1 7 8
M  V30 8 1 8 9
M  V30 9 1 9 10
M  V30 10 1 5 11
M  V30 11 1 11 12
M  V30 12 1 12 13
M  V30 13 1 13 14
M  V30 14 2 14 15
M  V30 15 1 15 16
M  V30 16 2 16 17
M  V30 17 1 17 18
M  V30 18 1 18 19
M  V30 19 2 19 20
M  V30 20 1 20 21
M  V30 21 2 21 22
M  V30 22 1 22 23
M  V30 23 2 23 24
M  V30 24 1 24 25
M  V30 25 2 25 26
M  V30 26 1 26 27
M  V30 27 2 18 28
M  V30 28 2 13 29
M  V30 29 1 29 30
M  V30 30 1 30 2
M  V30 31 1 10 5
M  V30 32 2 30 11
M  V30 33 1 28 14
M  V30 34 1 27 19
M  V30 35 1 26 21
M  V30 36 1 3 31
M  V30 37 1 4 32
M  V30 38 1 4 33
M  V30 39 1 6 34
M  V30 40 1 6 35
M  V30 41 1 7 36
M  V30 42 1 7 37
M  V30 43 1 8 38
M  V30 44 1 9 39
M  V30 45 1 9 40
M  V30 46 1 10 41
M  V30 47 1 10 42
M  V30 48 1 12 43
M  V30 49 1 15 44
M  V30 50 1 16 45
M  V30 51 1 20 46
M  V30 52 1 22 47
M  V30 53 1 23 48
M  V30 54 1 24 49
M  V30 55 1 25 50
M  V30 56 1 29 51
M  V30 END BOND
M  V30 END CTAB
M  END
>  <Dataset>  (221) 
ChEMBL_Kinases

>  <Ligand_Instance>  (221) 
nan

>  <PDB_ID>  (221) 
nan

>  <Standardized_SMILES>  (221) 
O=C1NCC2(CCNCC2)c2[nH]c(-c3ccnc(-c4cc5ccccc5o4)n3)cc21

>  <Name>  (221) 
nan

>  <Pocket>  (221) 
nan

>  <ATP_Site>  (221) 
nan

>  <Peripheral>  (221) 
nan

>  <Num_H_Atoms_ProtBoundConf>  (221) 
nan

>  <Num_Resolved_Atoms>  (221) 
nan

>  <Num_Not_Resolved_Atoms>  (221) 
nan

$$$$
CHEMBL1779353
     RDKit          3D

  0  0  0  0  0  0  0  0  0  0999 V3000
M  V30 BEGIN CTAB
M  V30 COUNTS 54 59 0 0 0
M  V30 BEGIN ATOM
M  V30 1 C 4.805804 -0.855672 2.759376 0
M  V30 2 N 3.841292 -0.537776 1.747765 0
M  V30 3 C 4.036674 0.852441 1.362294 0
M  V30 4 C 2.782858 1.371540 0.734519 0
M  V30 5 C 1.721876 1.562455 1.772708 0
M  V30 6 C 1.730437 0.354666 2.671195 0
M  V30 7 C 2.484994 -0.817877 2.104595 0
M  V30 8 C 2.000018 2.758370 2.661493 0
M  V30 9 N 1.561006 4.009768 2.082960 0
M  V30 10 C 0.270411 4.150239 1.475085 0
M  V30 11 O -0.331048 5.239841 1.354503 0
M  V30 12 C -0.354019 2.928246 0.976037 0
M  V30 13 C -1.524382 2.595896 0.351737 0
M  V30 14 C -1.540288 1.244200 0.129211 0
M  V30 15 C -2.619992 0.505571 -0.515394 0
M  V30 16 C -3.750625 1.155445 -0.964222 0
M  V30 17 C -4.719362 0.345561 -1.565963 0
M  V30 18 N -4.569409 -0.984680 -1.704127 0
M  V30 19 C -3.464452 -1.590296 -1.260803 0
M  V30 20 C -3.147124 -3.014563 -1.332188 0
M  V30 21 C -2.662276 -3.836971 -0.313976 0
M  V30 22 C -2.533948 -5.085289 -0.902713 0
M  V30 23 C -2.099097 -6.299082 -0.386029 0
M  V30 24 C -2.081182 -7.402728 -1.242121 0
M  V30 25 C -2.476345 -7.320874 -2.561980 0
M  V30 26 C -2.912582 -6.092402 -3.071306 0
M  V30 27 C -2.933817 -4.981872 -2.221141 0
M  V30 28 O -3.292939 -3.716149 -2.428588 0
M  V30 29 N -2.509738 -0.825449 -0.673066 0
M  V30 30 N -0.401445 0.768090 0.609667 0
M  V30 31 C 0.370484 1.759534 1.144127 0
M  V30 32 H 5.388600 -1.748517 2.443684 0
M  V30 33 H 4.347724 -1.013312 3.755751 0
M  V30 34 H 5.563969 -0.045700 2.921536 0
M  V30 35 H 4.911392 0.939925 0.685388 0
M  V30 36 H 4.332490 1.381624 2.300340 0
M  V30 37 H 3.028004 2.314757 0.202974 0
M  V30 38 H 2.406860 0.586577 0.038344 0
M  V30 39 H 2.049610 0.579659 3.713850 0
M  V30 40 H 0.669710 0.014643 2.774541 0
M  V30 41 H 1.962203 -1.149871 1.186339 0
M  V30 42 H 2.420685 -1.622538 2.865690 0
M  V30 43 H 1.478073 2.584815 3.627080 0
M  V30 44 H 3.067974 2.859190 2.916132 0
M  V30 45 H 2.178363 4.874713 2.085830 0
M  V30 46 H -2.261714 3.327301 0.107904 0
M  V30 47 H -3.856550 2.216035 -0.847403 0
M  V30 48 H -5.641126 0.815072 -1.941465 0
M  V30 49 H -2.444424 -3.538686 0.699638 0
M  V30 50 H -1.786206 -6.375502 0.649365 0
M  V30 51 H -1.737253 -8.326858 -0.803570 0
M  V30 52 H -2.456199 -8.190661 -3.215504 0
M  V30 53 H -3.234188 -5.977167 -4.104972 0
M  V30 54 H -0.178822 -0.269135 0.553572 0
M  V30 END ATOM
M  V30 BEGIN BOND
M  V30 1 1 1 2
M  V30 2 1 2 3
M  V30 3 1 3 4
M  V30 4 1 4 5
M  V30 5 1 5 6
M  V30 6 1 6 7
M  V30 7 1 5 8
M  V30 8 1 8 9
M  V30 9 1 9 10
M  V30 10 2 10 11
M  V30 11 1 10 12
M  V30 12 1 12 13
M  V30 13 2 13 14
M  V30 14 1 14 15
M  V30 15 2 15 16
M  V30 16 1 16 17
M  V30 17 2 17 18
M  V30 18 1 18 19
M  V30 19 1 19 20
M  V30 20 2 20 21
M  V30 21 1 21 22
M  V30 22 2 22 23
M  V30 23 1 23 24
M  V30 24 2 24 25
M  V30 25 1 25 26
M  V30 26 2 26 27
M  V30 27 1 27 28
M  V30 28 2 19 29
M  V30 29 1 14 30
M  V30 30 1 30 31
M  V30 31 1 7 2
M  V30 32 2 31 12
M  V30 33 1 31 5
M  V30 34 1 29 15
M  V30 35 1 28 20
M  V30 36 1 27 22
M  V30 37 1 1 32
M  V30 38 1 1 33
M  V30 39 1 1 34
M  V30 40 1 3 35
M  V30 41 1 3 36
M  V30 42 1 4 37
M  V30 43 1 4 38
M  V30 44 1 6 39
M  V30 45 1 6 40
M  V30 46 1 7 41
M  V30 47 1 7 42
M  V30 48 1 8 43
M  V30 49 1 8 44
M  V30 50 1 9 45
M  V30 51 1 13 46
M  V30 52 1 16 47
M  V30 53 1 17 48
M  V30 54 1 21 49
M  V30 55 1 23 50
M  V30 56 1 24 51
M  V30 57 1 25 52
M  V30 58 1 26 53
M  V30 59 1 30 54
M  V30 END BOND
M  V30 END CTAB
M  END
>  <Dataset>  (222) 
ChEMBL_Kinases

>  <Ligand_Instance>  (222) 
nan

>  <PDB_ID>  (222) 
nan

>  <Standardized_SMILES>  (222) 
CN1CCC2(CC1)CNC(=O)c1cc(-c3ccnc(-c4cc5ccccc5o4)n3)[nH]c12

>  <Name>  (222) 
nan

>  <Pocket>  (222) 
nan

>  <ATP_Site>  (222) 
nan

>  <Peripheral>  (222) 
nan

>  <Num_H_Atoms_ProtBoundConf>  (222) 
nan

>  <Num_Resolved_Atoms>  (222) 
nan

>  <Num_Not_Resolved_Atoms>  (222) 
nan

$$$$
CHEMBL1779369
     RDKit          3D

  0  0  0  0  0  0  0  0  0  0999 V3000
M  V30 BEGIN CTAB
M  V30 COUNTS 51 56 0 0 0
M  V30 BEGIN ATOM
M  V30 1 O 1.962577 -4.047784 0.811824 0
M  V30 2 C 2.472201 -2.895554 1.000557 0
M  V30 3 N 3.862160 -2.743069 1.351475 0
M  V30 4 C 4.489595 -1.521241 0.880537 0
M  V30 5 C 3.737201 -0.333277 1.452706 0
M  V30 6 C 3.929698 -0.339801 2.953087 0
M  V30 7 C 5.272249 0.295980 3.225261 0
M  V30 8 C 5.143271 1.778773 2.987588 0
M  V30 9 N 4.238705 2.016746 1.880823 0
M  V30 10 C 4.273488 0.954826 0.905695 0
M  V30 11 C 2.298071 -0.420845 1.093238 0
M  V30 12 N 1.308522 0.472188 0.898304 0
M  V30 13 C 0.150512 -0.138613 0.579447 0
M  V30 14 C -1.139596 0.493362 0.296147 0
M  V30 15 C -1.273963 1.866307 0.338288 0
M  V30 16 C -2.532545 2.402826 0.057536 0
M  V30 17 N -3.586525 1.603705 -0.246004 0
M  V30 18 C -3.437682 0.265543 -0.282671 0
M  V30 19 C -4.539599 -0.637044 -0.603707 0
M  V30 20 C -5.797456 -0.175992 -0.888434 0
M  V30 21 C -6.837205 -1.061479 -1.193212 0
M  V30 22 C -6.628064 -2.426355 -1.216478 0
M  V30 23 C -5.353561 -2.910306 -0.928904 0
M  V30 24 C -4.350574 -2.006669 -0.632190 0
M  V30 25 O -5.339853 -4.312445 -1.002378 0
M  V30 26 C -6.464589 -4.637097 -1.823991 0
M  V30 27 O -7.360437 -3.580942 -1.460252 0
M  V30 28 N -2.229848 -0.234323 -0.012417 0
M  V30 29 C 0.361566 -1.505154 0.556577 0
M  V30 30 C 1.696927 -1.640726 0.878242 0
M  V30 31 H 4.302351 -3.527591 1.917180 0
M  V30 32 H 4.400943 -1.443972 -0.221767 0
M  V30 33 H 5.535038 -1.493277 1.214938 0
M  V30 34 H 3.163227 0.348313 3.378886 0
M  V30 35 H 3.835067 -1.364980 3.325845 0
M  V30 36 H 5.581655 0.148993 4.297538 0
M  V30 37 H 6.098027 -0.126796 2.622947 0
M  V30 38 H 6.111732 2.244292 2.696106 0
M  V30 39 H 4.797923 2.286669 3.911646 0
M  V30 40 H 3.319007 2.225130 2.280412 0
M  V30 41 H 5.321472 0.864514 0.557108 0
M  V30 42 H 3.659183 1.264114 0.044390 0
M  V30 43 H 1.416961 1.509796 0.981889 0
M  V30 44 H -0.428479 2.497800 0.581264 0
M  V30 45 H -2.650563 3.486006 0.087819 0
M  V30 46 H -6.022945 0.871788 -0.886570 0
M  V30 47 H -7.830057 -0.718772 -1.419112 0
M  V30 48 H -3.334070 -2.357576 -0.400900 0
M  V30 49 H -6.857054 -5.636517 -1.578544 0
M  V30 50 H -6.150964 -4.495592 -2.862271 0
M  V30 51 H -0.346000 -2.290590 0.339160 0
M  V30 END ATOM
M  V30 BEGIN BOND
M  V30 1 2 1 2
M  V30 2 1 2 3
M  V30 3 1 3 4
M  V30 4 1 4 5
M  V30 5 1 5 6
M  V30 6 1 6 7
M  V30 7 1 7 8
M  V30 8 1 8 9
M  V30 9 1 9 10
M  V30 10 1 5 11
M  V30 11 1 11 12
M  V30 12 1 12 13
M  V30 13 1 13 14
M  V30 14 2 14 15
M  V30 15 1 15 16
M  V30 16 2 16 17
M  V30 17 1 17 18
M  V30 18 1 18 19
M  V30 19 2 19 20
M  V30 20 1 20 21
M  V30 21 2 21 22
M  V30 22 1 22 23
M  V30 23 2 23 24
M  V30 24 1 23 25
M  V30 25 1 25 26
M  V30 26 1 26 27
M  V30 27 2 18 28
M  V30 28 2 13 29
M  V30 29 1 29 30
M  V30 30 1 30 2
M  V30 31 1 10 5
M  V30 32 2 30 11
M  V30 33 1 28 14
M  V30 34 1 24 19
M  V30 35 1 27 22
M  V30 36 1 3 31
M  V30 37 1 4 32
M  V30 38 1 4 33
M  V30 39 1 6 34
M  V30 40 1 6 35
M  V30 41 1 7 36
M  V30 42 1 7 37
M  V30 43 1 8 38
M  V30 44 1 8 39
M  V30 45 1 9 40
M  V30 46 1 10 41
M  V30 47 1 10 42
M  V30 48 1 12 43
M  V30 49 1 15 44
M  V30 50 1 16 45
M  V30 51 1 20 46
M  V30 52 1 21 47
M  V30 53 1 24 48
M  V30 54 1 26 49
M  V30 55 1 26 50
M  V30 56 1 29 51
M  V30 END BOND
M  V30 END CTAB
M  END
>  <Dataset>  (223) 
ChEMBL_Kinases

>  <Ligand_Instance>  (223) 
nan

>  <PDB_ID>  (223) 
nan

>  <Standardized_SMILES>  (223) 
O=C1NCC2(CCCNC2)c2[nH]c(-c3ccnc(-c4ccc5c(c4)OCO5)n3)cc21

>  <Name>  (223) 
nan

>  <Pocket>  (223) 
nan

>  <ATP_Site>  (223) 
nan

>  <Peripheral>  (223) 
nan

>  <Num_H_Atoms_ProtBoundConf>  (223) 
nan

>  <Num_Resolved_Atoms>  (223) 
nan

>  <Num_Not_Resolved_Atoms>  (223) 
nan

$$$$
CHEMBL1779370
     RDKit          3D

  0  0  0  0  0  0  0  0  0  0999 V3000
M  V30 BEGIN CTAB
M  V30 COUNTS 51 55 0 0 0
M  V30 BEGIN ATOM
M  V30 1 C 0.181857 -3.380091 6.145428 0
M  V30 2 O 0.615652 -2.687877 5.011221 0
M  V30 3 C 1.888132 -2.185281 4.853012 0
M  V30 4 C 2.978290 -2.229097 5.701374 0
M  V30 5 N 4.140377 -1.660512 5.329597 0
M  V30 6 C 4.275066 -1.042409 4.141242 0
M  V30 7 C 3.229835 -0.959850 3.243742 0
M  V30 8 C 3.416724 -0.279915 1.963377 0
M  V30 9 N 4.579852 0.287527 1.594562 0
M  V30 10 C 4.691346 0.907367 0.386458 0
M  V30 11 C 3.615444 0.976160 -0.503701 0
M  V30 12 C 2.441626 0.382558 -0.088055 0
M  V30 13 C 1.262376 0.404590 -0.952944 0
M  V30 14 C 1.192801 0.984165 -2.203315 0
M  V30 15 C -0.094091 0.768305 -2.649562 0
M  V30 16 C -0.795206 0.070572 -1.689492 0
M  V30 17 N 0.069030 -0.139747 -0.652947 0
M  V30 18 C -2.211484 -0.384198 -1.730117 0
M  V30 19 C -2.389032 -1.744921 -1.075312 0
M  V30 20 C -3.498293 -1.691235 -0.034824 0
M  V30 21 C -3.107231 -0.640655 0.981908 0
M  V30 22 N -2.883178 0.648748 0.384216 0
M  V30 23 C -3.046166 0.655230 -1.047030 0
M  V30 24 C -2.640819 -0.530374 -3.170038 0
M  V30 25 N -2.236398 0.660351 -3.913786 0
M  V30 26 C -0.878742 1.082574 -3.846397 0
M  V30 27 O -0.303374 1.723277 -4.775539 0
M  V30 28 N 2.386555 -0.214335 1.111659 0
M  V30 29 C 2.031959 -1.542116 3.619027 0
M  V30 30 H -0.762534 -2.882785 6.490947 0
M  V30 31 H -0.081570 -4.440372 5.949434 0
M  V30 32 H 0.855100 -3.357888 7.009120 0
M  V30 33 H 2.763475 -2.746484 6.625175 0
M  V30 34 H 5.226951 -0.596740 3.878355 0
M  V30 35 H 5.642127 1.363521 0.100958 0
M  V30 36 H 3.686752 1.463525 -1.464970 0
M  V30 37 H 1.946997 1.505376 -2.760402 0
M  V30 38 H -0.113763 -0.641891 0.261517 0
M  V30 39 H -2.543448 -2.554066 -1.796076 0
M  V30 40 H -1.453168 -1.992190 -0.513752 0
M  V30 41 H -4.478943 -1.455840 -0.457031 0
M  V30 42 H -3.484427 -2.667149 0.487235 0
M  V30 43 H -3.905063 -0.617056 1.768341 0
M  V30 44 H -2.201642 -1.030082 1.501858 0
M  V30 45 H -3.524063 1.326807 0.809559 0
M  V30 46 H -4.107043 0.527330 -1.354011 0
M  V30 47 H -2.695774 1.651195 -1.409292 0
M  V30 48 H -2.083025 -1.371846 -3.618529 0
M  V30 49 H -3.734491 -0.675685 -3.257793 0
M  V30 50 H -2.866591 1.265113 -4.519389 0
M  V30 51 H 1.248934 -1.438310 2.859643 0
M  V30 END ATOM
M  V30 BEGIN BOND
M  V30 1 1 1 2
M  V30 2 1 2 3
M  V30 3 2 3 4
M  V30 4 1 4 5
M  V30 5 2 5 6
M  V30 6 1 6 7
M  V30 7 1 7 8
M  V30 8 2 8 9
M  V30 9 1 9 10
M  V30 10 2 10 11
M  V30 11 1 11 12
M  V30 12 1 12 13
M  V30 13 2 13 14
M  V30 14 1 14 15
M  V30 15 2 15 16
M  V30 16 1 16 17
M  V30 17 1 16 18
M  V30 18 1 18 19
M  V30 19 1 19 20
M  V30 20 1 20 21
M  V30 21 1 21 22
M  V30 22 1 22 23
M  V30 23 1 18 24
M  V30 24 1 24 25
M  V30 25 1 25 26
M  V30 26 2 26 27
M  V30 27 2 12 28
M  V30 28 2 7 29
M  V30 29 1 29 3
M  V30 30 1 28 8
M  V30 31 1 17 13
M  V30 32 1 23 18
M  V30 33 1 26 15
M  V30 34 1 1 30
M  V30 35 1 1 31
M  V30 36 1 1 32
M  V30 37 1 4 33
M  V30 38 1 6 34
M  V30 39 1 10 35
M  V30 40 1 11 36
M  V30 41 1 14 37
M  V30 42 1 17 38
M  V30 43 1 19 39
M  V30 44 1 19 40
M  V30 45 1 20 41
M  V30 46 1 20 42
M  V30 47 1 21 43
M  V30 48 1 21 44
M  V30 49 1 22 45
M  V30 50 1 23 46
M  V30 51 1 23 47
M  V30 52 1 24 48
M  V30 53 1 24 49
M  V30 54 1 25 50
M  V30 55 1 29 51
M  V30 END BOND
M  V30 END CTAB
M  END
>  <Dataset>  (224) 
ChEMBL_Kinases

>  <Ligand_Instance>  (224) 
nan

>  <PDB_ID>  (224) 
nan

>  <Standardized_SMILES>  (224) 
COc1cncc(-c2nccc(-c3cc4c([nH]3)C3(CCCNC3)CNC4=O)n2)c1

>  <Name>  (224) 
nan

>  <Pocket>  (224) 
nan

>  <ATP_Site>  (224) 
nan

>  <Peripheral>  (224) 
nan

>  <Num_H_Atoms_ProtBoundConf>  (224) 
nan

>  <Num_Resolved_Atoms>  (224) 
nan

>  <Num_Not_Resolved_Atoms>  (224) 
nan

$$$$
CHEMBL1779371
     RDKit          3D

  0  0  0  0  0  0  0  0  0  0999 V3000
M  V30 BEGIN CTAB
M  V30 COUNTS 61 65 0 0 0
M  V30 BEGIN ATOM
M  V30 1 C 5.041608 0.587668 2.332141 0
M  V30 2 O 6.159062 1.139325 1.754850 0
M  V30 3 C 6.955798 0.266720 1.076802 0
M  V30 4 C 6.364774 -0.375921 -0.152402 0
M  V30 5 C 6.034898 0.625774 -1.197605 0
M  V30 6 O 5.111796 1.600674 -0.939612 0
M  V30 7 C 3.793473 1.574719 -0.651642 0
M  V30 8 C 3.332253 2.886383 -0.468074 0
M  V30 9 C 1.993150 3.160709 -0.158496 0
M  V30 10 C 1.132257 2.087564 -0.038456 0
M  V30 11 C -0.275855 2.309089 0.282633 0
M  V30 12 N -0.796594 3.543664 0.474626 0
M  V30 13 C -2.113904 3.708725 0.772174 0
M  V30 14 C -2.960954 2.605733 0.886602 0
M  V30 15 C -2.425057 1.360057 0.690602 0
M  V30 16 C -3.210620 0.132245 0.783681 0
M  V30 17 C -4.556466 0.030530 1.070360 0
M  V30 18 C -4.812779 -1.324787 1.039953 0
M  V30 19 C -3.684874 -2.020316 0.750025 0
M  V30 20 N -2.693986 -1.094189 0.593121 0
M  V30 21 C -3.586989 -3.513220 0.633755 0
M  V30 22 C -3.682873 -3.847046 -0.800535 0
M  V30 23 C -2.465027 -4.368593 -1.473634 0
M  V30 24 C -1.402451 -4.903080 -0.566563 0
M  V30 25 N -1.152402 -3.881941 0.438579 0
M  V30 26 C -2.307493 -3.901070 1.310404 0
M  V30 27 C -4.710541 -4.123759 1.458753 0
M  V30 28 N -5.990270 -3.532635 1.155843 0
M  V30 29 C -6.049849 -2.096127 1.260271 0
M  V30 30 O -7.135530 -1.499228 1.534726 0
M  V30 31 N -1.113924 1.277786 0.399660 0
M  V30 32 C 1.594881 0.800158 -0.220766 0
M  V30 33 N 2.888116 0.588776 -0.516356 0
M  V30 34 H 4.383676 1.317913 2.863146 0
M  V30 35 H 4.434527 -0.025588 1.653381 0
M  V30 36 H 5.421910 -0.131958 3.131056 0
M  V30 37 H 7.901250 0.831376 0.812078 0
M  V30 38 H 7.287472 -0.515589 1.817509 0
M  V30 39 H 7.162932 -1.089399 -0.514608 0
M  V30 40 H 5.474278 -0.963387 0.183311 0
M  V30 41 H 5.730142 0.019429 -2.113997 0
M  V30 42 H 7.035093 1.053024 -1.534736 0
M  V30 43 H 3.898810 3.814015 -0.533088 0
M  V30 44 H 1.584860 4.143465 -0.007284 0
M  V30 45 H -2.495903 4.718481 0.919634 0
M  V30 46 H -4.013117 2.718392 1.123031 0
M  V30 47 H -5.261046 0.835682 1.275084 0
M  V30 48 H -1.686171 -1.335172 0.358260 0
M  V30 49 H -4.488949 -4.620473 -0.930564 0
M  V30 50 H -4.064337 -2.990553 -1.431268 0
M  V30 51 H -2.703565 -5.160345 -2.242012 0
M  V30 52 H -1.962018 -3.568216 -2.092850 0
M  V30 53 H -1.631177 -5.889075 -0.139333 0
M  V30 54 H -0.463719 -4.999882 -1.169690 0
M  V30 55 H -0.340997 -4.143813 1.052184 0
M  V30 56 H -2.042258 -3.209397 2.151720 0
M  V30 57 H -2.347324 -4.915103 1.762092 0
M  V30 58 H -4.452406 -4.024138 2.546426 0
M  V30 59 H -4.761580 -5.221042 1.246298 0
M  V30 60 H -6.864580 -4.039331 0.872282 0
M  V30 61 H 0.962757 -0.074319 -0.138054 0
M  V30 END ATOM
M  V30 BEGIN BOND
M  V30 1 1 1 2
M  V30 2 1 2 3
M  V30 3 1 3 4
M  V30 4 1 4 5
M  V30 5 1 5 6
M  V30 6 1 6 7
M  V30 7 2 7 8
M  V30 8 1 8 9
M  V30 9 2 9 10
M  V30 10 1 10 11
M  V30 11 2 11 12
M  V30 12 1 12 13
M  V30 13 2 13 14
M  V30 14 1 14 15
M  V30 15 1 15 16
M  V30 16 2 16 17
M  V30 17 1 17 18
M  V30 18 2 18 19
M  V30 19 1 19 20
M  V30 20 1 19 21
M  V30 21 1 21 22
M  V30 22 1 22 23
M  V30 23 1 23 24
M  V30 24 1 24 25
M  V30 25 1 25 26
M  V30 26 1 21 27
M  V30 27 1 27 28
M  V30 28 1 28 29
M  V30 29 2 29 30
M  V30 30 2 15 31
M  V30 31 1 10 32
M  V30 32 2 32 33
M  V30 33 1 33 7
M  V30 34 1 31 11
M  V30 35 1 20 16
M  V30 36 1 26 21
M  V30 37 1 29 18
M  V30 38 1 1 34
M  V30 39 1 1 35
M  V30 40 1 1 36
M  V30 41 1 3 37
M  V30 42 1 3 38
M  V30 43 1 4 39
M  V30 44 1 4 40
M  V30 45 1 5 41
M  V30 46 1 5 42
M  V30 47 1 8 43
M  V30 48 1 9 44
M  V30 49 1 13 45
M  V30 50 1 14 46
M  V30 51 1 17 47
M  V30 52 1 20 48
M  V30 53 1 22 49
M  V30 54 1 22 50
M  V30 55 1 23 51
M  V30 56 1 23 52
M  V30 57 1 24 53
M  V30 58 1 24 54
M  V30 59 1 25 55
M  V30 60 1 26 56
M  V30 61 1 26 57
M  V30 62 1 27 58
M  V30 63 1 27 59
M  V30 64 1 28 60
M  V30 65 1 32 61
M  V30 END BOND
M  V30 END CTAB
M  END
>  <Dataset>  (225) 
ChEMBL_Kinases

>  <Ligand_Instance>  (225) 
nan

>  <PDB_ID>  (225) 
nan

>  <Standardized_SMILES>  (225) 
COCCCOc1ccc(-c2nccc(-c3cc4c([nH]3)C3(CCCNC3)CNC4=O)n2)cn1

>  <Name>  (225) 
nan

>  <Pocket>  (225) 
nan

>  <ATP_Site>  (225) 
nan

>  <Peripheral>  (225) 
nan

>  <Num_H_Atoms_ProtBoundConf>  (225) 
nan

>  <Num_Resolved_Atoms>  (225) 
nan

>  <Num_Not_Resolved_Atoms>  (225) 
nan

$$$$
CHEMBL1779372
     RDKit          3D

  0  0  0  0  0  0  0  0  0  0999 V3000
M  V30 BEGIN CTAB
M  V30 COUNTS 51 56 0 0 0
M  V30 BEGIN ATOM
M  V30 1 O 2.456485 -3.691981 -0.240628 0
M  V30 2 C 2.805784 -2.579884 0.285153 0
M  V30 3 N 4.175449 -2.318369 0.657580 0
M  V30 4 C 4.547527 -0.900484 0.539279 0
M  V30 5 C 3.692576 -0.082605 1.485822 0 CFG=2
M  V30 6 C 4.060729 1.359861 1.340378 0
M  V30 7 C 4.172930 2.077688 2.668358 0
M  V30 8 C 5.108622 1.379894 3.615864 0
M  V30 9 N 5.213789 -0.022089 3.358698 0
M  V30 10 C 3.975630 -0.597004 2.882974 0
M  V30 11 C 2.266799 -0.340902 1.103697 0
M  V30 12 N 1.175661 0.452455 1.219710 0
M  V30 13 C 0.080354 -0.184824 0.745383 0
M  V30 14 C -1.299413 0.322934 0.687869 0
M  V30 15 C -1.620348 1.584408 1.145604 0
M  V30 16 C -2.945261 2.021246 1.069492 0
M  V30 17 N -3.916060 1.229320 0.555538 0
M  V30 18 C -3.577905 -0.013996 0.108613 0
M  V30 19 C -4.521243 -0.971222 -0.468091 0
M  V30 20 C -5.849627 -0.615936 -0.578305 0
M  V30 21 C -6.806438 -1.477844 -1.118288 0
M  V30 22 C -6.423962 -2.731893 -1.561138 0
M  V30 23 C -5.100218 -3.078709 -1.448330 0
M  V30 24 C -4.153762 -2.240738 -0.920210 0
M  V30 25 O -4.947251 -4.380880 -1.955348 0
M  V30 26 C -6.070537 -4.631092 -2.796195 0
M  V30 27 O -7.069181 -3.835752 -2.140632 0
M  V30 28 N -2.306452 -0.417631 0.188069 0
M  V30 29 C 0.454572 -1.428436 0.305252 0
M  V30 30 C 1.810790 -1.511984 0.532969 0
M  V30 31 H 4.740582 -3.142091 0.963054 0
M  V30 32 H 4.394428 -0.535066 -0.508396 0
M  V30 33 H 5.617593 -0.760249 0.788197 0
M  V30 34 H 3.306907 1.952185 0.748098 0
M  V30 35 H 5.069573 1.438301 0.880235 0
M  V30 36 H 4.643236 3.068101 2.446803 0
M  V30 37 H 3.217828 2.297867 3.149214 0
M  V30 38 H 6.153432 1.788068 3.577349 0
M  V30 39 H 4.780802 1.551570 4.681346 0
M  V30 40 H 6.003742 -0.207754 2.713541 0
M  V30 41 H 3.179044 -0.369781 3.608527 0
M  V30 42 H 4.136762 -1.713643 2.859590 0
M  V30 43 H 1.134802 1.423939 1.612152 0
M  V30 44 H -0.837728 2.221308 1.559319 0
M  V30 45 H -3.204490 2.998147 1.421889 0
M  V30 46 H -6.202150 0.341602 -0.251848 0
M  V30 47 H -7.846931 -1.193054 -1.201939 0
M  V30 48 H -3.087256 -2.497176 -0.819861 0
M  V30 49 H -6.336790 -5.692743 -2.803619 0
M  V30 50 H -5.849172 -4.242080 -3.825912 0
M  V30 51 H -0.156552 -2.227709 -0.142219 0
M  V30 END ATOM
M  V30 BEGIN BOND
M  V30 1 2 1 2
M  V30 2 1 2 3
M  V30 3 1 3 4
M  V30 4 1 5 4 CFG=3
M  V30 5 1 5 6
M  V30 6 1 6 7
M  V30 7 1 7 8
M  V30 8 1 8 9
M  V30 9 1 9 10
M  V30 10 1 5 11
M  V30 11 1 11 12
M  V30 12 1 12 13
M  V30 13 1 13 14
M  V30 14 2 14 15
M  V30 15 1 15 16
M  V30 16 2 16 17
M  V30 17 1 17 18
M  V30 18 1 18 19
M  V30 19 2 19 20
M  V30 20 1 20 21
M  V30 21 2 21 22
M  V30 22 1 22 23
M  V30 23 2 23 24
M  V30 24 1 23 25
M  V30 25 1 25 26
M  V30 26 1 26 27
M  V30 27 2 18 28
M  V30 28 2 13 29
M  V30 29 1 29 30
M  V30 30 1 30 2
M  V30 31 1 10 5
M  V30 32 2 30 11
M  V30 33 1 28 14
M  V30 34 1 24 19
M  V30 35 1 27 22
M  V30 36 1 3 31
M  V30 37 1 4 32
M  V30 38 1 4 33
M  V30 39 1 6 34
M  V30 40 1 6 35
M  V30 41 1 7 36
M  V30 42 1 7 37
M  V30 43 1 8 38
M  V30 44 1 8 39
M  V30 45 1 9 40
M  V30 46 1 10 41
M  V30 47 1 10 42
M  V30 48 1 12 43
M  V30 49 1 15 44
M  V30 50 1 16 45
M  V30 51 1 20 46
M  V30 52 1 21 47
M  V30 53 1 24 48
M  V30 54 1 26 49
M  V30 55 1 26 50
M  V30 56 1 29 51
M  V30 END BOND
M  V30 END CTAB
M  END
>  <Dataset>  (226) 
ChEMBL_Kinases

>  <Ligand_Instance>  (226) 
nan

>  <PDB_ID>  (226) 
nan

>  <Standardized_SMILES>  (226) 
O=C1NC[C@@]2(CCCNC2)c2[nH]c(-c3ccnc(-c4ccc5c(c4)OCO5)n3)cc21

>  <Name>  (226) 
nan

>  <Pocket>  (226) 
nan

>  <ATP_Site>  (226) 
nan

>  <Peripheral>  (226) 
nan

>  <Num_H_Atoms_ProtBoundConf>  (226) 
nan

>  <Num_Resolved_Atoms>  (226) 
nan

>  <Num_Not_Resolved_Atoms>  (226) 
nan

$$$$
CHEMBL1779373
     RDKit          3D

  0  0  0  0  0  0  0  0  0  0999 V3000
M  V30 BEGIN CTAB
M  V30 COUNTS 51 56 0 0 0
M  V30 BEGIN ATOM
M  V30 1 O 1.924545 -4.094806 0.574994 0
M  V30 2 C 2.504201 -3.017916 0.945601 0
M  V30 3 N 3.858512 -2.918939 1.414582 0
M  V30 4 C 4.470422 -1.637925 1.080339 0
M  V30 5 C 3.673587 -0.525894 1.745737 0 CFG=1
M  V30 6 C 3.772972 -0.704297 3.242042 0
M  V30 7 C 5.129209 -0.201931 3.685781 0
M  V30 8 C 5.106853 1.315813 3.598249 0
M  V30 9 N 4.168264 1.684406 2.549515 0
M  V30 10 C 4.253383 0.811932 1.416384 0
M  V30 11 C 2.270320 -0.635985 1.258564 0
M  V30 12 N 1.347788 0.358012 1.113384 0
M  V30 13 C 0.196362 -0.181634 0.639844 0
M  V30 14 C -1.052728 0.515475 0.336766 0
M  V30 15 C -1.165056 1.888792 0.524822 0
M  V30 16 C -2.369104 2.488839 0.220887 0
M  V30 17 N -3.452449 1.808550 -0.253030 0
M  V30 18 C -3.307988 0.462533 -0.425863 0
M  V30 19 C -4.390397 -0.404108 -0.930134 0
M  V30 20 C -5.569551 0.215132 -1.222528 0
M  V30 21 C -6.675137 -0.489039 -1.707855 0
M  V30 22 C -6.571284 -1.871294 -1.900337 0
M  V30 23 C -5.363879 -2.485031 -1.597595 0
M  V30 24 C -4.290669 -1.767741 -1.120934 0
M  V30 25 O -5.464593 -3.847691 -1.855245 0
M  V30 26 C -6.579473 -4.022575 -2.712107 0
M  V30 27 O -7.381574 -2.908606 -2.341707 0
M  V30 28 N -2.150368 -0.105108 -0.132123 0
M  V30 29 C 0.353202 -1.542460 0.468816 0
M  V30 30 C 1.649087 -1.814050 0.857435 0
M  V30 31 H 4.175468 -3.792337 1.920384 0
M  V30 32 H 4.501166 -1.479230 -0.021247 0
M  V30 33 H 5.511777 -1.689811 1.412313 0
M  V30 34 H 3.009371 -0.111635 3.790930 0
M  V30 35 H 3.599716 -1.754898 3.551786 0
M  V30 36 H 5.339571 -0.492875 4.747464 0
M  V30 37 H 5.958786 -0.521173 3.023375 0
M  V30 38 H 6.098747 1.713822 3.313649 0
M  V30 39 H 4.834273 1.778448 4.559350 0
M  V30 40 H 3.181218 1.702255 2.873596 0
M  V30 41 H 5.287920 0.714715 1.024416 0
M  V30 42 H 3.599734 1.267383 0.624612 0
M  V30 43 H 1.394049 1.402234 1.300315 0
M  V30 44 H -0.322694 2.447549 0.898212 0
M  V30 45 H -2.488092 3.561055 0.357249 0
M  V30 46 H -5.701267 1.266055 -1.093819 0
M  V30 47 H -7.624659 -0.072604 -1.956827 0
M  V30 48 H -3.340006 -2.220890 -0.877617 0
M  V30 49 H -7.085018 -4.996595 -2.551569 0
M  V30 50 H -6.233973 -3.930573 -3.759568 0
M  V30 51 H -0.342845 -2.290055 0.113369 0
M  V30 END ATOM
M  V30 BEGIN BOND
M  V30 1 2 1 2
M  V30 2 1 2 3
M  V30 3 1 3 4
M  V30 4 1 5 4 CFG=3
M  V30 5 1 5 6
M  V30 6 1 6 7
M  V30 7 1 7 8
M  V30 8 1 8 9
M  V30 9 1 9 10
M  V30 10 1 5 11
M  V30 11 1 11 12
M  V30 12 1 12 13
M  V30 13 1 13 14
M  V30 14 2 14 15
M  V30 15 1 15 16
M  V30 16 2 16 17
M  V30 17 1 17 18
M  V30 18 1 18 19
M  V30 19 2 19 20
M  V30 20 1 20 21
M  V30 21 2 21 22
M  V30 22 1 22 23
M  V30 23 2 23 24
M  V30 24 1 23 25
M  V30 25 1 25 26
M  V30 26 1 26 27
M  V30 27 2 18 28
M  V30 28 2 13 29
M  V30 29 1 29 30
M  V30 30 1 30 2
M  V30 31 1 10 5
M  V30 32 2 30 11
M  V30 33 1 28 14
M  V30 34 1 24 19
M  V30 35 1 27 22
M  V30 36 1 3 31
M  V30 37 1 4 32
M  V30 38 1 4 33
M  V30 39 1 6 34
M  V30 40 1 6 35
M  V30 41 1 7 36
M  V30 42 1 7 37
M  V30 43 1 8 38
M  V30 44 1 8 39
M  V30 45 1 9 40
M  V30 46 1 10 41
M  V30 47 1 10 42
M  V30 48 1 12 43
M  V30 49 1 15 44
M  V30 50 1 16 45
M  V30 51 1 20 46
M  V30 52 1 21 47
M  V30 53 1 24 48
M  V30 54 1 26 49
M  V30 55 1 26 50
M  V30 56 1 29 51
M  V30 END BOND
M  V30 END CTAB
M  END
>  <Dataset>  (227) 
ChEMBL_Kinases

>  <Ligand_Instance>  (227) 
nan

>  <PDB_ID>  (227) 
nan

>  <Standardized_SMILES>  (227) 
O=C1NC[C@]2(CCCNC2)c2[nH]c(-c3ccnc(-c4ccc5c(c4)OCO5)n3)cc21

>  <Name>  (227) 
nan

>  <Pocket>  (227) 
nan

>  <ATP_Site>  (227) 
nan

>  <Peripheral>  (227) 
nan

>  <Num_H_Atoms_ProtBoundConf>  (227) 
nan

>  <Num_Resolved_Atoms>  (227) 
nan

>  <Num_Not_Resolved_Atoms>  (227) 
nan

$$$$
CHEMBL1778821
     RDKit          3D

  0  0  0  0  0  0  0  0  0  0999 V3000
M  V30 BEGIN CTAB
M  V30 COUNTS 136 138 0 0 0
M  V30 BEGIN ATOM
M  V30 1 C 8.282141 -4.138740 1.184190 0
M  V30 2 C 7.168459 -4.049698 0.167740 0
M  V30 3 C 7.461004 -2.848035 -0.776112 0
M  V30 4 C 8.750499 -3.066060 -1.455886 0
M  V30 5 C 9.240400 -1.998230 -2.336729 0
M  V30 6 C 8.555572 -1.518920 -3.529644 0
M  V30 7 C 7.236888 -0.827614 -3.451672 0
M  V30 8 C 6.890056 -0.475157 -4.903473 0
M  V30 9 C 5.602731 0.233581 -5.072383 0
M  V30 10 C 4.383039 -0.469617 -4.577587 0
M  V30 11 C 3.199644 0.443020 -4.931922 0
M  V30 12 C 1.905268 -0.150177 -4.440978 0
M  V30 13 O 1.813931 -0.238046 -3.050124 0
M  V30 14 C 1.770633 1.033298 -2.474773 0 CFG=1
M  V30 15 C 0.441359 1.122874 -1.683244 0 CFG=1
M  V30 16 O -0.625819 1.431293 -2.507966 0
M  V30 17 C -1.404161 2.562191 -2.468844 0
M  V30 18 C -2.483045 2.606944 -3.492169 0
M  V30 19 O -1.266535 3.512851 -1.661516 0
M  V30 20 C 0.338132 -0.174802 -0.948206 0 CFG=2
M  V30 21 O -0.907079 -0.417273 -0.379997 0
M  V30 22 C -1.600398 -1.627635 -0.561349 0
M  V30 23 C -2.877870 -2.185604 -0.118525 0
M  V30 24 O -1.021919 -2.479048 -1.273362 0
M  V30 25 C 1.384071 -0.100266 0.175929 0 CFG=1
M  V30 26 O 1.291077 -1.252204 0.906475 0
M  V30 27 C 1.085033 -1.032154 2.264509 0
M  V30 28 C -0.139581 -0.283676 2.547014 0
M  V30 29 C -1.166806 0.343401 2.762722 0
M  V30 30 C -2.385581 1.084589 2.992687 0
M  V30 31 C -2.473190 2.362542 2.456077 0
M  V30 32 C -3.623918 3.114445 2.651079 0
M  V30 33 C -4.661608 2.564509 3.382008 0
M  V30 34 C -4.610632 1.315623 3.922460 0
M  V30 35 C -3.441527 0.573212 3.714263 0
M  V30 36 C -3.555147 -0.723974 4.353118 0
M  V30 37 O -2.710144 -1.670012 4.387179 0
M  V30 38 O -4.801637 -0.735486 4.938384 0
M  V30 39 C -5.500464 0.468033 4.722906 0 CFG=1
M  V30 40 C -5.751105 1.195017 6.050993 0
M  V30 41 O -4.536327 1.486021 6.661573 0
M  V30 42 C -6.851910 0.244185 4.109821 0
M  V30 43 O -6.759685 -0.399624 2.849611 0
M  V30 44 C -7.924504 -0.671508 2.196422 0
M  V30 45 O -8.810407 -0.232142 2.974553 0
M  V30 46 C -8.117428 -1.332268 0.875109 0
M  V30 47 C -7.493955 -0.526761 -0.177984 0
M  V30 48 C -6.036227 -0.256802 -0.125772 0
M  V30 49 C -7.911940 -1.035489 -1.548198 0
M  V30 50 C -8.167622 0.861354 -0.069961 0
M  V30 51 C -7.765870 -2.757067 1.049114 0
M  V30 52 C -8.724079 -3.314263 2.120641 0
M  V30 53 C -6.398855 -2.957355 1.673038 0
M  V30 54 C -7.861173 -3.662049 -0.117831 0
M  V30 55 C 2.780656 -0.025425 -0.440723 0 CFG=2
M  V30 56 O 3.640637 0.327194 0.622571 0
M  V30 57 C 4.733930 -0.373830 1.047584 0
M  V30 58 C 5.378259 0.340371 2.205682 0
M  V30 59 O 4.787955 -1.358180 0.303388 0
M  V30 60 C 2.826282 1.157728 -1.422172 0 CFG=1
M  V30 61 O 4.128698 1.337916 -1.867064 0
M  V30 62 C 4.822206 2.491950 -1.487101 0
M  V30 63 C 6.162670 3.061888 -1.721101 0
M  V30 64 O 4.206386 3.318672 -0.745366 0
M  V30 65 H 8.593568 -3.122169 1.456170 0
M  V30 66 H 9.158681 -4.642865 0.721648 0
M  V30 67 H 7.905442 -4.729441 2.067417 0
M  V30 68 H 7.186887 -4.952889 -0.458228 0
M  V30 69 H 6.186007 -3.914769 0.632333 0
M  V30 70 H 7.427825 -1.894754 -0.233498 0
M  V30 71 H 6.603376 -2.853761 -1.504123 0
M  V30 72 H 9.545440 -3.188339 -0.639386 0
M  V30 73 H 8.762721 -4.078494 -1.979176 0
M  V30 74 H 10.350576 -2.225995 -2.572897 0
M  V30 75 H 9.359742 -1.072697 -1.658036 0
M  V30 76 H 8.498642 -2.391954 -4.264234 0
M  V30 77 H 9.313037 -0.842160 -4.075645 0
M  V30 78 H 6.421508 -1.384520 -3.006468 0
M  V30 79 H 7.395504 0.151043 -2.941240 0
M  V30 80 H 6.994613 -1.363282 -5.543914 0
M  V30 81 H 7.705491 0.229048 -5.210657 0
M  V30 82 H 5.452030 0.386085 -6.177203 0
M  V30 83 H 5.592076 1.251223 -4.620208 0
M  V30 84 H 4.361803 -0.748659 -3.532265 0
M  V30 85 H 4.210155 -1.395030 -5.210282 0
M  V30 86 H 3.104113 0.526251 -6.032989 0
M  V30 87 H 3.348548 1.455435 -4.513146 0
M  V30 88 H 1.903618 -1.217973 -4.808297 0
M  V30 89 H 1.069926 0.427337 -4.872045 0
M  V30 90 H 1.838301 1.857455 -3.186929 0
M  V30 91 H 0.593627 1.943339 -0.955628 0
M  V30 92 H -3.337204 3.235007 -3.160159 0
M  V30 93 H -2.828492 1.601828 -3.790933 0
M  V30 94 H -2.067578 3.099767 -4.381332 0
M  V30 95 H 0.684400 -1.060401 -1.559425 0
M  V30 96 H -3.517346 -2.402655 -1.022122 0
M  V30 97 H -3.416503 -1.431537 0.476463 0
M  V30 98 H -2.778806 -3.146512 0.421458 0
M  V30 99 H 1.281346 0.827032 0.768506 0
M  V30 100 H 1.936016 -0.480580 2.696081 0
M  V30 101 H 1.042344 -2.020573 2.765535 0
M  V30 102 H -1.660107 2.795765 1.882886 0
M  V30 103 H -3.689645 4.104918 2.234507 0
M  V30 104 H -5.588512 3.113290 3.565370 0
M  V30 105 H -6.356780 0.549475 6.712085 0
M  V30 106 H -6.243734 2.171081 5.867454 0
M  V30 107 H -4.063443 0.637975 6.861080 0
M  V30 108 H -7.561452 -0.238312 4.804747 0
M  V30 109 H -7.286995 1.271315 3.939679 0
M  V30 110 H -9.230965 -1.245288 0.703785 0
M  V30 111 H -5.435117 -0.991228 -0.741165 0
M  V30 112 H -5.819179 0.706744 -0.683254 0
M  V30 113 H -5.609786 -0.070415 0.868656 0
M  V30 114 H -7.276680 -1.865177 -1.916404 0
M  V30 115 H -7.766119 -0.229495 -2.329647 0
M  V30 116 H -8.999942 -1.240034 -1.592852 0
M  V30 117 H -8.082076 1.423131 -1.013588 0
M  V30 118 H -9.232707 0.745901 0.203856 0
M  V30 119 H -7.702585 1.458866 0.727502 0
M  V30 120 H -8.310395 -3.175883 3.136421 0
M  V30 121 H -9.699048 -2.784125 2.016002 0
M  V30 122 H -8.864646 -4.405170 1.993349 0
M  V30 123 H -6.224653 -4.072856 1.619806 0
M  V30 124 H -6.473667 -2.714040 2.766119 0
M  V30 125 H -5.598230 -2.445398 1.150243 0
M  V30 126 H -8.671720 -3.483295 -0.827399 0
M  V30 127 H -6.851324 -3.814451 -0.607114 0
M  V30 128 H -8.067245 -4.707278 0.269793 0
M  V30 129 H 3.085167 -0.956441 -0.926740 0
M  V30 130 H 4.593770 0.536030 2.981471 0
M  V30 131 H 6.136286 -0.300037 2.710035 0
M  V30 132 H 5.802308 1.297729 1.853570 0
M  V30 133 H 2.495966 2.034611 -0.760830 0
M  V30 134 H 6.680428 3.314048 -0.762411 0
M  V30 135 H 6.828655 2.388225 -2.303246 0
M  V30 136 H 6.125117 4.025465 -2.278396 0
M  V30 END ATOM
M  V30 BEGIN BOND
M  V30 1 1 1 2
M  V30 2 1 2 3
M  V30 3 1 3 4
M  V30 4 1 4 5
M  V30 5 1 5 6
M  V30 6 1 6 7
M  V30 7 1 7 8
M  V30 8 1 8 9
M  V30 9 1 9 10
M  V30 10 1 10 11
M  V30 11 1 11 12
M  V30 12 1 12 13
M  V30 13 1 13 14
M  V30 14 1 14 15
M  V30 15 1 15 16
M  V30 16 1 16 17
M  V30 17 1 17 18
M  V30 18 2 17 19
M  V30 19 1 15 20
M  V30 20 1 20 21
M  V30 21 1 21 22
M  V30 22 1 22 23
M  V30 23 2 22 24
M  V30 24 1 20 25
M  V30 25 1 25 26
M  V30 26 1 26 27
M  V30 27 1 27 28
M  V30 28 3 28 29
M  V30 29 1 29 30
M  V30 30 2 30 31
M  V30 31 1 31 32
M  V30 32 2 32 33
M  V30 33 1 33 34
M  V30 34 2 34 35
M  V30 35 1 35 36
M  V30 36 2 36 37
M  V30 37 1 36 38
M  V30 38 1 38 39
M  V30 39 1 39 40 CFG=1
M  V30 40 1 40 41
M  V30 41 1 39 42
M  V30 42 1 42 43
M  V30 43 1 43 44
M  V30 44 2 44 45
M  V30 45 1 44 46
M  V30 46 1 46 47
M  V30 47 1 47 48
M  V30 48 1 47 49
M  V30 49 1 47 50
M  V30 50 1 46 51
M  V30 51 1 51 52
M  V30 52 1 51 53
M  V30 53 1 51 54
M  V30 54 1 25 55
M  V30 55 1 55 56
M  V30 56 1 56 57
M  V30 57 1 57 58
M  V30 58 2 57 59
M  V30 59 1 55 60
M  V30 60 1 60 61
M  V30 61 1 61 62
M  V30 62 1 62 63
M  V30 63 2 62 64
M  V30 64 1 60 14
M  V30 65 1 35 30
M  V30 66 1 39 34
M  V30 67 1 1 65
M  V30 68 1 1 66
M  V30 69 1 1 67
M  V30 70 1 2 68
M  V30 71 1 2 69
M  V30 72 1 3 70
M  V30 73 1 3 71
M  V30 74 1 4 72
M  V30 75 1 4 73
M  V30 76 1 5 74
M  V30 77 1 5 75
M  V30 78 1 6 76
M  V30 79 1 6 77
M  V30 80 1 7 78
M  V30 81 1 7 79
M  V30 82 1 8 80
M  V30 83 1 8 81
M  V30 84 1 9 82
M  V30 85 1 9 83
M  V30 86 1 10 84
M  V30 87 1 10 85
M  V30 88 1 11 86
M  V30 89 1 11 87
M  V30 90 1 12 88
M  V30 91 1 12 89
M  V30 92 1 14 90 CFG=3
M  V30 93 1 15 91 CFG=1
M  V30 94 1 18 92
M  V30 95 1 18 93
M  V30 96 1 18 94
M  V30 97 1 20 95 CFG=3
M  V30 98 1 23 96
M  V30 99 1 23 97
M  V30 100 1 23 98
M  V30 101 1 25 99 CFG=1
M  V30 102 1 27 100
M  V30 103 1 27 101
M  V30 104 1 31 102
M  V30 105 1 32 103
M  V30 106 1 33 104
M  V30 107 1 40 105
M  V30 108 1 40 106
M  V30 109 1 41 107
M  V30 110 1 42 108
M  V30 111 1 42 109
M  V30 112 1 46 110
M  V30 113 1 48 111
M  V30 114 1 48 112
M  V30 115 1 48 113
M  V30 116 1 49 114
M  V30 117 1 49 115
M  V30 118 1 49 116
M  V30 119 1 50 117
M  V30 120 1 50 118
M  V30 121 1 50 119
M  V30 122 1 52 120
M  V30 123 1 52 121
M  V30 124 1 52 122
M  V30 125 1 53 123
M  V30 126 1 53 124
M  V30 127 1 53 125
M  V30 128 1 54 126
M  V30 129 1 54 127
M  V30 130 1 54 128
M  V30 131 1 55 129 CFG=3
M  V30 132 1 58 130
M  V30 133 1 58 131
M  V30 134 1 58 132
M  V30 135 1 60 133 CFG=1
M  V30 136 1 63 134
M  V30 137 1 63 135
M  V30 138 1 63 136
M  V30 END BOND
M  V30 END CTAB
M  END
>  <Dataset>  (228) 
ChEMBL_Kinases

>  <Ligand_Instance>  (228) 
nan

>  <PDB_ID>  (228) 
nan

>  <Standardized_SMILES>  (228) 
CCCCCCCCCCCCO[C@H]1[C@@H](OC(C)=O)[C@H](OC(C)=O)[C@@H](OCC#Cc2cccc3c2C(=O)O[C@]3(CO)COC(=O)C(C(C)(C)C)C(C)(C)C)[C@H](OC(C)=O)[C@H]1OC(C)=O

>  <Name>  (228) 
nan

>  <Pocket>  (228) 
nan

>  <ATP_Site>  (228) 
nan

>  <Peripheral>  (228) 
nan

>  <Num_H_Atoms_ProtBoundConf>  (228) 
nan

>  <Num_Resolved_Atoms>  (228) 
nan

>  <Num_Not_Resolved_Atoms>  (228) 
nan

$$$$
CHEMBL1681989
     RDKit          3D

  0  0  0  0  0  0  0  0  0  0999 V3000
M  V30 BEGIN CTAB
M  V30 COUNTS 59 63 0 0 0
M  V30 BEGIN ATOM
M  V30 1 N 7.093035 -2.173801 3.489688 0
M  V30 2 C 5.774905 -1.699676 3.381357 0
M  V30 3 O 4.683388 -2.228948 3.784220 0
M  V30 4 N 5.595067 -0.445475 2.730798 0
M  V30 5 C 4.283087 0.067506 2.600486 0
M  V30 6 S 3.280734 -0.342435 1.124962 0
M  V30 7 C 1.881828 0.567203 1.608556 0
M  V30 8 C 2.188359 1.136120 2.819605 0
M  V30 9 C 3.431590 0.876276 3.331943 0
M  V30 10 C 4.062206 1.311240 4.565676 0
M  V30 11 N 3.411996 2.147196 5.498044 0
M  V30 12 O 5.203520 1.012077 4.933750 0
M  V30 13 C 1.243131 2.005140 3.561442 0
M  V30 14 C -0.079472 2.181753 2.963371 0
M  V30 15 C -0.325980 1.553085 1.656564 0
M  V30 16 N -1.392602 1.567514 0.862459 0
M  V30 17 N -1.166258 0.843749 -0.229633 0
M  V30 18 C -2.108980 0.638825 -1.309851 0
M  V30 19 C -3.496258 1.072964 -0.963281 0
M  V30 20 C -4.470782 0.606535 -1.993750 0
M  V30 21 C -3.832307 -0.107025 -3.154092 0
M  V30 22 N -2.962998 -1.172270 -2.751884 0
M  V30 23 C -3.650934 -2.426217 -2.589292 0
M  V30 24 C -2.721130 -3.484335 -2.177115 0
M  V30 25 C -2.619711 -3.994762 -0.891233 0
M  V30 26 C -1.707679 -4.989695 -0.625255 0
M  V30 27 C -0.888172 -5.496240 -1.603876 0
M  V30 28 O 0.056895 -6.494608 -1.430218 0
M  V30 29 C -0.974781 -4.995182 -2.906709 0
M  V30 30 C -1.893018 -3.991011 -3.182309 0
M  V30 31 F -1.965742 -3.509625 -4.465942 0
M  V30 32 C -2.137177 -0.862406 -1.629416 0
M  V30 33 C 0.078185 0.308317 -0.210860 0
M  V30 34 C 0.586566 0.768859 0.984666 0
M  V30 35 H 7.853871 -1.618373 3.953261 0
M  V30 36 H 7.589486 -3.035348 3.200195 0
M  V30 37 H 6.369612 0.123041 2.342156 0
M  V30 38 H 2.867738 1.681178 6.265786 0
M  V30 39 H 2.951968 2.773416 6.158083 0
M  V30 40 H 1.083176 1.596773 4.611731 0
M  V30 41 H 1.752679 2.985920 3.744276 0
M  V30 42 H -0.219163 3.301231 2.793802 0
M  V30 43 H -0.902491 1.957440 3.692064 0
M  V30 44 H -1.764827 1.168421 -2.199169 0
M  V30 45 H -3.543329 2.193794 -0.931269 0
M  V30 46 H -3.840495 0.721808 0.023819 0
M  V30 47 H -5.053808 1.460761 -2.448264 0
M  V30 48 H -5.254611 -0.063208 -1.549540 0
M  V30 49 H -3.274810 0.637572 -3.785515 0
M  V30 50 H -4.668736 -0.575660 -3.743472 0
M  V30 51 H -4.387076 -2.307890 -1.747846 0
M  V30 52 H -4.187917 -2.683544 -3.533117 0
M  V30 53 H -3.269637 -3.588202 -0.129667 0
M  V30 54 H -1.619528 -5.391100 0.357857 0
M  V30 55 H 1.044728 -6.374875 -1.551736 0
M  V30 56 H -0.345140 -5.364557 -3.722289 0
M  V30 57 H -2.441001 -1.419016 -0.731019 0
M  V30 58 H -1.085183 -1.120895 -1.891467 0
M  V30 59 H 0.552855 -0.324269 -0.951985 0
M  V30 END ATOM
M  V30 BEGIN BOND
M  V30 1 1 1 2
M  V30 2 2 2 3
M  V30 3 1 2 4
M  V30 4 1 4 5
M  V30 5 1 5 6
M  V30 6 1 6 7
M  V30 7 2 7 8
M  V30 8 1 8 9
M  V30 9 1 9 10
M  V30 10 1 10 11
M  V30 11 2 10 12
M  V30 12 1 8 13
M  V30 13 1 13 14
M  V30 14 1 14 15
M  V30 15 2 15 16
M  V30 16 1 16 17
M  V30 17 1 17 18
M  V30 18 1 18 19
M  V30 19 1 19 20
M  V30 20 1 20 21
M  V30 21 1 21 22
M  V30 22 1 22 23
M  V30 23 1 23 24
M  V30 24 2 24 25
M  V30 25 1 25 26
M  V30 26 2 26 27
M  V30 27 1 27 28
M  V30 28 1 27 29
M  V30 29 2 29 30
M  V30 30 1 30 31
M  V30 31 1 22 32
M  V30 32 1 17 33
M  V30 33 2 33 34
M  V30 34 2 9 5
M  V30 35 1 34 15
M  V30 36 1 34 7
M  V30 37 1 32 18
M  V30 38 1 30 24
M  V30 39 1 1 35
M  V30 40 1 1 36
M  V30 41 1 4 37
M  V30 42 1 11 38
M  V30 43 1 11 39
M  V30 44 1 13 40
M  V30 45 1 13 41
M  V30 46 1 14 42
M  V30 47 1 14 43
M  V30 48 1 18 44
M  V30 49 1 19 45
M  V30 50 1 19 46
M  V30 51 1 20 47
M  V30 52 1 20 48
M  V30 53 1 21 49
M  V30 54 1 21 50
M  V30 55 1 23 51
M  V30 56 1 23 52
M  V30 57 1 25 53
M  V30 58 1 26 54
M  V30 59 1 28 55
M  V30 60 1 29 56
M  V30 61 1 32 57
M  V30 62 1 32 58
M  V30 63 1 33 59
M  V30 END BOND
M  V30 END CTAB
M  END
>  <Dataset>  (229) 
ChEMBL_Kinases

>  <Ligand_Instance>  (229) 
nan

>  <PDB_ID>  (229) 
nan

>  <Standardized_SMILES>  (229) 
NC(=O)Nc1sc2c(c1C(N)=O)CCc1nn(C3CCCN(Cc4ccc(O)cc4F)C3)cc1-2

>  <Name>  (229) 
nan

>  <Pocket>  (229) 
nan

>  <ATP_Site>  (229) 
nan

>  <Peripheral>  (229) 
nan

>  <Num_H_Atoms_ProtBoundConf>  (229) 
nan

>  <Num_Resolved_Atoms>  (229) 
nan

>  <Num_Not_Resolved_Atoms>  (229) 
nan

$$$$
CHEMBL1681987
     RDKit          3D

  0  0  0  0  0  0  0  0  0  0999 V3000
M  V30 BEGIN CTAB
M  V30 COUNTS 58 62 0 0 0
M  V30 BEGIN ATOM
M  V30 1 N 5.647854 -3.204280 4.401865 0
M  V30 2 C 4.637005 -2.461458 3.736256 0
M  V30 3 O 3.496654 -2.963093 3.939845 0
M  V30 4 N 4.923315 -1.327785 2.967444 0
M  V30 5 C 3.844779 -0.665672 2.350524 0
M  V30 6 S 2.140595 -1.245008 2.532445 0
M  V30 7 C 1.410032 0.033285 1.526362 0
M  V30 8 C 2.439881 0.786711 1.128995 0
M  V30 9 C 3.719872 0.489731 1.512765 0
M  V30 10 C 4.971875 1.161896 1.204612 0
M  V30 11 N 5.025328 2.320961 0.386147 0
M  V30 12 O 6.065969 0.767546 1.634593 0
M  V30 13 C 2.159873 1.943301 0.247063 0
M  V30 14 C 0.750632 2.227428 -0.023683 0
M  V30 15 C -0.274745 1.306011 0.450321 0
M  V30 16 N -1.593669 1.306188 0.272778 0
M  V30 17 N -2.106605 0.248362 0.926862 0
M  V30 18 C -3.496898 -0.152031 1.012698 0
M  V30 19 C -4.456768 0.897257 0.553298 0
M  V30 20 C -5.280893 0.467029 -0.638862 0
M  V30 21 C -4.361260 0.046347 -1.758768 0
M  V30 22 N -3.332483 -0.809107 -1.262189 0
M  V30 23 C -2.915266 -1.833607 -2.194579 0
M  V30 24 C -1.841436 -2.696340 -1.623249 0
M  V30 25 C -2.063254 -3.976216 -1.152050 0
M  V30 26 C -1.120692 -4.806334 -0.620437 0
M  V30 27 F -1.490422 -6.034181 -0.201085 0
M  V30 28 C 0.174188 -4.341736 -0.538902 0
M  V30 29 F 1.125208 -5.152576 -0.013126 0
M  V30 30 C 0.458224 -3.074325 -0.992058 0
M  V30 31 C -0.521753 -2.238434 -1.533781 0
M  V30 32 F -0.191607 -1.007949 -1.962399 0
M  V30 33 C -3.633810 -1.331218 0.040369 0
M  V30 34 C -1.117531 -0.455463 1.540782 0
M  V30 35 C 0.019724 0.214432 1.235220 0
M  V30 36 H 6.075375 -3.952482 3.812019 0
M  V30 37 H 6.046584 -3.140753 5.379828 0
M  V30 38 H 5.910720 -1.099483 2.938005 0
M  V30 39 H 5.140724 2.080132 -0.619347 0
M  V30 40 H 4.975821 3.352282 0.566481 0
M  V30 41 H 2.630411 2.888058 0.673198 0
M  V30 42 H 2.760895 1.806374 -0.703601 0
M  V30 43 H 0.612411 2.287334 -1.148038 0
M  V30 44 H 0.498106 3.283738 0.299644 0
M  V30 45 H -3.697423 -0.488572 2.055073 0
M  V30 46 H -5.163945 1.093898 1.403168 0
M  V30 47 H -3.952518 1.863433 0.306106 0
M  V30 48 H -5.904816 1.350456 -0.930925 0
M  V30 49 H -6.003799 -0.330940 -0.337998 0
M  V30 50 H -4.932979 -0.405908 -2.599270 0
M  V30 51 H -3.871414 1.000018 -2.108542 0
M  V30 52 H -2.550545 -1.321227 -3.109150 0
M  V30 53 H -3.763804 -2.487569 -2.500917 0
M  V30 54 H -3.089552 -4.325118 -1.224488 0
M  V30 55 H 1.481319 -2.739030 -0.914665 0
M  V30 56 H -4.630287 -1.748719 0.169252 0
M  V30 57 H -2.839763 -2.100941 0.258964 0
M  V30 58 H -1.198826 -1.342502 2.136393 0
M  V30 END ATOM
M  V30 BEGIN BOND
M  V30 1 1 1 2
M  V30 2 2 2 3
M  V30 3 1 2 4
M  V30 4 1 4 5
M  V30 5 1 5 6
M  V30 6 1 6 7
M  V30 7 2 7 8
M  V30 8 1 8 9
M  V30 9 1 9 10
M  V30 10 1 10 11
M  V30 11 2 10 12
M  V30 12 1 8 13
M  V30 13 1 13 14
M  V30 14 1 14 15
M  V30 15 2 15 16
M  V30 16 1 16 17
M  V30 17 1 17 18
M  V30 18 1 18 19
M  V30 19 1 19 20
M  V30 20 1 20 21
M  V30 21 1 21 22
M  V30 22 1 22 23
M  V30 23 1 23 24
M  V30 24 2 24 25
M  V30 25 1 25 26
M  V30 26 1 26 27
M  V30 27 2 26 28
M  V30 28 1 28 29
M  V30 29 1 28 30
M  V30 30 2 30 31
M  V30 31 1 31 32
M  V30 32 1 22 33
M  V30 33 1 17 34
M  V30 34 2 34 35
M  V30 35 2 9 5
M  V30 36 1 35 15
M  V30 37 1 35 7
M  V30 38 1 33 18
M  V30 39 1 31 24
M  V30 40 1 1 36
M  V30 41 1 1 37
M  V30 42 1 4 38
M  V30 43 1 11 39
M  V30 44 1 11 40
M  V30 45 1 13 41
M  V30 46 1 13 42
M  V30 47 1 14 43
M  V30 48 1 14 44
M  V30 49 1 18 45
M  V30 50 1 19 46
M  V30 51 1 19 47
M  V30 52 1 20 48
M  V30 53 1 20 49
M  V30 54 1 21 50
M  V30 55 1 21 51
M  V30 56 1 23 52
M  V30 57 1 23 53
M  V30 58 1 25 54
M  V30 59 1 30 55
M  V30 60 1 33 56
M  V30 61 1 33 57
M  V30 62 1 34 58
M  V30 END BOND
M  V30 END CTAB
M  END
>  <Dataset>  (230) 
ChEMBL_Kinases

>  <Ligand_Instance>  (230) 
nan

>  <PDB_ID>  (230) 
nan

>  <Standardized_SMILES>  (230) 
NC(=O)Nc1sc2c(c1C(N)=O)CCc1nn(C3CCCN(Cc4cc(F)c(F)cc4F)C3)cc1-2

>  <Name>  (230) 
nan

>  <Pocket>  (230) 
nan

>  <ATP_Site>  (230) 
nan

>  <Peripheral>  (230) 
nan

>  <Num_H_Atoms_ProtBoundConf>  (230) 
nan

>  <Num_Resolved_Atoms>  (230) 
nan

>  <Num_Not_Resolved_Atoms>  (230) 
nan

$$$$
CHEMBL1681986
     RDKit          3D

  0  0  0  0  0  0  0  0  0  0999 V3000
M  V30 BEGIN CTAB
M  V30 COUNTS 58 62 0 0 0
M  V30 BEGIN ATOM
M  V30 1 N 4.683730 -3.473582 4.850427 0
M  V30 2 C 3.920934 -2.573667 4.062758 0
M  V30 3 O 2.874864 -3.132913 3.608735 0
M  V30 4 N 4.323680 -1.250889 3.850851 0
M  V30 5 C 3.511320 -0.401138 3.050037 0
M  V30 6 S 1.954899 -1.039441 2.305676 0
M  V30 7 C 1.515413 0.419877 1.526585 0
M  V30 8 C 2.470010 1.311855 1.808099 0
M  V30 9 C 3.521588 0.921408 2.596604 0
M  V30 10 C 4.684945 1.663123 3.060851 0
M  V30 11 N 4.916434 3.024706 2.734045 0
M  V30 12 O 5.573753 1.177225 3.779166 0
M  V30 13 C 2.433505 2.693469 1.270491 0
M  V30 14 C 1.211704 3.057707 0.553319 0
M  V30 15 C 0.231303 1.997551 0.250316 0
M  V30 16 N -0.889189 2.006456 -0.455555 0
M  V30 17 N -1.460038 0.788528 -0.424529 0
M  V30 18 C -2.703468 0.481536 -1.108066 0
M  V30 19 C -3.883539 0.660583 -0.186107 0
M  V30 20 C -5.147462 0.251271 -0.892862 0
M  V30 21 C -5.058087 -1.108739 -1.539988 0
M  V30 22 N -3.770201 -1.701322 -1.442957 0
M  V30 23 C -3.667540 -3.081049 -1.752961 0
M  V30 24 C -2.271882 -3.603149 -1.619530 0
M  V30 25 C -1.436037 -3.871676 -2.690881 0
M  V30 26 C -0.162904 -4.350564 -2.483628 0
M  V30 27 C 0.306977 -4.573484 -1.190291 0
M  V30 28 F 1.563456 -5.046286 -0.974450 0
M  V30 29 C -0.487237 -4.321503 -0.088052 0
M  V30 30 C -1.746995 -3.844954 -0.365527 0
M  V30 31 F -2.549842 -3.588513 0.701005 0
M  V30 32 C -2.656623 -0.879673 -1.758303 0
M  V30 33 C -0.721597 -0.084937 0.317595 0
M  V30 34 C 0.327382 0.709310 0.721037 0
M  V30 35 H 5.479869 -3.805822 4.280996 0
M  V30 36 H 5.500636 -3.806670 4.248285 0
M  V30 37 H 5.194903 -1.007211 4.306826 0
M  V30 38 H 5.389758 3.024057 1.781737 0
M  V30 39 H 4.803186 3.998652 3.064644 0
M  V30 40 H 2.609717 3.447460 2.091981 0
M  V30 41 H 3.291969 2.741887 0.543268 0
M  V30 42 H 0.639604 3.803245 1.208478 0
M  V30 43 H 1.475097 3.640969 -0.372020 0
M  V30 44 H -2.854178 1.200410 -1.942255 0
M  V30 45 H -3.755656 0.237353 0.815413 0
M  V30 46 H -3.975229 1.774422 -0.033452 0
M  V30 47 H -5.977675 0.319123 -0.134108 0
M  V30 48 H -5.356340 0.994416 -1.688198 0
M  V30 49 H -5.801202 -1.750656 -1.051693 0
M  V30 50 H -5.327629 -1.073961 -2.631430 0
M  V30 51 H -4.292838 -3.716477 -1.093620 0
M  V30 52 H -4.020544 -3.233065 -2.801370 0
M  V30 53 H -1.835155 -3.686170 -3.690213 0
M  V30 54 H 0.464140 -4.549675 -3.353654 0
M  V30 55 H -0.171626 -4.477400 0.941297 0
M  V30 56 H -2.479345 -0.830712 -2.852701 0
M  V30 57 H -1.742398 -1.398363 -1.344177 0
M  V30 58 H -0.927716 -1.120790 0.519321 0
M  V30 END ATOM
M  V30 BEGIN BOND
M  V30 1 1 1 2
M  V30 2 2 2 3
M  V30 3 1 2 4
M  V30 4 1 4 5
M  V30 5 1 5 6
M  V30 6 1 6 7
M  V30 7 2 7 8
M  V30 8 1 8 9
M  V30 9 1 9 10
M  V30 10 1 10 11
M  V30 11 2 10 12
M  V30 12 1 8 13
M  V30 13 1 13 14
M  V30 14 1 14 15
M  V30 15 2 15 16
M  V30 16 1 16 17
M  V30 17 1 17 18
M  V30 18 1 18 19
M  V30 19 1 19 20
M  V30 20 1 20 21
M  V30 21 1 21 22
M  V30 22 1 22 23
M  V30 23 1 23 24
M  V30 24 2 24 25
M  V30 25 1 25 26
M  V30 26 2 26 27
M  V30 27 1 27 28
M  V30 28 1 27 29
M  V30 29 2 29 30
M  V30 30 1 30 31
M  V30 31 1 22 32
M  V30 32 1 17 33
M  V30 33 2 33 34
M  V30 34 2 9 5
M  V30 35 1 34 15
M  V30 36 1 34 7
M  V30 37 1 32 18
M  V30 38 1 30 24
M  V30 39 1 1 35
M  V30 40 1 1 36
M  V30 41 1 4 37
M  V30 42 1 11 38
M  V30 43 1 11 39
M  V30 44 1 13 40
M  V30 45 1 13 41
M  V30 46 1 14 42
M  V30 47 1 14 43
M  V30 48 1 18 44
M  V30 49 1 19 45
M  V30 50 1 19 46
M  V30 51 1 20 47
M  V30 52 1 20 48
M  V30 53 1 21 49
M  V30 54 1 21 50
M  V30 55 1 23 51
M  V30 56 1 23 52
M  V30 57 1 25 53
M  V30 58 1 26 54
M  V30 59 1 29 55
M  V30 60 1 32 56
M  V30 61 1 32 57
M  V30 62 1 33 58
M  V30 END BOND
M  V30 END CTAB
M  END
>  <Dataset>  (231) 
ChEMBL_Kinases

>  <Ligand_Instance>  (231) 
nan

>  <PDB_ID>  (231) 
nan

>  <Standardized_SMILES>  (231) 
NC(=O)Nc1sc2c(c1C(N)=O)CCc1nn(C3CCCN(Cc4ccc(F)cc4F)C3)cc1-2

>  <Name>  (231) 
nan

>  <Pocket>  (231) 
nan

>  <ATP_Site>  (231) 
nan

>  <Peripheral>  (231) 
nan

>  <Num_H_Atoms_ProtBoundConf>  (231) 
nan

>  <Num_Resolved_Atoms>  (231) 
nan

>  <Num_Not_Resolved_Atoms>  (231) 
nan

$$$$
CHEMBL1681985
     RDKit          3D

  0  0  0  0  0  0  0  0  0  0999 V3000
M  V30 BEGIN CTAB
M  V30 COUNTS 58 62 0 0 0
M  V30 BEGIN ATOM
M  V30 1 N 5.561807 -3.001265 4.590381 0
M  V30 2 C 4.634718 -2.199084 3.866968 0
M  V30 3 O 3.907837 -2.915721 3.140179 0
M  V30 4 N 4.583095 -0.786956 3.988131 0
M  V30 5 C 3.624966 -0.028996 3.232239 0
M  V30 6 S 2.535631 -0.937308 2.176475 0
M  V30 7 C 1.657385 0.600852 1.575575 0
M  V30 8 C 2.284854 1.594680 2.235825 0
M  V30 9 C 3.304782 1.251145 3.092449 0
M  V30 10 C 4.105983 2.169157 3.895800 0
M  V30 11 N 3.964780 3.582486 3.925845 0
M  V30 12 O 5.015889 1.819935 4.656664 0
M  V30 13 C 1.856503 2.994919 2.024416 0
M  V30 14 C 0.790395 3.182218 1.058203 0
M  V30 15 C 0.170634 2.020972 0.407899 0
M  V30 16 N -0.824277 1.906807 -0.473946 0
M  V30 17 N -1.008214 0.607532 -0.765913 0
M  V30 18 C -2.039548 0.217873 -1.706030 0
M  V30 19 C -3.344568 0.817012 -1.163417 0
M  V30 20 C -4.359653 0.579624 -2.268404 0
M  V30 21 C -4.360395 -0.816168 -2.775241 0
M  V30 22 N -3.496963 -1.715283 -2.113258 0
M  V30 23 C -3.624019 -3.082787 -2.468592 0
M  V30 24 C -2.662572 -3.934907 -1.727418 0
M  V30 25 C -1.511699 -4.441872 -2.340657 0
M  V30 26 C -0.573552 -5.237416 -1.726213 0
M  V30 27 C -0.789248 -5.554074 -0.410652 0
M  V30 28 Cl 0.446050 -6.575943 0.326620 0
M  V30 29 C -1.904404 -5.088753 0.259757 0
M  V30 30 C -2.821013 -4.291447 -0.399489 0
M  V30 31 F -3.923007 -3.837447 0.276149 0
M  V30 32 C -2.231288 -1.260980 -1.690168 0
M  V30 33 C -0.150437 -0.184592 -0.095591 0
M  V30 34 C 0.577505 0.725960 0.633169 0
M  V30 35 H 5.462409 -3.588154 5.454387 0
M  V30 36 H 6.574922 -3.121620 4.323931 0
M  V30 37 H 5.285066 -0.449729 4.647621 0
M  V30 38 H 3.213445 3.772238 4.655945 0
M  V30 39 H 4.661419 3.944520 3.207386 0
M  V30 40 H 1.492887 3.387601 3.018160 0
M  V30 41 H 2.736410 3.657794 1.808647 0
M  V30 42 H 0.000594 3.898717 1.429457 0
M  V30 43 H 1.232373 3.779638 0.186124 0
M  V30 44 H -1.827723 0.642857 -2.699563 0
M  V30 45 H -3.636496 0.201716 -0.302272 0
M  V30 46 H -3.275341 1.887211 -0.965500 0
M  V30 47 H -4.048517 1.300860 -3.082056 0
M  V30 48 H -5.374418 0.896279 -1.991649 0
M  V30 49 H -5.393388 -1.254535 -2.742468 0
M  V30 50 H -4.094953 -0.806436 -3.868856 0
M  V30 51 H -4.648500 -3.485564 -2.332219 0
M  V30 52 H -3.358381 -3.182838 -3.561035 0
M  V30 53 H -1.394530 -4.153907 -3.393421 0
M  V30 54 H 0.264241 -5.544469 -2.354024 0
M  V30 55 H -2.002400 -5.382530 1.297002 0
M  V30 56 H -1.456750 -1.760896 -2.324016 0
M  V30 57 H -2.006316 -1.603850 -0.638208 0
M  V30 58 H -0.059402 -1.252928 -0.123865 0
M  V30 END ATOM
M  V30 BEGIN BOND
M  V30 1 1 1 2
M  V30 2 2 2 3
M  V30 3 1 2 4
M  V30 4 1 4 5
M  V30 5 1 5 6
M  V30 6 1 6 7
M  V30 7 2 7 8
M  V30 8 1 8 9
M  V30 9 1 9 10
M  V30 10 1 10 11
M  V30 11 2 10 12
M  V30 12 1 8 13
M  V30 13 1 13 14
M  V30 14 1 14 15
M  V30 15 2 15 16
M  V30 16 1 16 17
M  V30 17 1 17 18
M  V30 18 1 18 19
M  V30 19 1 19 20
M  V30 20 1 20 21
M  V30 21 1 21 22
M  V30 22 1 22 23
M  V30 23 1 23 24
M  V30 24 2 24 25
M  V30 25 1 25 26
M  V30 26 2 26 27
M  V30 27 1 27 28
M  V30 28 1 27 29
M  V30 29 2 29 30
M  V30 30 1 30 31
M  V30 31 1 22 32
M  V30 32 1 17 33
M  V30 33 2 33 34
M  V30 34 2 9 5
M  V30 35 1 34 15
M  V30 36 1 34 7
M  V30 37 1 32 18
M  V30 38 1 30 24
M  V30 39 1 1 35
M  V30 40 1 1 36
M  V30 41 1 4 37
M  V30 42 1 11 38
M  V30 43 1 11 39
M  V30 44 1 13 40
M  V30 45 1 13 41
M  V30 46 1 14 42
M  V30 47 1 14 43
M  V30 48 1 18 44
M  V30 49 1 19 45
M  V30 50 1 19 46
M  V30 51 1 20 47
M  V30 52 1 20 48
M  V30 53 1 21 49
M  V30 54 1 21 50
M  V30 55 1 23 51
M  V30 56 1 23 52
M  V30 57 1 25 53
M  V30 58 1 26 54
M  V30 59 1 29 55
M  V30 60 1 32 56
M  V30 61 1 32 57
M  V30 62 1 33 58
M  V30 END BOND
M  V30 END CTAB
M  END
>  <Dataset>  (232) 
ChEMBL_Kinases

>  <Ligand_Instance>  (232) 
nan

>  <PDB_ID>  (232) 
nan

>  <Standardized_SMILES>  (232) 
NC(=O)Nc1sc2c(c1C(N)=O)CCc1nn(C3CCCN(Cc4ccc(Cl)cc4F)C3)cc1-2

>  <Name>  (232) 
nan

>  <Pocket>  (232) 
nan

>  <ATP_Site>  (232) 
nan

>  <Peripheral>  (232) 
nan

>  <Num_H_Atoms_ProtBoundConf>  (232) 
nan

>  <Num_Resolved_Atoms>  (232) 
nan

>  <Num_Not_Resolved_Atoms>  (232) 
nan

$$$$
CHEMBL1681984
     RDKit          3D

  0  0  0  0  0  0  0  0  0  0999 V3000
M  V30 BEGIN CTAB
M  V30 COUNTS 58 62 0 0 0
M  V30 BEGIN ATOM
M  V30 1 N 6.765838 -2.524745 3.819345 0
M  V30 2 C 5.618846 -1.756500 3.530408 0
M  V30 3 O 4.588826 -1.716410 4.284754 0
M  V30 4 N 5.496658 -0.949690 2.368518 0
M  V30 5 C 4.343901 -0.207056 2.124095 0
M  V30 6 S 2.974325 -1.050247 1.140374 0
M  V30 7 C 1.920779 0.284626 1.178793 0
M  V30 8 C 2.500484 1.299853 1.859472 0
M  V30 9 C 3.747095 1.047241 2.345781 0
M  V30 10 C 4.706410 1.828256 3.111511 0
M  V30 11 N 4.438444 3.161179 3.511869 0
M  V30 12 O 5.815096 1.461831 3.493551 0
M  V30 13 C 1.915604 2.637224 2.127278 0
M  V30 14 C 0.586943 2.831693 1.542725 0
M  V30 15 C -0.016703 1.695902 0.815457 0
M  V30 16 N -1.191290 1.598134 0.222785 0
M  V30 17 N -1.336888 0.383214 -0.325765 0
M  V30 18 C -2.569511 0.066252 -1.034284 0
M  V30 19 C -2.964862 1.203901 -1.957729 0
M  V30 20 C -3.956828 0.609505 -2.935724 0
M  V30 21 C -4.663403 -0.614372 -2.376435 0
M  V30 22 N -3.737096 -1.694566 -2.114679 0
M  V30 23 C -4.093412 -2.492791 -0.966324 0
M  V30 24 C -3.143165 -3.595908 -0.676950 0
M  V30 25 C -3.395923 -4.785778 -1.341742 0
M  V30 26 C -2.630358 -5.935648 -1.200689 0
M  V30 27 C -1.546205 -5.913538 -0.350778 0
M  V30 28 Cl -0.512396 -7.301822 -0.095073 0
M  V30 29 C -1.295579 -4.733802 0.308455 0
M  V30 30 C -2.050605 -3.589858 0.173418 0
M  V30 31 C -2.412423 -1.152921 -1.904850 0
M  V30 32 C -0.260963 -0.377372 -0.118377 0
M  V30 33 C 0.551232 0.466127 0.598102 0
M  V30 34 H 6.545187 -3.553530 3.703377 0
M  V30 35 H 7.756759 -2.359721 4.111187 0
M  V30 36 H 6.305366 -0.929061 1.694561 0
M  V30 37 H 4.461136 4.193961 3.426054 0
M  V30 38 H 3.928917 3.116990 4.397889 0
M  V30 39 H 1.861881 2.833157 3.230751 0
M  V30 40 H 2.594484 3.446766 1.719079 0
M  V30 41 H 0.575030 3.730017 0.858954 0
M  V30 42 H -0.120558 3.171588 2.377417 0
M  V30 43 H -3.410896 -0.022198 -0.315108 0
M  V30 44 H -2.056043 1.594775 -2.458813 0
M  V30 45 H -3.452597 2.018670 -1.358669 0
M  V30 46 H -4.767546 1.350395 -3.163912 0
M  V30 47 H -3.468531 0.295955 -3.880154 0
M  V30 48 H -5.456063 -0.873509 -3.113769 0
M  V30 49 H -5.226590 -0.339793 -1.440673 0
M  V30 50 H -4.123670 -1.893215 -0.007780 0
M  V30 51 H -5.140864 -2.871785 -1.054679 0
M  V30 52 H -4.238439 -4.909702 -2.044279 0
M  V30 53 H -2.839231 -6.843671 -1.720336 0
M  V30 54 H -0.454145 -4.613620 1.008885 0
M  V30 55 H -1.881016 -2.650850 0.681237 0
M  V30 56 H -2.067141 -0.833712 -2.927538 0
M  V30 57 H -1.690529 -1.890154 -1.560315 0
M  V30 58 H -0.083164 -1.387517 -0.433396 0
M  V30 END ATOM
M  V30 BEGIN BOND
M  V30 1 1 1 2
M  V30 2 2 2 3
M  V30 3 1 2 4
M  V30 4 1 4 5
M  V30 5 1 5 6
M  V30 6 1 6 7
M  V30 7 2 7 8
M  V30 8 1 8 9
M  V30 9 1 9 10
M  V30 10 1 10 11
M  V30 11 2 10 12
M  V30 12 1 8 13
M  V30 13 1 13 14
M  V30 14 1 14 15
M  V30 15 2 15 16
M  V30 16 1 16 17
M  V30 17 1 17 18
M  V30 18 1 18 19
M  V30 19 1 19 20
M  V30 20 1 20 21
M  V30 21 1 21 22
M  V30 22 1 22 23
M  V30 23 1 23 24
M  V30 24 2 24 25
M  V30 25 1 25 26
M  V30 26 2 26 27
M  V30 27 1 27 28
M  V30 28 1 27 29
M  V30 29 2 29 30
M  V30 30 1 22 31
M  V30 31 1 17 32
M  V30 32 2 32 33
M  V30 33 2 9 5
M  V30 34 1 33 15
M  V30 35 1 33 7
M  V30 36 1 31 18
M  V30 37 1 30 24
M  V30 38 1 1 34
M  V30 39 1 1 35
M  V30 40 1 4 36
M  V30 41 1 11 37
M  V30 42 1 11 38
M  V30 43 1 13 39
M  V30 44 1 13 40
M  V30 45 1 14 41
M  V30 46 1 14 42
M  V30 47 1 18 43
M  V30 48 1 19 44
M  V30 49 1 19 45
M  V30 50 1 20 46
M  V30 51 1 20 47
M  V30 52 1 21 48
M  V30 53 1 21 49
M  V30 54 1 23 50
M  V30 55 1 23 51
M  V30 56 1 25 52
M  V30 57 1 26 53
M  V30 58 1 29 54
M  V30 59 1 30 55
M  V30 60 1 31 56
M  V30 61 1 31 57
M  V30 62 1 32 58
M  V30 END BOND
M  V30 END CTAB
M  END
>  <Dataset>  (233) 
ChEMBL_Kinases

>  <Ligand_Instance>  (233) 
nan

>  <PDB_ID>  (233) 
nan

>  <Standardized_SMILES>  (233) 
NC(=O)Nc1sc2c(c1C(N)=O)CCc1nn(C3CCCN(Cc4ccc(Cl)cc4)C3)cc1-2

>  <Name>  (233) 
nan

>  <Pocket>  (233) 
nan

>  <ATP_Site>  (233) 
nan

>  <Peripheral>  (233) 
nan

>  <Num_H_Atoms_ProtBoundConf>  (233) 
nan

>  <Num_Resolved_Atoms>  (233) 
nan

>  <Num_Not_Resolved_Atoms>  (233) 
nan

$$$$
CHEMBL1681982
     RDKit          3D

  0  0  0  0  0  0  0  0  0  0999 V3000
M  V30 BEGIN CTAB
M  V30 COUNTS 58 62 0 0 0
M  V30 BEGIN ATOM
M  V30 1 N 5.658123 -2.985960 5.995473 0
M  V30 2 C 4.876214 -2.280610 5.046188 0
M  V30 3 O 3.757537 -2.802328 4.804434 0
M  V30 4 N 5.376646 -1.107575 4.469053 0
M  V30 5 C 4.562068 -0.435477 3.525637 0
M  V30 6 S 2.896278 -1.073466 3.066350 0
M  V30 7 C 2.539603 0.183550 1.947319 0
M  V30 8 C 3.586799 1.027844 1.912852 0
M  V30 9 C 4.663035 0.752508 2.712546 0
M  V30 10 C 5.920758 1.459080 2.894084 0
M  V30 11 N 6.219775 2.652479 2.187004 0
M  V30 12 O 6.817797 1.100867 3.654347 0
M  V30 13 C 3.597353 2.241852 1.061894 0
M  V30 14 C 2.460258 2.383449 0.166296 0
M  V30 15 C 1.332857 1.440368 0.286004 0
M  V30 16 N 0.159147 1.383508 -0.322655 0
M  V30 17 N -0.529825 0.314251 0.111874 0
M  V30 18 C -1.853762 0.016151 -0.396155 0
M  V30 19 C -2.863357 1.092637 -0.145877 0
M  V30 20 C -4.231091 0.465153 -0.428689 0
M  V30 21 N -4.169179 -0.720814 -1.183427 0
M  V30 22 C -4.859965 -1.862029 -0.724075 0
M  V30 23 C -4.744519 -3.073973 -1.572181 0
M  V30 24 C -3.755481 -4.055236 -1.436658 0
M  V30 25 C -3.717576 -5.154310 -2.267061 0
M  V30 26 C -4.664794 -5.321312 -3.268111 0
M  V30 27 C -5.635953 -4.367814 -3.409078 0
M  V30 28 C -5.696245 -3.245579 -2.581013 0
M  V30 29 C -3.211544 -0.855433 -2.198972 0
M  V30 30 C -1.851220 -0.287991 -1.874568 0
M  V30 31 C 0.170145 -0.391435 1.040611 0
M  V30 32 C 1.325966 0.348980 1.117596 0
M  V30 33 H 5.574418 -2.490476 6.916746 0
M  V30 34 H 6.148801 -3.838838 5.592027 0
M  V30 35 H 6.298017 -0.813348 4.767155 0
M  V30 36 H 6.770784 2.620647 1.290332 0
M  V30 37 H 6.717986 2.944345 1.317872 0
M  V30 38 H 3.597311 3.106451 1.802104 0
M  V30 39 H 4.540486 2.298800 0.458008 0
M  V30 40 H 2.829613 2.432141 -0.897770 0
M  V30 41 H 2.014870 3.409471 0.309955 0
M  V30 42 H -2.251235 -0.903681 0.100430 0
M  V30 43 H -2.682700 1.978845 -0.792483 0
M  V30 44 H -2.824537 1.488436 0.894942 0
M  V30 45 H -4.806294 0.289296 0.497459 0
M  V30 46 H -4.802751 1.235935 -1.006476 0
M  V30 47 H -5.947964 -1.586373 -0.661368 0
M  V30 48 H -4.614395 -2.137947 0.343198 0
M  V30 49 H -3.027428 -3.905140 -0.650115 0
M  V30 50 H -2.924699 -5.881090 -2.111349 0
M  V30 51 H -4.607530 -6.190804 -3.899962 0
M  V30 52 H -6.372616 -4.516793 -4.202610 0
M  V30 53 H -6.482384 -2.514783 -2.727416 0
M  V30 54 H -3.628803 -0.398183 -3.143616 0
M  V30 55 H -3.073258 -1.924071 -2.459479 0
M  V30 56 H -1.704245 0.659098 -2.448578 0
M  V30 57 H -1.010635 -0.960606 -2.150497 0
M  V30 58 H -0.122056 -1.280518 1.557716 0
M  V30 END ATOM
M  V30 BEGIN BOND
M  V30 1 1 1 2
M  V30 2 2 2 3
M  V30 3 1 2 4
M  V30 4 1 4 5
M  V30 5 1 5 6
M  V30 6 1 6 7
M  V30 7 2 7 8
M  V30 8 1 8 9
M  V30 9 1 9 10
M  V30 10 1 10 11
M  V30 11 2 10 12
M  V30 12 1 8 13
M  V30 13 1 13 14
M  V30 14 1 14 15
M  V30 15 2 15 16
M  V30 16 1 16 17
M  V30 17 1 17 18
M  V30 18 1 18 19
M  V30 19 1 19 20
M  V30 20 1 20 21
M  V30 21 1 21 22
M  V30 22 1 22 23
M  V30 23 2 23 24
M  V30 24 1 24 25
M  V30 25 2 25 26
M  V30 26 1 26 27
M  V30 27 2 27 28
M  V30 28 1 21 29
M  V30 29 1 29 30
M  V30 30 1 17 31
M  V30 31 2 31 32
M  V30 32 2 9 5
M  V30 33 1 32 15
M  V30 34 1 32 7
M  V30 35 1 30 18
M  V30 36 1 28 23
M  V30 37 1 1 33
M  V30 38 1 1 34
M  V30 39 1 4 35
M  V30 40 1 11 36
M  V30 41 1 11 37
M  V30 42 1 13 38
M  V30 43 1 13 39
M  V30 44 1 14 40
M  V30 45 1 14 41
M  V30 46 1 18 42
M  V30 47 1 19 43
M  V30 48 1 19 44
M  V30 49 1 20 45
M  V30 50 1 20 46
M  V30 51 1 22 47
M  V30 52 1 22 48
M  V30 53 1 24 49
M  V30 54 1 25 50
M  V30 55 1 26 51
M  V30 56 1 27 52
M  V30 57 1 28 53
M  V30 58 1 29 54
M  V30 59 1 29 55
M  V30 60 1 30 56
M  V30 61 1 30 57
M  V30 62 1 31 58
M  V30 END BOND
M  V30 END CTAB
M  END
>  <Dataset>  (234) 
ChEMBL_Kinases

>  <Ligand_Instance>  (234) 
nan

>  <PDB_ID>  (234) 
nan

>  <Standardized_SMILES>  (234) 
NC(=O)Nc1sc2c(c1C(N)=O)CCc1nn(C3CCN(Cc4ccccc4)CC3)cc1-2

>  <Name>  (234) 
nan

>  <Pocket>  (234) 
nan

>  <ATP_Site>  (234) 
nan

>  <Peripheral>  (234) 
nan

>  <Num_H_Atoms_ProtBoundConf>  (234) 
nan

>  <Num_Resolved_Atoms>  (234) 
nan

>  <Num_Not_Resolved_Atoms>  (234) 
nan

$$$$
CHEMBL1681981
     RDKit          3D

  0  0  0  0  0  0  0  0  0  0999 V3000
M  V30 BEGIN CTAB
M  V30 COUNTS 58 62 0 0 0
M  V30 BEGIN ATOM
M  V30 1 N 5.118721 -3.207810 6.109460 0
M  V30 2 C 4.392952 -2.483941 5.131326 0
M  V30 3 O 3.218735 -2.919890 4.937908 0
M  V30 4 N 4.967362 -1.396001 4.469886 0
M  V30 5 C 4.241161 -0.677371 3.496113 0
M  V30 6 S 2.495071 -1.217492 3.115257 0
M  V30 7 C 2.192024 -0.032799 1.944362 0
M  V30 8 C 3.292304 0.731946 1.817388 0
M  V30 9 C 4.357515 0.405554 2.616641 0
M  V30 10 C 5.678875 1.006091 2.739146 0
M  V30 11 N 6.108823 2.126667 1.979693 0
M  V30 12 O 6.562904 0.607628 3.512470 0
M  V30 13 C 3.439686 1.881876 0.892174 0
M  V30 14 C 2.245183 2.151849 0.096840 0
M  V30 15 C 1.072308 1.277343 0.278005 0
M  V30 16 N -0.112244 1.311385 -0.325315 0
M  V30 17 N -0.888362 0.322884 0.148461 0
M  V30 18 C -2.242236 0.114249 -0.328303 0
M  V30 19 C -3.228905 1.115770 0.223541 0
M  V30 20 C -4.582512 0.584019 -0.093889 0
M  V30 21 C -4.710094 -0.229139 -1.309428 0
M  V30 22 N -3.636206 -0.241104 -2.226756 0
M  V30 23 C -3.641003 -1.287172 -3.184407 0
M  V30 24 C -3.601306 -2.653991 -2.654195 0
M  V30 25 C -4.682661 -3.446267 -2.329227 0
M  V30 26 C -4.482659 -4.737527 -1.830548 0
M  V30 27 C -3.239978 -5.276103 -1.640845 0
M  V30 28 C -2.155328 -4.491262 -1.962996 0
M  V30 29 C -2.331615 -3.200604 -2.461813 0
M  V30 30 C -2.372453 0.241104 -1.828309 0
M  V30 31 C -0.256945 -0.409317 1.083979 0
M  V30 32 C 0.962104 0.215405 1.137554 0
M  V30 33 H 5.219701 -4.239219 5.895526 0
M  V30 34 H 5.269462 -4.234078 5.983176 0
M  V30 35 H 5.917732 -1.183166 4.747379 0
M  V30 36 H 6.535987 2.385517 1.081562 0
M  V30 37 H 6.084579 3.154575 2.205770 0
M  V30 38 H 3.651642 2.825673 1.505748 0
M  V30 39 H 4.328079 1.735480 0.222094 0
M  V30 40 H 2.571494 2.134849 -1.003822 0
M  V30 41 H 1.924300 3.244213 0.185289 0
M  V30 42 H -2.622502 -0.892357 -0.058248 0
M  V30 43 H -3.124748 1.245662 1.308890 0
M  V30 44 H -3.119690 2.107559 -0.305614 0
M  V30 45 H -5.275918 1.476092 -0.130067 0
M  V30 46 H -4.952202 0.029037 0.815118 0
M  V30 47 H -4.868392 -1.304726 -0.998030 0
M  V30 48 H -5.646215 0.045293 -1.850975 0
M  V30 49 H -4.523095 -1.152648 -3.877046 0
M  V30 50 H -2.760117 -1.115338 -3.869900 0
M  V30 51 H -5.655843 -3.016940 -2.481047 0
M  V30 52 H -5.349134 -5.350298 -1.578724 0
M  V30 53 H -3.123525 -6.271477 -1.255818 0
M  V30 54 H -1.175750 -4.925085 -1.809895 0
M  V30 55 H -1.399635 -2.693317 -2.673641 0
M  V30 56 H -2.195867 1.330867 -2.061611 0
M  V30 57 H -1.553014 -0.300103 -2.315036 0
M  V30 58 H -0.593939 -1.259893 1.652015 0
M  V30 END ATOM
M  V30 BEGIN BOND
M  V30 1 1 1 2
M  V30 2 2 2 3
M  V30 3 1 2 4
M  V30 4 1 4 5
M  V30 5 1 5 6
M  V30 6 1 6 7
M  V30 7 2 7 8
M  V30 8 1 8 9
M  V30 9 1 9 10
M  V30 10 1 10 11
M  V30 11 2 10 12
M  V30 12 1 8 13
M  V30 13 1 13 14
M  V30 14 1 14 15
M  V30 15 2 15 16
M  V30 16 1 16 17
M  V30 17 1 17 18
M  V30 18 1 18 19
M  V30 19 1 19 20
M  V30 20 1 20 21
M  V30 21 1 21 22
M  V30 22 1 22 23
M  V30 23 1 23 24
M  V30 24 2 24 25
M  V30 25 1 25 26
M  V30 26 2 26 27
M  V30 27 1 27 28
M  V30 28 2 28 29
M  V30 29 1 22 30
M  V30 30 1 17 31
M  V30 31 2 31 32
M  V30 32 2 9 5
M  V30 33 1 32 15
M  V30 34 1 32 7
M  V30 35 1 30 18
M  V30 36 1 29 24
M  V30 37 1 1 33
M  V30 38 1 1 34
M  V30 39 1 4 35
M  V30 40 1 11 36
M  V30 41 1 11 37
M  V30 42 1 13 38
M  V30 43 1 13 39
M  V30 44 1 14 40
M  V30 45 1 14 41
M  V30 46 1 18 42
M  V30 47 1 19 43
M  V30 48 1 19 44
M  V30 49 1 20 45
M  V30 50 1 20 46
M  V30 51 1 21 47
M  V30 52 1 21 48
M  V30 53 1 23 49
M  V30 54 1 23 50
M  V30 55 1 25 51
M  V30 56 1 26 52
M  V30 57 1 27 53
M  V30 58 1 28 54
M  V30 59 1 29 55
M  V30 60 1 30 56
M  V30 61 1 30 57
M  V30 62 1 31 58
M  V30 END BOND
M  V30 END CTAB
M  END
>  <Dataset>  (235) 
ChEMBL_Kinases

>  <Ligand_Instance>  (235) 
nan

>  <PDB_ID>  (235) 
nan

>  <Standardized_SMILES>  (235) 
NC(=O)Nc1sc2c(c1C(N)=O)CCc1nn(C3CCCN(Cc4ccccc4)C3)cc1-2

>  <Name>  (235) 
nan

>  <Pocket>  (235) 
nan

>  <ATP_Site>  (235) 
nan

>  <Peripheral>  (235) 
nan

>  <Num_H_Atoms_ProtBoundConf>  (235) 
nan

>  <Num_Resolved_Atoms>  (235) 
nan

>  <Num_Not_Resolved_Atoms>  (235) 
nan

$$$$
CHEMBL1681980
     RDKit          3D

  0  0  0  0  0  0  0  0  0  0999 V3000
M  V30 BEGIN CTAB
M  V30 COUNTS 55 59 0 0 0
M  V30 BEGIN ATOM
M  V30 1 N 5.186089 -2.081837 6.487450 0
M  V30 2 C 4.388250 -1.533781 5.452404 0
M  V30 3 O 3.285888 -2.134828 5.374372 0
M  V30 4 N 4.832656 -0.465950 4.662297 0
M  V30 5 C 3.969061 0.018424 3.650759 0
M  V30 6 S 2.309435 -0.732057 3.373900 0
M  V30 7 C 1.865392 0.299304 2.076949 0
M  V30 8 C 2.886497 1.155317 1.856506 0
M  V30 9 C 3.984859 1.026227 2.660643 0
M  V30 10 C 5.236511 1.760261 2.703207 0
M  V30 11 N 5.548518 2.812762 1.838707 0
M  V30 12 O 6.177307 1.575304 3.475991 0
M  V30 13 C 2.885436 2.216990 0.817577 0
M  V30 14 C 1.687589 2.248492 -0.013689 0
M  V30 15 C 0.603328 1.294838 0.289029 0
M  V30 16 N -0.585627 1.129866 -0.275094 0
M  V30 17 N -1.245601 0.127287 0.326662 0
M  V30 18 C -2.577551 -0.284375 -0.076943 0
M  V30 19 C -3.519488 0.870944 -0.225620 0
M  V30 20 C -4.449706 0.417836 -1.322750 0
M  V30 21 N -3.888273 -0.804333 -1.868211 0
M  V30 22 C -4.623376 -1.968801 -1.505227 0
M  V30 23 C -4.032314 -3.200981 -2.053409 0
M  V30 24 C -4.420653 -3.600373 -3.337712 0
M  V30 25 C -3.967303 -4.741063 -4.006368 0
M  V30 26 C -3.062715 -5.525800 -3.328149 0
M  V30 27 C -2.653875 -5.177003 -2.072421 0
M  V30 28 C -3.125203 -4.042674 -1.446753 0
M  V30 29 C -2.512643 -0.833354 -1.496881 0
M  V30 30 C -0.522022 -0.419427 1.320050 0
M  V30 31 C 0.623963 0.334390 1.266788 0
M  V30 32 H 5.671241 -1.471041 7.189770 0
M  V30 33 H 5.394214 -3.087307 6.690837 0
M  V30 34 H 5.757102 -0.138307 4.902817 0
M  V30 35 H 5.914638 3.361037 1.047136 0
M  V30 36 H 5.087809 3.619605 2.352199 0
M  V30 37 H 3.801637 2.138967 0.172700 0
M  V30 38 H 2.947410 3.223793 1.358928 0
M  V30 39 H 1.256660 3.298135 -0.029094 0
M  V30 40 H 2.033416 2.101375 -1.098072 0
M  V30 41 H -2.983177 -1.048641 0.591462 0
M  V30 42 H -4.135787 0.991162 0.694891 0
M  V30 43 H -3.012156 1.823030 -0.464744 0
M  V30 44 H -4.412302 1.182596 -2.134587 0
M  V30 45 H -5.488058 0.256098 -0.978559 0
M  V30 46 H -5.661934 -1.872360 -1.938261 0
M  V30 47 H -4.803485 -2.036430 -0.405942 0
M  V30 48 H -5.144907 -2.968274 -3.875700 0
M  V30 49 H -4.346806 -4.934047 -4.995749 0
M  V30 50 H -2.734900 -6.403901 -3.883814 0
M  V30 51 H -1.947898 -5.830506 -1.598260 0
M  V30 52 H -2.809081 -3.764855 -0.451336 0
M  V30 53 H -2.012272 -1.794727 -1.503518 0
M  V30 54 H -1.961269 -0.098502 -2.133820 0
M  V30 55 H -0.749440 -1.229445 1.993899 0
M  V30 END ATOM
M  V30 BEGIN BOND
M  V30 1 1 1 2
M  V30 2 2 2 3
M  V30 3 1 2 4
M  V30 4 1 4 5
M  V30 5 1 5 6
M  V30 6 1 6 7
M  V30 7 2 7 8
M  V30 8 1 8 9
M  V30 9 1 9 10
M  V30 10 1 10 11
M  V30 11 2 10 12
M  V30 12 1 8 13
M  V30 13 1 13 14
M  V30 14 1 14 15
M  V30 15 2 15 16
M  V30 16 1 16 17
M  V30 17 1 17 18
M  V30 18 1 18 19
M  V30 19 1 19 20
M  V30 20 1 20 21
M  V30 21 1 21 22
M  V30 22 1 22 23
M  V30 23 2 23 24
M  V30 24 1 24 25
M  V30 25 2 25 26
M  V30 26 1 26 27
M  V30 27 2 27 28
M  V30 28 1 21 29
M  V30 29 1 17 30
M  V30 30 2 30 31
M  V30 31 2 9 5
M  V30 32 1 31 15
M  V30 33 1 31 7
M  V30 34 1 29 18
M  V30 35 1 28 23
M  V30 36 1 1 32
M  V30 37 1 1 33
M  V30 38 1 4 34
M  V30 39 1 11 35
M  V30 40 1 11 36
M  V30 41 1 13 37
M  V30 42 1 13 38
M  V30 43 1 14 39
M  V30 44 1 14 40
M  V30 45 1 18 41
M  V30 46 1 19 42
M  V30 47 1 19 43
M  V30 48 1 20 44
M  V30 49 1 20 45
M  V30 50 1 22 46
M  V30 51 1 22 47
M  V30 52 1 24 48
M  V30 53 1 25 49
M  V30 54 1 26 50
M  V30 55 1 27 51
M  V30 56 1 28 52
M  V30 57 1 29 53
M  V30 58 1 29 54
M  V30 59 1 30 55
M  V30 END BOND
M  V30 END CTAB
M  END
>  <Dataset>  (236) 
ChEMBL_Kinases

>  <Ligand_Instance>  (236) 
nan

>  <PDB_ID>  (236) 
nan

>  <Standardized_SMILES>  (236) 
NC(=O)Nc1sc2c(c1C(N)=O)CCc1nn(C3CCN(Cc4ccccc4)C3)cc1-2

>  <Name>  (236) 
nan

>  <Pocket>  (236) 
nan

>  <ATP_Site>  (236) 
nan

>  <Peripheral>  (236) 
nan

>  <Num_H_Atoms_ProtBoundConf>  (236) 
nan

>  <Num_Resolved_Atoms>  (236) 
nan

>  <Num_Not_Resolved_Atoms>  (236) 
nan

$$$$
CHEMBL1681979
     RDKit          3D

  0  0  0  0  0  0  0  0  0  0999 V3000
M  V30 BEGIN CTAB
M  V30 COUNTS 52 56 0 0 0
M  V30 BEGIN ATOM
M  V30 1 N 3.497213 -4.004560 5.341463 0
M  V30 2 C 3.117927 -3.000201 4.414998 0
M  V30 3 O 2.018038 -3.336474 3.892448 0
M  V30 4 N 3.862028 -1.847126 4.152007 0
M  V30 5 C 3.364772 -0.930699 3.204012 0
M  V30 6 S 1.759867 -1.241198 2.318464 0
M  V30 7 C 1.844824 0.247327 1.387500 0
M  V30 8 C 2.963541 0.863065 1.739123 0
M  V30 9 C 3.786173 0.301421 2.672025 0
M  V30 10 C 5.044937 0.724264 3.247236 0
M  V30 11 N 5.646105 1.934784 2.854809 0
M  V30 12 O 5.714932 0.129548 4.095726 0
M  V30 13 C 3.333534 2.159098 1.123440 0
M  V30 14 C 2.386389 2.701495 0.156768 0
M  V30 15 C 1.182562 1.962381 -0.182811 0
M  V30 16 N 0.184606 2.198395 -1.017127 0
M  V30 17 N -0.694507 1.183293 -0.949580 0
M  V30 18 C -1.906808 1.141866 -1.747652 0
M  V30 19 C -2.365086 -0.282690 -2.074723 0
M  V30 20 N -3.660043 -0.031845 -1.526670 0
M  V30 21 C -4.178232 -0.937255 -0.548968 0
M  V30 22 C -4.327140 -2.331753 -1.010138 0
M  V30 23 C -3.365892 -3.315198 -0.907953 0
M  V30 24 C -3.551147 -4.608938 -1.355560 0
M  V30 25 C -4.745272 -4.981503 -1.942393 0
M  V30 26 C -5.719154 -4.010281 -2.053118 0
M  V30 27 C -5.519577 -2.722711 -1.601575 0
M  V30 28 C -3.181634 1.196591 -0.938949 0
M  V30 29 C -0.285563 0.242865 -0.054182 0
M  V30 30 C 0.883730 0.754263 0.406190 0
M  V30 31 H 3.490623 -5.039504 5.150733 0
M  V30 32 H 3.839520 -4.169507 6.300793 0
M  V30 33 H 4.705974 -1.817722 4.705343 0
M  V30 34 H 6.070919 2.827790 2.579511 0
M  V30 35 H 6.462717 1.740953 2.223531 0
M  V30 36 H 3.471802 2.954817 1.925648 0
M  V30 37 H 4.377890 2.104776 0.684804 0
M  V30 38 H 2.064642 3.768189 0.408757 0
M  V30 39 H 2.954891 2.870895 -0.817144 0
M  V30 40 H -1.885000 1.807580 -2.613346 0
M  V30 41 H -1.740570 -1.028791 -1.542495 0
M  V30 42 H -2.375068 -0.464219 -3.188537 0
M  V30 43 H -3.500570 -0.908616 0.337848 0
M  V30 44 H -5.135421 -0.507999 -0.181758 0
M  V30 45 H -2.422506 -3.050009 -0.452049 0
M  V30 46 H -2.718561 -5.318505 -1.225968 0
M  V30 47 H -4.778352 -6.003133 -2.250487 0
M  V30 48 H -6.646335 -4.345389 -2.521867 0
M  V30 49 H -6.342292 -2.024782 -1.730548 0
M  V30 50 H -3.817741 2.046601 -1.278959 0
M  V30 51 H -3.032592 1.172787 0.159737 0
M  V30 52 H -0.770749 -0.670979 0.215332 0
M  V30 END ATOM
M  V30 BEGIN BOND
M  V30 1 1 1 2
M  V30 2 2 2 3
M  V30 3 1 2 4
M  V30 4 1 4 5
M  V30 5 1 5 6
M  V30 6 1 6 7
M  V30 7 2 7 8
M  V30 8 1 8 9
M  V30 9 1 9 10
M  V30 10 1 10 11
M  V30 11 2 10 12
M  V30 12 1 8 13
M  V30 13 1 13 14
M  V30 14 1 14 15
M  V30 15 2 15 16
M  V30 16 1 16 17
M  V30 17 1 17 18
M  V30 18 1 18 19
M  V30 19 1 19 20
M  V30 20 1 20 21
M  V30 21 1 21 22
M  V30 22 2 22 23
M  V30 23 1 23 24
M  V30 24 2 24 25
M  V30 25 1 25 26
M  V30 26 2 26 27
M  V30 27 1 20 28
M  V30 28 1 17 29
M  V30 29 2 29 30
M  V30 30 2 9 5
M  V30 31 1 30 15
M  V30 32 1 30 7
M  V30 33 1 28 18
M  V30 34 1 27 22
M  V30 35 1 1 31
M  V30 36 1 1 32
M  V30 37 1 4 33
M  V30 38 1 11 34
M  V30 39 1 11 35
M  V30 40 1 13 36
M  V30 41 1 13 37
M  V30 42 1 14 38
M  V30 43 1 14 39
M  V30 44 1 18 40
M  V30 45 1 19 41
M  V30 46 1 19 42
M  V30 47 1 21 43
M  V30 48 1 21 44
M  V30 49 1 23 45
M  V30 50 1 24 46
M  V30 51 1 25 47
M  V30 52 1 26 48
M  V30 53 1 27 49
M  V30 54 1 28 50
M  V30 55 1 28 51
M  V30 56 1 29 52
M  V30 END BOND
M  V30 END CTAB
M  END
>  <Dataset>  (237) 
ChEMBL_Kinases

>  <Ligand_Instance>  (237) 
nan

>  <PDB_ID>  (237) 
nan

>  <Standardized_SMILES>  (237) 
NC(=O)Nc1sc2c(c1C(N)=O)CCc1nn(C3CN(Cc4ccccc4)C3)cc1-2

>  <Name>  (237) 
nan

>  <Pocket>  (237) 
nan

>  <ATP_Site>  (237) 
nan

>  <Peripheral>  (237) 
nan

>  <Num_H_Atoms_ProtBoundConf>  (237) 
nan

>  <Num_Resolved_Atoms>  (237) 
nan

>  <Num_Not_Resolved_Atoms>  (237) 
nan

$$$$
CHEMBL1681978
     RDKit          3D

  0  0  0  0  0  0  0  0  0  0999 V3000
M  V30 BEGIN CTAB
M  V30 COUNTS 54 57 0 0 0
M  V30 BEGIN ATOM
M  V30 1 C 0.673310 -3.108152 -0.772819 0
M  V30 2 N 1.462031 -3.963869 0.013412 0
M  V30 3 C 1.497605 -3.788381 1.411033 0
M  V30 4 C 2.192196 -2.571116 1.935137 0
M  V30 5 N 1.655501 -1.310686 1.476408 0
M  V30 6 C 0.661010 -0.588921 2.057406 0
M  V30 7 C 0.590681 0.501394 1.219234 0
M  V30 8 C 1.488684 0.452975 0.181683 0
M  V30 9 N 2.131214 -0.692059 0.381546 0
M  V30 10 C 1.593033 1.487962 -0.861903 0
M  V30 11 C 0.836611 2.722767 -0.696620 0
M  V30 12 C -0.185071 2.739081 0.384463 0
M  V30 13 C -0.269619 1.695364 1.302961 0
M  V30 14 S -1.585297 2.190307 2.405211 0
M  V30 15 C -1.939404 3.731342 1.587845 0
M  V30 16 N -2.955055 4.515119 2.139007 0
M  V30 17 C -2.689796 5.534278 3.104824 0
M  V30 18 N -3.665392 6.396233 3.732244 0
M  V30 19 O -1.448201 5.636888 3.393455 0
M  V30 20 C -1.042967 3.762734 0.547321 0
M  V30 21 C -1.198529 4.987191 -0.236022 0
M  V30 22 N -0.430737 5.400545 -1.373678 0
M  V30 23 O -2.035252 5.861582 -0.020838 0
M  V30 24 C 1.611625 -5.262018 -0.519606 0
M  V30 25 C 0.393971 -6.060885 -0.696553 0
M  V30 26 C 0.065407 -6.770607 0.461102 0
M  V30 27 C -1.050084 -7.595028 0.497197 0
M  V30 28 C -1.893891 -7.759583 -0.603685 0
M  V30 29 C -1.532500 -7.033251 -1.743846 0
M  V30 30 C -0.427475 -6.211471 -1.792195 0
M  V30 31 H -0.077698 -3.619758 -1.447874 0
M  V30 32 H 1.348396 -2.596912 -1.503361 0
M  V30 33 H 0.033348 -2.398651 -0.198230 0
M  V30 34 H 0.429371 -3.702826 1.783639 0
M  V30 35 H 1.893408 -4.674046 1.955101 0
M  V30 36 H 3.287578 -2.585018 1.701593 0
M  V30 37 H 2.080236 -2.616421 3.060941 0
M  V30 38 H 0.089142 -0.817616 2.937505 0
M  V30 39 H 1.425582 1.055637 -1.887043 0
M  V30 40 H 2.704107 1.738420 -0.901047 0
M  V30 41 H 0.385148 3.001467 -1.678814 0
M  V30 42 H 1.567955 3.543876 -0.391016 0
M  V30 43 H -3.969787 4.401592 1.875996 0
M  V30 44 H -3.755310 5.692902 4.528610 0
M  V30 45 H -3.572314 7.080809 2.948863 0
M  V30 46 H 0.402030 5.581583 -0.773135 0
M  V30 47 H 0.479343 5.622523 -0.883769 0
M  V30 48 H 2.035935 -5.141819 -1.567571 0
M  V30 49 H 2.397013 -5.872967 0.014274 0
M  V30 50 H 0.599867 -6.774453 1.422099 0
M  V30 51 H -1.357744 -8.166435 1.351759 0
M  V30 52 H -2.760244 -8.392972 -0.592530 0
M  V30 53 H -2.153574 -7.128736 -2.616296 0
M  V30 54 H -0.124437 -5.653364 -2.644718 0
M  V30 END ATOM
M  V30 BEGIN BOND
M  V30 1 1 1 2
M  V30 2 1 2 3
M  V30 3 1 3 4
M  V30 4 1 4 5
M  V30 5 1 5 6
M  V30 6 2 6 7
M  V30 7 1 7 8
M  V30 8 2 8 9
M  V30 9 1 8 10
M  V30 10 1 10 11
M  V30 11 1 11 12
M  V30 12 2 12 13
M  V30 13 1 13 14
M  V30 14 1 14 15
M  V30 15 1 15 16
M  V30 16 1 16 17
M  V30 17 1 17 18
M  V30 18 2 17 19
M  V30 19 2 15 20
M  V30 20 1 20 21
M  V30 21 1 21 22
M  V30 22 2 21 23
M  V30 23 1 2 24
M  V30 24 1 24 25
M  V30 25 2 25 26
M  V30 26 1 26 27
M  V30 27 2 27 28
M  V30 28 1 28 29
M  V30 29 2 29 30
M  V30 30 1 9 5
M  V30 31 1 20 12
M  V30 32 1 30 25
M  V30 33 1 13 7
M  V30 34 1 1 31
M  V30 35 1 1 32
M  V30 36 1 1 33
M  V30 37 1 3 34
M  V30 38 1 3 35
M  V30 39 1 4 36
M  V30 40 1 4 37
M  V30 41 1 6 38
M  V30 42 1 10 39
M  V30 43 1 10 40
M  V30 44 1 11 41
M  V30 45 1 11 42
M  V30 46 1 16 43
M  V30 47 1 18 44
M  V30 48 1 18 45
M  V30 49 1 22 46
M  V30 50 1 22 47
M  V30 51 1 24 48
M  V30 52 1 24 49
M  V30 53 1 26 50
M  V30 54 1 27 51
M  V30 55 1 28 52
M  V30 56 1 29 53
M  V30 57 1 30 54
M  V30 END BOND
M  V30 END CTAB
M  END
>  <Dataset>  (238) 
ChEMBL_Kinases

>  <Ligand_Instance>  (238) 
nan

>  <PDB_ID>  (238) 
nan

>  <Standardized_SMILES>  (238) 
CN(CCn1cc2c(n1)CCc1c-2sc(NC(N)=O)c1C(N)=O)Cc1ccccc1

>  <Name>  (238) 
nan

>  <Pocket>  (238) 
nan

>  <ATP_Site>  (238) 
nan

>  <Peripheral>  (238) 
nan

>  <Num_H_Atoms_ProtBoundConf>  (238) 
nan

>  <Num_Resolved_Atoms>  (238) 
nan

>  <Num_Not_Resolved_Atoms>  (238) 
nan

$$$$
CHEMBL1681977
     RDKit          3D

  0  0  0  0  0  0  0  0  0  0999 V3000
M  V30 BEGIN CTAB
M  V30 COUNTS 44 46 0 0 0
M  V30 BEGIN ATOM
M  V30 1 C -0.031373 -6.014283 1.091348 0
M  V30 2 N 0.768324 -4.896879 1.613349 0
M  V30 3 C 1.165323 -5.287833 2.949631 0
M  V30 4 C 1.875760 -4.735780 0.726168 0
M  V30 5 C 2.823439 -3.617614 1.105301 0
M  V30 6 N 2.137360 -2.340651 1.127095 0
M  V30 7 C 1.978512 -1.456304 0.115962 0
M  V30 8 C 1.259905 -0.436220 0.686016 0
M  V30 9 C 0.995092 -0.705401 2.010151 0
M  V30 10 N 1.549740 -1.885839 2.248205 0
M  V30 11 C 0.244475 0.205116 2.887667 0
M  V30 12 C -0.270633 1.451694 2.313678 0
M  V30 13 C 0.049417 1.703299 0.888014 0
M  V30 14 C 0.753840 0.812745 0.156702 0
M  V30 15 S 0.915006 1.448716 -1.433487 0
M  V30 16 C -0.051616 3.036659 -1.048476 0
M  V30 17 N -0.210765 3.964155 -2.112616 0
M  V30 18 C -1.335351 3.885507 -2.987659 0
M  V30 19 N -1.454096 4.821905 -4.026410 0
M  V30 20 O -2.153663 2.954466 -2.749039 0
M  V30 21 C -0.385934 2.856887 0.319125 0
M  V30 22 C -1.145054 4.000313 0.797131 0
M  V30 23 N -1.578457 4.019898 2.142522 0
M  V30 24 O -1.431372 4.971235 0.063420 0
M  V30 25 H -1.103215 -5.689864 1.141373 0
M  V30 26 H 0.184593 -6.214736 0.023139 0
M  V30 27 H 0.109438 -6.935525 1.674927 0
M  V30 28 H 2.072319 -5.929431 2.966745 0
M  V30 29 H 1.273554 -4.357099 3.535567 0
M  V30 30 H 0.347218 -5.902374 3.385780 0
M  V30 31 H 2.389003 -5.683165 0.557799 0
M  V30 32 H 1.443827 -4.425808 -0.263397 0
M  V30 33 H 3.596835 -3.592930 0.298229 0
M  V30 34 H 3.348248 -3.805651 2.047083 0
M  V30 35 H 2.337661 -1.550831 -0.885712 0
M  V30 36 H 0.890807 0.387026 3.810326 0
M  V30 37 H -0.622491 -0.410082 3.273843 0
M  V30 38 H 0.100295 2.291806 2.964801 0
M  V30 39 H -1.386866 1.479706 2.454093 0
M  V30 40 H 0.534223 4.693310 -2.211198 0
M  V30 41 H -1.942883 5.689112 -3.688998 0
M  V30 42 H -1.027269 4.445136 -4.908675 0
M  V30 43 H -1.264258 4.426445 3.074109 0
M  V30 44 H -2.351035 3.658345 2.743957 0
M  V30 END ATOM
M  V30 BEGIN BOND
M  V30 1 1 1 2
M  V30 2 1 2 3
M  V30 3 1 2 4
M  V30 4 1 4 5
M  V30 5 1 5 6
M  V30 6 1 6 7
M  V30 7 2 7 8
M  V30 8 1 8 9
M  V30 9 2 9 10
M  V30 10 1 9 11
M  V30 11 1 11 12
M  V30 12 1 12 13
M  V30 13 2 13 14
M  V30 14 1 14 15
M  V30 15 1 15 16
M  V30 16 1 16 17
M  V30 17 1 17 18
M  V30 18 1 18 19
M  V30 19 2 18 20
M  V30 20 2 16 21
M  V30 21 1 21 22
M  V30 22 1 22 23
M  V30 23 2 22 24
M  V30 24 1 10 6
M  V30 25 1 21 13
M  V30 26 1 14 8
M  V30 27 1 1 25
M  V30 28 1 1 26
M  V30 29 1 1 27
M  V30 30 1 3 28
M  V30 31 1 3 29
M  V30 32 1 3 30
M  V30 33 1 4 31
M  V30 34 1 4 32
M  V30 35 1 5 33
M  V30 36 1 5 34
M  V30 37 1 7 35
M  V30 38 1 11 36
M  V30 39 1 11 37
M  V30 40 1 12 38
M  V30 41 1 12 39
M  V30 42 1 17 40
M  V30 43 1 19 41
M  V30 44 1 19 42
M  V30 45 1 23 43
M  V30 46 1 23 44
M  V30 END BOND
M  V30 END CTAB
M  END
>  <Dataset>  (239) 
ChEMBL_Kinases

>  <Ligand_Instance>  (239) 
nan

>  <PDB_ID>  (239) 
nan

>  <Standardized_SMILES>  (239) 
CN(C)CCn1cc2c(n1)CCc1c-2sc(NC(N)=O)c1C(N)=O

>  <Name>  (239) 
nan

>  <Pocket>  (239) 
nan

>  <ATP_Site>  (239) 
nan

>  <Peripheral>  (239) 
nan

>  <Num_H_Atoms_ProtBoundConf>  (239) 
nan

>  <Num_Resolved_Atoms>  (239) 
nan

>  <Num_Not_Resolved_Atoms>  (239) 
nan

$$$$
CHEMBL1681975
     RDKit          3D

  0  0  0  0  0  0  0  0  0  0999 V3000
M  V30 BEGIN CTAB
M  V30 COUNTS 42 45 0 0 0
M  V30 BEGIN ATOM
M  V30 1 N 6.876605 -0.954979 3.053202 0
M  V30 2 C 5.517030 -0.620724 2.710341 0
M  V30 3 O 4.542554 -0.395465 3.483114 0
M  V30 4 N 5.276149 -0.542534 1.299426 0
M  V30 5 C 3.937094 -0.212374 0.892242 0
M  V30 6 S 2.731644 -1.558481 0.618354 0
M  V30 7 C 1.425811 -0.547603 0.182803 0
M  V30 8 C 1.875717 0.726508 0.241295 0
M  V30 9 C 3.168482 0.944144 0.604115 0
M  V30 10 C 3.953281 2.160500 0.763394 0
M  V30 11 N 3.390668 3.435500 0.528423 0
M  V30 12 O 5.153484 2.144976 1.112503 0
M  V30 13 C 1.010507 1.894450 -0.081450 0
M  V30 14 C -0.377310 1.589252 -0.434562 0
M  V30 15 C -0.791061 0.173586 -0.485377 0
M  V30 16 N -1.946787 -0.404937 -0.787683 0
M  V30 17 N -1.829071 -1.739343 -0.685522 0
M  V30 18 C -2.962440 -2.600413 -0.966957 0
M  V30 19 C -3.707192 -2.794593 0.325739 0
M  V30 20 C -3.407853 -3.834576 1.188768 0
M  V30 21 C -4.109080 -3.984151 2.364700 0
M  V30 22 N -5.090782 -3.105057 2.664942 0
M  V30 23 C -5.366729 -2.108872 1.823020 0
M  V30 24 C -4.714621 -1.883635 0.622933 0
M  V30 25 C -0.589981 -2.104501 -0.311004 0
M  V30 26 C 0.036478 -0.883924 -0.193740 0
M  V30 27 H 7.190600 -1.928019 2.781507 0
M  V30 28 H 7.707574 -0.546098 3.502928 0
M  V30 29 H 5.968342 -0.699508 0.534929 0
M  V30 30 H 2.956851 3.904224 1.374803 0
M  V30 31 H 3.250427 4.113873 -0.250384 0
M  V30 32 H 1.500344 2.465113 -0.924035 0
M  V30 33 H 1.015202 2.633928 0.760792 0
M  V30 34 H -1.062216 2.188649 0.227830 0
M  V30 35 H -0.578891 1.990257 -1.462664 0
M  V30 36 H -2.583018 -3.613086 -1.291964 0
M  V30 37 H -3.606742 -2.175239 -1.739733 0
M  V30 38 H -2.619002 -4.535085 0.940194 0
M  V30 39 H -3.903293 -4.787833 3.067734 0
M  V30 40 H -6.156469 -1.450924 2.125439 0
M  V30 41 H -5.007490 -1.046973 0.002220 0
M  V30 42 H -0.209923 -3.098575 -0.150900 0
M  V30 END ATOM
M  V30 BEGIN BOND
M  V30 1 1 1 2
M  V30 2 2 2 3
M  V30 3 1 2 4
M  V30 4 1 4 5
M  V30 5 1 5 6
M  V30 6 1 6 7
M  V30 7 2 7 8
M  V30 8 1 8 9
M  V30 9 1 9 10
M  V30 10 1 10 11
M  V30 11 2 10 12
M  V30 12 1 8 13
M  V30 13 1 13 14
M  V30 14 1 14 15
M  V30 15 2 15 16
M  V30 16 1 16 17
M  V30 17 1 17 18
M  V30 18 1 18 19
M  V30 19 2 19 20
M  V30 20 1 20 21
M  V30 21 2 21 22
M  V30 22 1 22 23
M  V30 23 2 23 24
M  V30 24 1 17 25
M  V30 25 2 25 26
M  V30 26 2 9 5
M  V30 27 1 26 15
M  V30 28 1 26 7
M  V30 29 1 24 19
M  V30 30 1 1 27
M  V30 31 1 1 28
M  V30 32 1 4 29
M  V30 33 1 11 30
M  V30 34 1 11 31
M  V30 35 1 13 32
M  V30 36 1 13 33
M  V30 37 1 14 34
M  V30 38 1 14 35
M  V30 39 1 18 36
M  V30 40 1 18 37
M  V30 41 1 20 38
M  V30 42 1 21 39
M  V30 43 1 23 40
M  V30 44 1 24 41
M  V30 45 1 25 42
M  V30 END BOND
M  V30 END CTAB
M  END
>  <Dataset>  (240) 
ChEMBL_Kinases

>  <Ligand_Instance>  (240) 
nan

>  <PDB_ID>  (240) 
nan

>  <Standardized_SMILES>  (240) 
NC(=O)Nc1sc2c(c1C(N)=O)CCc1nn(Cc3ccncc3)cc1-2

>  <Name>  (240) 
nan

>  <Pocket>  (240) 
nan

>  <ATP_Site>  (240) 
nan

>  <Peripheral>  (240) 
nan

>  <Num_H_Atoms_ProtBoundConf>  (240) 
nan

>  <Num_Resolved_Atoms>  (240) 
nan

>  <Num_Not_Resolved_Atoms>  (240) 
nan

$$$$
CHEMBL1681974
     RDKit          3D

  0  0  0  0  0  0  0  0  0  0999 V3000
M  V30 BEGIN CTAB
M  V30 COUNTS 42 45 0 0 0
M  V30 BEGIN ATOM
M  V30 1 N 7.401121 -1.088946 2.027856 0
M  V30 2 C 6.161847 -0.585592 1.542993 0
M  V30 3 O 6.304490 -0.005405 0.456858 0
M  V30 4 N 4.997007 -0.792419 2.304045 0
M  V30 5 C 3.715032 -0.314546 1.879109 0
M  V30 6 S 2.716605 -1.450707 0.848178 0
M  V30 7 C 1.362471 -0.297301 0.700344 0
M  V30 8 C 1.721846 0.769270 1.376613 0
M  V30 9 C 2.928047 0.844362 2.019934 0
M  V30 10 C 3.561362 1.882239 2.821040 0
M  V30 11 N 2.895267 3.091284 3.046145 0
M  V30 12 O 4.699193 1.698085 3.309514 0
M  V30 13 C 0.788291 1.924876 1.441311 0
M  V30 14 C -0.473907 1.799354 0.747852 0
M  V30 15 C -0.811802 0.590306 0.015147 0
M  V30 16 N -1.839765 0.165335 -0.701418 0
M  V30 17 N -1.595900 -1.075892 -1.154754 0
M  V30 18 C -2.594833 -1.753100 -1.973848 0
M  V30 19 C -3.543656 -2.536769 -1.124610 0
M  V30 20 C -3.340386 -3.854659 -0.770417 0
M  V30 21 C -4.225413 -4.553087 0.009942 0
M  V30 22 C -5.353010 -3.901719 0.448054 0
M  V30 23 N -5.557925 -2.616458 0.106618 0
M  V30 24 C -4.705586 -1.917182 -0.654531 0
M  V30 25 C -0.384141 -1.505031 -0.742076 0
M  V30 26 C 0.086470 -0.452917 -0.015738 0
M  V30 27 H 7.601679 -2.020942 1.610766 0
M  V30 28 H 8.070368 -0.633318 2.713541 0
M  V30 29 H 5.050220 -1.300345 3.195147 0
M  V30 30 H 2.219341 3.509450 3.722159 0
M  V30 31 H 2.821522 4.044982 2.617323 0
M  V30 32 H 1.311190 2.864086 1.065718 0
M  V30 33 H 0.593556 2.207285 2.524736 0
M  V30 34 H -1.335515 1.953976 1.478345 0
M  V30 35 H -0.636382 2.669667 0.035624 0
M  V30 36 H -2.070419 -2.467238 -2.647248 0
M  V30 37 H -3.144236 -1.045859 -2.618884 0
M  V30 38 H -2.448808 -4.357967 -1.121053 0
M  V30 39 H -4.082983 -5.585257 0.297357 0
M  V30 40 H -6.103258 -4.349697 1.057577 0
M  V30 41 H -4.934038 -0.883025 -0.891311 0
M  V30 42 H 0.039930 -2.461723 -0.972241 0
M  V30 END ATOM
M  V30 BEGIN BOND
M  V30 1 1 1 2
M  V30 2 2 2 3
M  V30 3 1 2 4
M  V30 4 1 4 5
M  V30 5 1 5 6
M  V30 6 1 6 7
M  V30 7 2 7 8
M  V30 8 1 8 9
M  V30 9 1 9 10
M  V30 10 1 10 11
M  V30 11 2 10 12
M  V30 12 1 8 13
M  V30 13 1 13 14
M  V30 14 1 14 15
M  V30 15 2 15 16
M  V30 16 1 16 17
M  V30 17 1 17 18
M  V30 18 1 18 19
M  V30 19 2 19 20
M  V30 20 1 20 21
M  V30 21 2 21 22
M  V30 22 1 22 23
M  V30 23 2 23 24
M  V30 24 1 17 25
M  V30 25 2 25 26
M  V30 26 2 9 5
M  V30 27 1 26 15
M  V30 28 1 26 7
M  V30 29 1 24 19
M  V30 30 1 1 27
M  V30 31 1 1 28
M  V30 32 1 4 29
M  V30 33 1 11 30
M  V30 34 1 11 31
M  V30 35 1 13 32
M  V30 36 1 13 33
M  V30 37 1 14 34
M  V30 38 1 14 35
M  V30 39 1 18 36
M  V30 40 1 18 37
M  V30 41 1 20 38
M  V30 42 1 21 39
M  V30 43 1 22 40
M  V30 44 1 24 41
M  V30 45 1 25 42
M  V30 END BOND
M  V30 END CTAB
M  END
>  <Dataset>  (241) 
ChEMBL_Kinases

>  <Ligand_Instance>  (241) 
nan

>  <PDB_ID>  (241) 
nan

>  <Standardized_SMILES>  (241) 
NC(=O)Nc1sc2c(c1C(N)=O)CCc1nn(Cc3cccnc3)cc1-2

>  <Name>  (241) 
nan

>  <Pocket>  (241) 
nan

>  <ATP_Site>  (241) 
nan

>  <Peripheral>  (241) 
nan

>  <Num_H_Atoms_ProtBoundConf>  (241) 
nan

>  <Num_Resolved_Atoms>  (241) 
nan

>  <Num_Not_Resolved_Atoms>  (241) 
nan

$$$$
CHEMBL1681973
     RDKit          3D

  0  0  0  0  0  0  0  0  0  0999 V3000
M  V30 BEGIN CTAB
M  V30 COUNTS 42 45 0 0 0
M  V30 BEGIN ATOM
M  V30 1 N 7.452197 -1.240617 0.443076 0
M  V30 2 C 6.160867 -0.646720 0.385615 0
M  V30 3 O 5.936813 0.198694 -0.514444 0
M  V30 4 N 5.221527 -1.070413 1.369795 0
M  V30 5 C 3.935142 -0.486125 1.321359 0
M  V30 6 S 2.662741 -1.402447 0.247809 0
M  V30 7 C 1.391797 -0.304434 0.557214 0
M  V30 8 C 1.870691 0.642268 1.374475 0
M  V30 9 C 3.178698 0.567131 1.779949 0
M  V30 10 C 4.000949 1.404898 2.642209 0
M  V30 11 N 3.463336 2.569497 3.253668 0
M  V30 12 O 5.199600 1.150448 2.886364 0
M  V30 13 C 1.047531 1.774924 1.867119 0
M  V30 14 C -0.334649 1.801812 1.386352 0
M  V30 15 C -0.785998 0.723122 0.493331 0
M  V30 16 N -1.960778 0.491648 -0.076658 0
M  V30 17 N -1.889970 -0.628271 -0.817019 0
M  V30 18 C -3.040568 -1.114891 -1.552915 0
M  V30 19 C -3.880834 -2.051480 -0.760304 0
M  V30 20 C -3.599572 -3.401512 -0.815114 0
M  V30 21 C -4.400220 -4.250104 -0.065439 0
M  V30 22 C -5.440813 -3.766185 0.708119 0
M  V30 23 C -5.685912 -2.392322 0.730905 0
M  V30 24 N -4.891355 -1.572413 -0.010257 0
M  V30 25 C -0.657939 -1.175155 -0.758732 0
M  V30 26 C 0.019704 -0.309507 0.070344 0
M  V30 27 H 8.120979 -1.961447 0.095407 0
M  V30 28 H 8.210555 -0.938480 1.071308 0
M  V30 29 H 5.456435 -1.778304 2.099461 0
M  V30 30 H 3.275615 3.573222 3.074268 0
M  V30 31 H 3.188911 2.199912 4.200195 0
M  V30 32 H 1.519877 2.758243 1.612426 0
M  V30 33 H 1.051216 1.791661 3.004217 0
M  V30 34 H -0.554844 2.767538 0.838813 0
M  V30 35 H -1.025737 1.756997 2.273130 0
M  V30 36 H -2.662207 -1.600050 -2.489374 0
M  V30 37 H -3.677221 -0.268730 -1.885185 0
M  V30 38 H -2.800103 -3.837404 -1.401308 0
M  V30 39 H -4.294770 -5.312397 -0.015619 0
M  V30 40 H -6.101714 -4.374606 1.315291 0
M  V30 41 H -6.506905 -2.008304 1.340936 0
M  V30 42 H -0.308181 -2.072242 -1.249073 0
M  V30 END ATOM
M  V30 BEGIN BOND
M  V30 1 1 1 2
M  V30 2 2 2 3
M  V30 3 1 2 4
M  V30 4 1 4 5
M  V30 5 1 5 6
M  V30 6 1 6 7
M  V30 7 2 7 8
M  V30 8 1 8 9
M  V30 9 1 9 10
M  V30 10 1 10 11
M  V30 11 2 10 12
M  V30 12 1 8 13
M  V30 13 1 13 14
M  V30 14 1 14 15
M  V30 15 2 15 16
M  V30 16 1 16 17
M  V30 17 1 17 18
M  V30 18 1 18 19
M  V30 19 2 19 20
M  V30 20 1 20 21
M  V30 21 2 21 22
M  V30 22 1 22 23
M  V30 23 2 23 24
M  V30 24 1 17 25
M  V30 25 2 25 26
M  V30 26 2 9 5
M  V30 27 1 26 15
M  V30 28 1 26 7
M  V30 29 1 24 19
M  V30 30 1 1 27
M  V30 31 1 1 28
M  V30 32 1 4 29
M  V30 33 1 11 30
M  V30 34 1 11 31
M  V30 35 1 13 32
M  V30 36 1 13 33
M  V30 37 1 14 34
M  V30 38 1 14 35
M  V30 39 1 18 36
M  V30 40 1 18 37
M  V30 41 1 20 38
M  V30 42 1 21 39
M  V30 43 1 22 40
M  V30 44 1 23 41
M  V30 45 1 25 42
M  V30 END BOND
M  V30 END CTAB
M  END
>  <Dataset>  (242) 
ChEMBL_Kinases

>  <Ligand_Instance>  (242) 
nan

>  <PDB_ID>  (242) 
nan

>  <Standardized_SMILES>  (242) 
NC(=O)Nc1sc2c(c1C(N)=O)CCc1nn(Cc3ccccn3)cc1-2

>  <Name>  (242) 
nan

>  <Pocket>  (242) 
nan

>  <ATP_Site>  (242) 
nan

>  <Peripheral>  (242) 
nan

>  <Num_H_Atoms_ProtBoundConf>  (242) 
nan

>  <Num_Resolved_Atoms>  (242) 
nan

>  <Num_Not_Resolved_Atoms>  (242) 
nan

$$$$
CHEMBL1681972
     RDKit          3D

  0  0  0  0  0  0  0  0  0  0999 V3000
M  V30 BEGIN CTAB
M  V30 COUNTS 43 46 0 0 0
M  V30 BEGIN ATOM
M  V30 1 N 7.012191 -2.208323 1.636639 0
M  V30 2 C 5.693836 -1.695719 1.522612 0
M  V30 3 O 4.860507 -2.346182 2.201225 0
M  V30 4 N 5.393845 -0.584005 0.730127 0
M  V30 5 C 4.043209 -0.120260 0.660669 0
M  V30 6 S 2.735283 -0.962490 1.587895 0
M  V30 7 C 1.448230 0.078327 1.061207 0
M  V30 8 C 2.039515 0.979621 0.240981 0
M  V30 9 C 3.381449 0.925042 -0.003038 0
M  V30 10 C 4.193890 1.790847 -0.842902 0
M  V30 11 N 3.649521 2.876644 -1.563563 0
M  V30 12 O 5.422904 1.598056 -0.955892 0
M  V30 13 C 1.159668 1.995322 -0.360877 0
M  V30 14 C -0.238657 1.984274 -0.013321 0
M  V30 15 C -0.813513 0.987494 0.861681 0
M  V30 16 N -2.031700 0.727164 1.320453 0
M  V30 17 N -1.947595 -0.347997 2.120161 0
M  V30 18 C -3.096001 -0.919127 2.800475 0
M  V30 19 C -3.744189 -1.955544 1.954129 0
M  V30 20 C -4.764317 -1.625248 1.055335 0
M  V30 21 C -5.355379 -2.588432 0.279557 0
M  V30 22 C -4.974735 -3.914464 0.349257 0
M  V30 23 C -3.963554 -4.253023 1.237700 0
M  V30 24 C -3.368023 -3.285230 2.018754 0
M  V30 25 C -0.667855 -0.818094 2.203630 0
M  V30 26 C 0.022599 0.053307 1.392884 0
M  V30 27 H 7.285706 -3.096739 1.138957 0
M  V30 28 H 7.879741 -1.933403 2.119818 0
M  V30 29 H 6.196026 -0.185443 0.252164 0
M  V30 30 H 3.481270 3.882013 -1.430895 0
M  V30 31 H 3.401074 2.358023 -2.432432 0
M  V30 32 H 1.593053 3.036756 -0.222009 0
M  V30 33 H 1.250034 1.879460 -1.488254 0
M  V30 34 H -0.899784 2.007715 -0.942095 0
M  V30 35 H -0.525561 2.984445 0.456865 0
M  V30 36 H -3.811742 -0.123055 3.071092 0
M  V30 37 H -2.755765 -1.455616 3.732832 0
M  V30 38 H -5.096203 -0.586007 0.968738 0
M  V30 39 H -6.147735 -2.373861 -0.427828 0
M  V30 40 H -5.414661 -4.708716 -0.245225 0
M  V30 41 H -3.620153 -5.273356 1.339451 0
M  V30 42 H -2.577430 -3.502145 2.723941 0
M  V30 43 H -0.354033 -1.661412 2.777892 0
M  V30 END ATOM
M  V30 BEGIN BOND
M  V30 1 1 1 2
M  V30 2 2 2 3
M  V30 3 1 2 4
M  V30 4 1 4 5
M  V30 5 1 5 6
M  V30 6 1 6 7
M  V30 7 2 7 8
M  V30 8 1 8 9
M  V30 9 1 9 10
M  V30 10 1 10 11
M  V30 11 2 10 12
M  V30 12 1 8 13
M  V30 13 1 13 14
M  V30 14 1 14 15
M  V30 15 2 15 16
M  V30 16 1 16 17
M  V30 17 1 17 18
M  V30 18 1 18 19
M  V30 19 2 19 20
M  V30 20 1 20 21
M  V30 21 2 21 22
M  V30 22 1 22 23
M  V30 23 2 23 24
M  V30 24 1 17 25
M  V30 25 2 25 26
M  V30 26 2 9 5
M  V30 27 1 26 15
M  V30 28 1 26 7
M  V30 29 1 24 19
M  V30 30 1 1 27
M  V30 31 1 1 28
M  V30 32 1 4 29
M  V30 33 1 11 30
M  V30 34 1 11 31
M  V30 35 1 13 32
M  V30 36 1 13 33
M  V30 37 1 14 34
M  V30 38 1 14 35
M  V30 39 1 18 36
M  V30 40 1 18 37
M  V30 41 1 20 38
M  V30 42 1 21 39
M  V30 43 1 22 40
M  V30 44 1 23 41
M  V30 45 1 24 42
M  V30 46 1 25 43
M  V30 END BOND
M  V30 END CTAB
M  END
>  <Dataset>  (243) 
ChEMBL_Kinases

>  <Ligand_Instance>  (243) 
nan

>  <PDB_ID>  (243) 
nan

>  <Standardized_SMILES>  (243) 
NC(=O)Nc1sc2c(c1C(N)=O)CCc1nn(Cc3ccccc3)cc1-2

>  <Name>  (243) 
nan

>  <Pocket>  (243) 
nan

>  <ATP_Site>  (243) 
nan

>  <Peripheral>  (243) 
nan

>  <Num_H_Atoms_ProtBoundConf>  (243) 
nan

>  <Num_Resolved_Atoms>  (243) 
nan

>  <Num_Not_Resolved_Atoms>  (243) 
nan

$$$$
CHEMBL1760637
     RDKit          3D

  0  0  0  0  0  0  0  0  0  0999 V3000
M  V30 BEGIN CTAB
M  V30 COUNTS 51 53 0 0 0
M  V30 BEGIN ATOM
M  V30 1 C 1.640126 -0.740208 -1.607764 0
M  V30 2 O 1.291180 0.302721 -0.725595 0
M  V30 3 C 2.171299 1.359115 -0.533524 0
M  V30 4 C 3.415462 1.534389 -1.126180 0
M  V30 5 C 4.172660 2.647912 -0.826767 0
M  V30 6 C 5.496380 2.773974 -1.497055 0
M  V30 7 C 3.763303 3.617957 0.042019 0
M  V30 8 Cl 4.738349 5.028663 0.412453 0
M  V30 9 C 2.538681 3.425189 0.612086 0
M  V30 10 C 1.715453 2.326247 0.359781 0
M  V30 11 N 0.452717 2.280529 1.047848 0
M  V30 12 C 0.582641 1.608666 2.288386 0
M  V30 13 O 1.740086 1.190757 2.548751 0
M  V30 14 N -0.487013 1.402634 3.195683 0
M  V30 15 C -0.384652 0.720191 4.469436 0
M  V30 16 C 0.075084 -0.691880 4.212441 0
M  V30 17 C -0.839267 -1.470028 3.361225 0
M  V30 18 C -1.847165 -2.164454 4.039459 0
M  V30 19 C -2.809620 -2.956031 3.441709 0
M  V30 20 C -2.792691 -3.086454 2.052858 0
M  V30 21 N -3.531182 -3.740542 1.141617 0
M  V30 22 C -3.028880 -3.485685 -0.080088 0
M  V30 23 N -3.650641 -4.074285 -1.213502 0
M  V30 24 C -3.376747 -5.310268 -1.827570 0
M  V30 25 C -4.185608 -5.707519 -3.027463 0
M  V30 26 O -2.464216 -5.971484 -1.299862 0
M  V30 27 N -1.975764 -2.671678 0.068679 0
M  V30 28 C -1.805633 -2.407721 1.376281 0
M  V30 29 C -0.853409 -1.622205 1.990952 0
M  V30 30 H 2.317866 -1.417420 -1.032370 0
M  V30 31 H 0.764609 -1.343716 -1.918097 0
M  V30 32 H 2.164836 -0.407810 -2.517891 0
M  V30 33 H 3.709166 0.746704 -1.809648 0
M  V30 34 H 6.118280 1.867298 -1.393035 0
M  V30 35 H 6.049892 3.647891 -1.089945 0
M  V30 36 H 5.317804 2.928297 -2.587730 0
M  V30 37 H 2.179580 4.190202 1.317894 0
M  V30 38 H -0.502347 2.648686 0.787611 0
M  V30 39 H -1.398823 1.813149 2.833260 0
M  V30 40 H 0.402616 1.196483 5.087700 0
M  V30 41 H -1.380564 0.760362 4.928570 0
M  V30 42 H 0.234007 -1.246986 5.178145 0
M  V30 43 H 1.071667 -0.719996 3.715939 0
M  V30 44 H -1.929834 -2.114178 5.135045 0
M  V30 45 H -3.555939 -3.464683 3.997873 0
M  V30 46 H -4.406029 -3.473236 -1.610340 0
M  V30 47 H -4.341018 -4.853739 -3.721658 0
M  V30 48 H -3.687038 -6.520597 -3.573575 0
M  V30 49 H -5.155919 -6.066504 -2.622215 0
M  V30 50 H -1.415459 -2.332130 -0.758880 0
M  V30 51 H -0.070579 -1.083286 1.481715 0
M  V30 END ATOM
M  V30 BEGIN BOND
M  V30 1 1 1 2
M  V30 2 1 2 3
M  V30 3 2 3 4
M  V30 4 1 4 5
M  V30 5 1 5 6
M  V30 6 2 5 7
M  V30 7 1 7 8
M  V30 8 1 7 9
M  V30 9 2 9 10
M  V30 10 1 10 11
M  V30 11 1 11 12
M  V30 12 2 12 13
M  V30 13 1 12 14
M  V30 14 1 14 15
M  V30 15 1 15 16
M  V30 16 1 16 17
M  V30 17 2 17 18
M  V30 18 1 18 19
M  V30 19 2 19 20
M  V30 20 1 20 21
M  V30 21 2 21 22
M  V30 22 1 22 23
M  V30 23 1 23 24
M  V30 24 1 24 25
M  V30 25 2 24 26
M  V30 26 1 22 27
M  V30 27 1 27 28
M  V30 28 2 28 29
M  V30 29 1 10 3
M  V30 30 1 29 17
M  V30 31 1 28 20
M  V30 32 1 1 30
M  V30 33 1 1 31
M  V30 34 1 1 32
M  V30 35 1 4 33
M  V30 36 1 6 34
M  V30 37 1 6 35
M  V30 38 1 6 36
M  V30 39 1 9 37
M  V30 40 1 11 38
M  V30 41 1 14 39
M  V30 42 1 15 40
M  V30 43 1 15 41
M  V30 44 1 16 42
M  V30 45 1 16 43
M  V30 46 1 18 44
M  V30 47 1 19 45
M  V30 48 1 23 46
M  V30 49 1 25 47
M  V30 50 1 25 48
M  V30 51 1 25 49
M  V30 52 1 27 50
M  V30 53 1 29 51
M  V30 END BOND
M  V30 END CTAB
M  END
>  <Dataset>  (244) 
ChEMBL_Kinases

>  <Ligand_Instance>  (244) 
nan

>  <PDB_ID>  (244) 
nan

>  <Standardized_SMILES>  (244) 
COc1cc(C)c(Cl)cc1NC(=O)NCCc1ccc2nc(NC(C)=O)[nH]c2c1

>  <Name>  (244) 
nan

>  <Pocket>  (244) 
nan

>  <ATP_Site>  (244) 
nan

>  <Peripheral>  (244) 
nan

>  <Num_H_Atoms_ProtBoundConf>  (244) 
nan

>  <Num_Resolved_Atoms>  (244) 
nan

>  <Num_Not_Resolved_Atoms>  (244) 
nan

$$$$
CHEMBL1672572
     RDKit          3D

  0  0  0  0  0  0  0  0  0  0999 V3000
M  V30 BEGIN CTAB
M  V30 COUNTS 26 28 0 0 0
M  V30 BEGIN ATOM
M  V30 1 N 2.336508 -2.041612 5.452775 0 CHG=-1 VAL=2
M  V30 2 N 2.894862 -1.524025 4.478912 0 CHG=1 VAL=4
M  V30 3 N 3.508914 -1.449600 3.414960 0
M  V30 4 C 2.839159 -1.520314 2.135365 0
M  V30 5 C 3.327794 -2.460381 1.291087 0
M  V30 6 C 2.711225 -2.552666 0.064362 0
M  V30 7 C 1.648652 -1.672655 -0.186932 0
M  V30 8 S 0.617509 -1.527560 -1.701445 0
M  V30 9 C -0.370872 -0.224117 -1.064796 0
M  V30 10 C 0.099406 0.031160 0.201386 0
M  V30 11 C 1.135440 -0.704903 0.664680 0
M  V30 12 C 1.807941 -0.679652 1.867499 0
M  V30 13 S -0.634719 1.322200 1.231994 0
M  V30 14 C -2.373210 1.446828 1.162620 0
M  V30 15 C -3.135364 0.899021 0.029243 0
M  V30 16 N -2.579094 1.140056 -1.287264 0
M  V30 17 C -1.466728 0.390457 -1.840799 0
M  V30 18 O -1.363340 0.208281 -3.090564 0
M  V30 19 H 4.131740 -3.165017 1.411618 0
M  V30 20 H 2.987119 -3.248411 -0.708078 0
M  V30 21 H 1.538983 0.017837 2.655027 0
M  V30 22 H -2.669494 2.533648 1.262791 0
M  V30 23 H -2.815522 0.991935 2.097805 0
M  V30 24 H -3.368957 -0.196714 0.167368 0
M  V30 25 H -4.140975 1.386586 0.010455 0
M  V30 26 H -2.891017 1.862689 -2.001926 0
M  V30 END ATOM
M  V30 BEGIN BOND
M  V30 1 2 1 2
M  V30 2 2 2 3
M  V30 3 1 3 4
M  V30 4 2 4 5
M  V30 5 1 5 6
M  V30 6 2 6 7
M  V30 7 1 7 8
M  V30 8 1 8 9
M  V30 9 2 9 10
M  V30 10 1 10 11
M  V30 11 2 11 12
M  V30 12 1 10 13
M  V30 13 1 13 14
M  V30 14 1 14 15
M  V30 15 1 15 16
M  V30 16 1 16 17
M  V30 17 2 17 18
M  V30 18 1 12 4
M  V30 19 1 11 7
M  V30 20 1 17 9
M  V30 21 1 5 19
M  V30 22 1 6 20
M  V30 23 1 12 21
M  V30 24 1 14 22
M  V30 25 1 14 23
M  V30 26 1 15 24
M  V30 27 1 15 25
M  V30 28 1 16 26
M  V30 END BOND
M  V30 END CTAB
M  END
>  <Dataset>  (245) 
ChEMBL_Kinases

>  <Ligand_Instance>  (245) 
nan

>  <PDB_ID>  (245) 
nan

>  <Standardized_SMILES>  (245) 
[N-]=[N+]=Nc1ccc2sc3c(c2c1)SCCNC3=O

>  <Name>  (245) 
nan

>  <Pocket>  (245) 
nan

>  <ATP_Site>  (245) 
nan

>  <Peripheral>  (245) 
nan

>  <Num_H_Atoms_ProtBoundConf>  (245) 
nan

>  <Num_Resolved_Atoms>  (245) 
nan

>  <Num_Not_Resolved_Atoms>  (245) 
nan

$$$$
CHEMBL1672573
     RDKit          3D

  0  0  0  0  0  0  0  0  0  0999 V3000
M  V30 BEGIN CTAB
M  V30 COUNTS 28 30 0 0 0
M  V30 BEGIN ATOM
M  V30 1 O -0.739129 -3.642654 -0.992624 0
M  V30 2 C -0.188155 -3.085186 -0.000889 0
M  V30 3 N 0.262415 -4.033855 0.990671 0
M  V30 4 C 0.356790 -3.873930 2.450402 0
M  V30 5 C 0.643575 -2.423661 2.796815 0
M  V30 6 C 2.059220 -2.058227 2.472537 0
M  V30 7 S 2.070305 -0.607746 1.408963 0
M  V30 8 C 0.607098 -0.596007 0.343843 0
M  V30 9 C -0.153793 -1.646200 -0.119075 0
M  V30 10 S -1.416397 -0.929327 -1.125081 0
M  V30 11 C -0.862595 0.795090 -0.879903 0
M  V30 12 C -1.421871 1.955144 -1.405991 0
M  V30 13 C -0.817153 3.143721 -1.071357 0
M  V30 14 C 0.279879 3.068342 -0.250345 0
M  V30 15 O 0.866393 4.300074 0.066655 0
M  V30 16 C 0.775088 1.884753 0.230464 0
M  V30 17 C 0.219980 0.657036 -0.063624 0
M  V30 18 H 0.540743 -4.923405 0.550673 0
M  V30 19 H 1.110945 -4.558326 2.843790 0
M  V30 20 H -0.613325 -4.113293 2.944757 0
M  V30 21 H -0.127519 -1.795392 2.331174 0
M  V30 22 H 0.484542 -2.333763 3.892958 0
M  V30 23 H 2.684003 -1.927358 3.380248 0
M  V30 24 H 2.522268 -2.936515 1.934139 0
M  V30 25 H -2.282055 1.858544 -2.034823 0
M  V30 26 H -1.292852 4.005246 -1.506844 0
M  V30 27 H 0.977845 4.542248 1.041729 0
M  V30 28 H 1.659360 2.021658 0.873347 0
M  V30 END ATOM
M  V30 BEGIN BOND
M  V30 1 2 1 2
M  V30 2 1 2 3
M  V30 3 1 3 4
M  V30 4 1 4 5
M  V30 5 1 5 6
M  V30 6 1 6 7
M  V30 7 1 7 8
M  V30 8 2 8 9
M  V30 9 1 9 10
M  V30 10 1 10 11
M  V30 11 2 11 12
M  V30 12 1 12 13
M  V30 13 2 13 14
M  V30 14 1 14 15
M  V30 15 1 14 16
M  V30 16 2 16 17
M  V30 17 1 9 2
M  V30 18 1 17 11
M  V30 19 1 17 8
M  V30 20 1 3 18
M  V30 21 1 4 19
M  V30 22 1 4 20
M  V30 23 1 5 21
M  V30 24 1 5 22
M  V30 25 1 6 23
M  V30 26 1 6 24
M  V30 27 1 12 25
M  V30 28 1 13 26
M  V30 29 1 15 27
M  V30 30 1 16 28
M  V30 END BOND
M  V30 END CTAB
M  END
>  <Dataset>  (246) 
ChEMBL_Kinases

>  <Ligand_Instance>  (246) 
nan

>  <PDB_ID>  (246) 
nan

>  <Standardized_SMILES>  (246) 
O=C1NCCCSc2c1sc1ccc(O)cc21

>  <Name>  (246) 
nan

>  <Pocket>  (246) 
nan

>  <ATP_Site>  (246) 
nan

>  <Peripheral>  (246) 
nan

>  <Num_H_Atoms_ProtBoundConf>  (246) 
nan

>  <Num_Resolved_Atoms>  (246) 
nan

>  <Num_Not_Resolved_Atoms>  (246) 
nan

$$$$
CHEMBL1672574
     RDKit          3D

  0  0  0  0  0  0  0  0  0  0999 V3000
M  V30 BEGIN CTAB
M  V30 COUNTS 31 33 0 0 0
M  V30 BEGIN ATOM
M  V30 1 C -0.347631 -4.984684 2.160021 0
M  V30 2 O 0.949247 -4.614013 2.583572 0
M  V30 3 C 1.433592 -3.365172 2.152865 0
M  V30 4 C 2.702461 -3.071762 2.603950 0
M  V30 5 C 3.211747 -1.855447 2.202421 0
M  V30 6 C 2.429791 -1.048366 1.400534 0
M  V30 7 S 2.763296 0.596213 0.687926 0
M  V30 8 C 1.182203 0.735219 -0.141699 0
M  V30 9 C 0.526509 -0.417867 0.156137 0
M  V30 10 C 1.188650 -1.307318 0.944433 0
M  V30 11 C 0.689265 -2.528928 1.353503 0
M  V30 12 S -1.126445 -0.812453 -0.430978 0
M  V30 13 C -2.343382 0.430861 0.059717 0
M  V30 14 C -1.757361 1.814804 0.202679 0
M  V30 15 C -1.539634 2.469832 -1.134362 0
M  V30 16 N -0.120527 2.652776 -1.412411 0
M  V30 17 C 1.052080 1.999812 -0.872426 0
M  V30 18 O 2.155268 2.615990 -1.056723 0
M  V30 19 H -1.039600 -4.204030 2.508450 0
M  V30 20 H -0.613334 -6.006610 2.417374 0
M  V30 21 H -0.308183 -4.951775 1.032429 0
M  V30 22 H 3.313904 -3.701897 3.230481 0
M  V30 23 H 4.171871 -1.486774 2.465967 0
M  V30 24 H -0.282458 -2.913074 1.092643 0
M  V30 25 H -3.154763 0.475756 -0.711576 0
M  V30 26 H -2.817662 0.108389 1.023982 0
M  V30 27 H -2.473684 2.435149 0.782533 0
M  V30 28 H -0.829135 1.780705 0.815161 0
M  V30 29 H -2.047682 3.438478 -1.170705 0
M  V30 30 H -1.972296 1.824463 -1.915527 0
M  V30 31 H 0.158529 3.367408 -2.114910 0
M  V30 END ATOM
M  V30 BEGIN BOND
M  V30 1 1 1 2
M  V30 2 1 2 3
M  V30 3 2 3 4
M  V30 4 1 4 5
M  V30 5 2 5 6
M  V30 6 1 6 7
M  V30 7 1 7 8
M  V30 8 2 8 9
M  V30 9 1 9 10
M  V30 10 2 10 11
M  V30 11 1 9 12
M  V30 12 1 12 13
M  V30 13 1 13 14
M  V30 14 1 14 15
M  V30 15 1 15 16
M  V30 16 1 16 17
M  V30 17 2 17 18
M  V30 18 1 11 3
M  V30 19 1 10 6
M  V30 20 1 17 8
M  V30 21 1 1 19
M  V30 22 1 1 20
M  V30 23 1 1 21
M  V30 24 1 4 22
M  V30 25 1 5 23
M  V30 26 1 11 24
M  V30 27 1 13 25
M  V30 28 1 13 26
M  V30 29 1 14 27
M  V30 30 1 14 28
M  V30 31 1 15 29
M  V30 32 1 15 30
M  V30 33 1 16 31
M  V30 END BOND
M  V30 END CTAB
M  END
>  <Dataset>  (247) 
ChEMBL_Kinases

>  <Ligand_Instance>  (247) 
nan

>  <PDB_ID>  (247) 
nan

>  <Standardized_SMILES>  (247) 
COc1ccc2sc3c(c2c1)SCCCNC3=O

>  <Name>  (247) 
nan

>  <Pocket>  (247) 
nan

>  <ATP_Site>  (247) 
nan

>  <Peripheral>  (247) 
nan

>  <Num_H_Atoms_ProtBoundConf>  (247) 
nan

>  <Num_Resolved_Atoms>  (247) 
nan

>  <Num_Not_Resolved_Atoms>  (247) 
nan

$$$$
CHEMBL1673043
     RDKit          3D

  0  0  0  0  0  0  0  0  0  0999 V3000
M  V30 BEGIN CTAB
M  V30 COUNTS 78 83 0 0 0
M  V30 BEGIN ATOM
M  V30 1 C -0.235215 -1.486604 5.894907 0
M  V30 2 O 0.410384 -1.825535 4.707062 0
M  V30 3 C -0.230559 -1.686792 3.471572 0
M  V30 4 C -1.517185 -1.208140 3.437298 0
M  V30 5 C -2.195899 -1.052002 2.248499 0
M  V30 6 N -3.521516 -0.539939 2.186267 0
M  V30 7 C -4.453511 -0.584983 1.085481 0
M  V30 8 C -5.415811 0.571746 1.054843 0
M  V30 9 C -4.775735 1.861859 1.513811 0
M  V30 10 N -3.706821 2.289048 0.666502 0
M  V30 11 C -3.143089 3.513092 1.187634 0
M  V30 12 C -2.964609 4.583761 0.136551 0
M  V30 13 N -2.396664 4.121724 -1.092427 0
M  V30 14 C -0.956748 4.048451 -0.963371 0
M  V30 15 C -2.846800 2.794900 -1.485774 0
M  V30 16 C -4.110445 2.535304 -0.691828 0
M  V30 17 C -4.298431 1.662822 2.925549 0
M  V30 18 C -4.231429 0.178418 3.244314 0
M  V30 19 C -1.554913 -1.388466 1.068125 0
M  V30 20 C -0.263424 -1.862579 1.173749 0
M  V30 21 C 0.468215 -2.042115 2.322672 0
M  V30 22 N 1.794610 -2.532175 2.400817 0
M  V30 23 C 2.680702 -2.887379 1.361091 0
M  V30 24 N 3.892531 -3.358432 1.674891 0
M  V30 25 C 4.838480 -3.720537 0.812890 0
M  V30 26 C 4.550067 -3.602243 -0.523977 0
M  V30 27 C 3.305309 -3.118937 -0.851459 0
M  V30 28 N 2.388323 -2.768153 0.058577 0
M  V30 29 N 2.792571 -2.914183 -2.177691 0
M  V30 30 C 1.376559 -2.975940 -2.346035 0
M  V30 31 C 3.536917 -2.654037 -3.362387 0
M  V30 32 C 2.793715 -2.002911 -4.328852 0
M  V30 33 C 3.405825 -1.690316 -5.539658 0
M  V30 34 C 4.719731 -2.007981 -5.803823 0
M  V30 35 C 5.445229 -2.664603 -4.810786 0
M  V30 36 C 4.873495 -2.985087 -3.611947 0
M  V30 37 C 5.838923 -3.672153 -2.726030 0
M  V30 38 O 6.951558 -3.992981 -3.219666 0
M  V30 39 N 5.637914 -4.016491 -1.338876 0
M  V30 40 C 6.634365 -4.855998 -0.720771 0
M  V30 41 H 0.461145 -1.649841 6.764816 0
M  V30 42 H -0.402042 -0.376828 5.899455 0
M  V30 43 H -1.177713 -2.006882 6.057273 0
M  V30 44 H -1.958963 -0.969884 4.386666 0
M  V30 45 H -5.068035 -1.512307 1.242699 0
M  V30 46 H -3.915188 -0.740043 0.159930 0
M  V30 47 H -6.239369 0.346422 1.763430 0
M  V30 48 H -5.839792 0.611832 0.052370 0
M  V30 49 H -5.579303 2.627227 1.526074 0
M  V30 50 H -2.105710 3.335848 1.599272 0
M  V30 51 H -3.741154 3.960441 2.011848 0
M  V30 52 H -3.880921 5.204400 -0.019018 0
M  V30 53 H -2.224670 5.323860 0.564251 0
M  V30 54 H -0.483233 5.032387 -0.989530 0
M  V30 55 H -0.768621 3.590769 0.047935 0
M  V30 56 H -0.518564 3.373723 -1.722836 0
M  V30 57 H -2.104270 2.028557 -1.117764 0
M  V30 58 H -3.009107 2.683508 -2.570058 0
M  V30 59 H -4.629600 1.694842 -1.183656 0
M  V30 60 H -4.798631 3.406378 -0.703976 0
M  V30 61 H -4.885449 2.164642 3.694327 0
M  V30 62 H -3.246565 2.009954 2.982431 0
M  V30 63 H -3.622153 0.102233 4.154929 0
M  V30 64 H -5.235903 -0.198863 3.441814 0
M  V30 65 H -2.004675 -1.298826 0.087711 0
M  V30 66 H 0.193265 -2.114257 0.228988 0
M  V30 67 H 2.160261 -2.644314 3.393318 0
M  V30 68 H 5.793706 -4.093920 1.089800 0
M  V30 69 H 0.959185 -3.643375 -1.535025 0
M  V30 70 H 0.841513 -2.012994 -2.174859 0
M  V30 71 H 1.046568 -3.498376 -3.281739 0
M  V30 72 H 1.771689 -1.776488 -4.072576 0
M  V30 73 H 2.797736 -1.183385 -6.273629 0
M  V30 74 H 5.104779 -1.725211 -6.774002 0
M  V30 75 H 6.491214 -2.910027 -5.035701 0
M  V30 76 H 7.397385 -4.307781 -0.137363 0
M  V30 77 H 7.228877 -5.308885 -1.570497 0
M  V30 78 H 6.210543 -5.738439 -0.202935 0
M  V30 END ATOM
M  V30 BEGIN BOND
M  V30 1 1 1 2
M  V30 2 1 2 3
M  V30 3 2 3 4
M  V30 4 1 4 5
M  V30 5 1 5 6
M  V30 6 1 6 7
M  V30 7 1 7 8
M  V30 8 1 8 9
M  V30 9 1 9 10
M  V30 10 1 10 11
M  V30 11 1 11 12
M  V30 12 1 12 13
M  V30 13 1 13 14
M  V30 14 1 13 15
M  V30 15 1 15 16
M  V30 16 1 9 17
M  V30 17 1 17 18
M  V30 18 2 5 19
M  V30 19 1 19 20
M  V30 20 2 20 21
M  V30 21 1 21 22
M  V30 22 1 22 23
M  V30 23 2 23 24
M  V30 24 1 24 25
M  V30 25 2 25 26
M  V30 26 1 26 27
M  V30 27 2 27 28
M  V30 28 1 27 29
M  V30 29 1 29 30
M  V30 30 1 29 31
M  V30 31 2 31 32
M  V30 32 1 32 33
M  V30 33 2 33 34
M  V30 34 1 34 35
M  V30 35 2 35 36
M  V30 36 1 36 37
M  V30 37 2 37 38
M  V30 38 1 37 39
M  V30 39 1 39 40
M  V30 40 1 21 3
M  V30 41 1 28 23
M  V30 42 1 36 31
M  V30 43 1 18 6
M  V30 44 1 39 26
M  V30 45 1 16 10
M  V30 46 1 1 41
M  V30 47 1 1 42
M  V30 48 1 1 43
M  V30 49 1 4 44
M  V30 50 1 7 45
M  V30 51 1 7 46
M  V30 52 1 8 47
M  V30 53 1 8 48
M  V30 54 1 9 49
M  V30 55 1 11 50
M  V30 56 1 11 51
M  V30 57 1 12 52
M  V30 58 1 12 53
M  V30 59 1 14 54
M  V30 60 1 14 55
M  V30 61 1 14 56
M  V30 62 1 15 57
M  V30 63 1 15 58
M  V30 64 1 16 59
M  V30 65 1 16 60
M  V30 66 1 17 61
M  V30 67 1 17 62
M  V30 68 1 18 63
M  V30 69 1 18 64
M  V30 70 1 19 65
M  V30 71 1 20 66
M  V30 72 1 22 67
M  V30 73 1 25 68
M  V30 74 1 30 69
M  V30 75 1 30 70
M  V30 76 1 30 71
M  V30 77 1 32 72
M  V30 78 1 33 73
M  V30 79 1 34 74
M  V30 80 1 35 75
M  V30 81 1 40 76
M  V30 82 1 40 77
M  V30 83 1 40 78
M  V30 END BOND
M  V30 END CTAB
M  END
>  <Dataset>  (248) 
ChEMBL_Kinases

>  <Ligand_Instance>  (248) 
nan

>  <PDB_ID>  (248) 
nan

>  <Standardized_SMILES>  (248) 
COc1cc(N2CCC(N3CCN(C)CC3)CC2)ccc1Nc1ncc2c(n1)N(C)c1ccccc1C(=O)N2C

>  <Name>  (248) 
nan

>  <Pocket>  (248) 
nan

>  <ATP_Site>  (248) 
nan

>  <Peripheral>  (248) 
nan

>  <Num_H_Atoms_ProtBoundConf>  (248) 
nan

>  <Num_Resolved_Atoms>  (248) 
nan

>  <Num_Not_Resolved_Atoms>  (248) 
nan

$$$$
CHEMBL1673044
     RDKit          3D

  0  0  0  0  0  0  0  0  0  0999 V3000
M  V30 BEGIN CTAB
M  V30 COUNTS 64 68 0 0 0
M  V30 BEGIN ATOM
M  V30 1 C 3.531352 1.282248 3.885999 0
M  V30 2 O 2.216288 0.979404 3.472486 0
M  V30 3 C 1.959131 0.813113 2.136345 0
M  V30 4 C 2.875108 0.911027 1.111013 0
M  V30 5 C 2.553591 0.732739 -0.206333 0
M  V30 6 C 3.580163 0.849685 -1.257245 0
M  V30 7 C 4.737032 -0.096383 -1.030846 0
M  V30 8 C 5.761258 0.056879 -2.098574 0
M  V30 9 N 5.512561 1.035959 -3.078713 0
M  V30 10 C 5.135921 0.606521 -4.376847 0
M  V30 11 C 4.996342 2.288313 -2.630436 0
M  V30 12 C 4.157849 2.242042 -1.392496 0
M  V30 13 C 1.242704 0.439171 -0.529414 0
M  V30 14 C 0.311744 0.337066 0.481819 0
M  V30 15 C 0.640367 0.519235 1.830356 0
M  V30 16 N -0.380863 0.385415 2.827472 0
M  V30 17 C -1.726970 0.102130 2.396888 0
M  V30 18 N -2.641727 1.073781 2.229276 0
M  V30 19 C -3.887839 0.781696 1.816809 0
M  V30 20 C -4.166846 -0.550567 1.580055 0
M  V30 21 C -3.236292 -1.552322 1.748817 0
M  V30 22 N -1.994635 -1.196133 2.167638 0
M  V30 23 N -3.276085 -2.961785 1.568196 0
M  V30 24 C -2.004257 -3.650079 1.569506 0
M  V30 25 C -4.436412 -3.765089 1.381271 0
M  V30 26 C -4.089336 -5.089943 1.400311 0
M  V30 27 C -5.112173 -5.998412 1.228453 0
M  V30 28 C -6.424825 -5.618176 1.045199 0
M  V30 29 C -6.753693 -4.260313 1.029655 0
M  V30 30 C -5.738836 -3.343452 1.200517 0
M  V30 31 C -6.255434 -1.975179 1.156744 0
M  V30 32 O -7.505048 -1.822444 1.120610 0
M  V30 33 N -5.512275 -0.756500 1.149430 0
M  V30 34 C -6.162276 0.430971 0.656248 0
M  V30 35 H 3.754892 2.356178 3.768935 0
M  V30 36 H 4.303528 0.735720 3.311326 0
M  V30 37 H 3.664895 1.040919 4.974849 0
M  V30 38 H 3.892611 1.140320 1.363168 0
M  V30 39 H 3.151832 0.620158 -2.273269 0
M  V30 40 H 5.226629 0.225812 -0.065115 0
M  V30 41 H 4.419738 -1.150825 -0.891187 0
M  V30 42 H 5.848310 -0.939289 -2.621550 0
M  V30 43 H 6.791570 0.225975 -1.690598 0
M  V30 44 H 6.075907 0.611577 -4.998435 0
M  V30 45 H 4.839978 -0.479145 -4.382195 0
M  V30 46 H 4.404707 1.212739 -4.913929 0
M  V30 47 H 5.882396 2.962508 -2.460661 0
M  V30 48 H 4.419209 2.769593 -3.471850 0
M  V30 49 H 3.366294 3.016393 -1.471052 0
M  V30 50 H 4.803808 2.411511 -0.505908 0
M  V30 51 H 0.908035 0.283571 -1.545276 0
M  V30 52 H -0.719390 0.108271 0.248573 0
M  V30 53 H -0.082244 0.502202 3.807878 0
M  V30 54 H -4.641548 1.538132 1.673492 0
M  V30 55 H -1.803420 -4.238056 2.482632 0
M  V30 56 H -1.188708 -2.868749 1.562517 0
M  V30 57 H -1.806192 -4.211094 0.618115 0
M  V30 58 H -3.111080 -5.478300 1.533860 0
M  V30 59 H -4.901749 -7.054389 1.233586 0
M  V30 60 H -7.197440 -6.363963 0.914264 0
M  V30 61 H -7.772823 -3.943299 0.886961 0
M  V30 62 H -7.053260 0.081958 0.064016 0
M  V30 63 H -5.559913 1.005599 -0.067463 0
M  V30 64 H -6.611695 1.061974 1.457822 0
M  V30 END ATOM
M  V30 BEGIN BOND
M  V30 1 1 1 2
M  V30 2 1 2 3
M  V30 3 2 3 4
M  V30 4 1 4 5
M  V30 5 1 5 6
M  V30 6 1 6 7
M  V30 7 1 7 8
M  V30 8 1 8 9
M  V30 9 1 9 10
M  V30 10 1 9 11
M  V30 11 1 11 12
M  V30 12 2 5 13
M  V30 13 1 13 14
M  V30 14 2 14 15
M  V30 15 1 15 16
M  V30 16 1 16 17
M  V30 17 2 17 18
M  V30 18 1 18 19
M  V30 19 2 19 20
M  V30 20 1 20 21
M  V30 21 2 21 22
M  V30 22 1 21 23
M  V30 23 1 23 24
M  V30 24 1 23 25
M  V30 25 2 25 26
M  V30 26 1 26 27
M  V30 27 2 27 28
M  V30 28 1 28 29
M  V30 29 2 29 30
M  V30 30 1 30 31
M  V30 31 2 31 32
M  V30 32 1 31 33
M  V30 33 1 33 34
M  V30 34 1 15 3
M  V30 35 1 22 17
M  V30 36 1 30 25
M  V30 37 1 12 6
M  V30 38 1 33 20
M  V30 39 1 1 35
M  V30 40 1 1 36
M  V30 41 1 1 37
M  V30 42 1 4 38
M  V30 43 1 6 39
M  V30 44 1 7 40
M  V30 45 1 7 41
M  V30 46 1 8 42
M  V30 47 1 8 43
M  V30 48 1 10 44
M  V30 49 1 10 45
M  V30 50 1 10 46
M  V30 51 1 11 47
M  V30 52 1 11 48
M  V30 53 1 12 49
M  V30 54 1 12 50
M  V30 55 1 13 51
M  V30 56 1 14 52
M  V30 57 1 16 53
M  V30 58 1 19 54
M  V30 59 1 24 55
M  V30 60 1 24 56
M  V30 61 1 24 57
M  V30 62 1 26 58
M  V30 63 1 27 59
M  V30 64 1 28 60
M  V30 65 1 29 61
M  V30 66 1 34 62
M  V30 67 1 34 63
M  V30 68 1 34 64
M  V30 END BOND
M  V30 END CTAB
M  END
>  <Dataset>  (249) 
ChEMBL_Kinases

>  <Ligand_Instance>  (249) 
nan

>  <PDB_ID>  (249) 
nan

>  <Standardized_SMILES>  (249) 
COc1cc(C2CCN(C)CC2)ccc1Nc1ncc2c(n1)N(C)c1ccccc1C(=O)N2C

>  <Name>  (249) 
nan

>  <Pocket>  (249) 
nan

>  <ATP_Site>  (249) 
nan

>  <Peripheral>  (249) 
nan

>  <Num_H_Atoms_ProtBoundConf>  (249) 
nan

>  <Num_Resolved_Atoms>  (249) 
nan

>  <Num_Not_Resolved_Atoms>  (249) 
nan

$$$$
CHEMBL1673045
     RDKit          3D

  0  0  0  0  0  0  0  0  0  0999 V3000
M  V30 BEGIN CTAB
M  V30 COUNTS 62 66 0 0 0
M  V30 BEGIN ATOM
M  V30 1 C 2.732432 -0.037404 4.096112 0
M  V30 2 C 2.364250 0.078162 2.665810 0
M  V30 3 C 3.273392 0.543544 1.743449 0
M  V30 4 C 2.982277 0.669653 0.403332 0
M  V30 5 N 3.923545 1.148733 -0.547105 0
M  V30 6 C 3.549710 1.306049 -1.947582 0
M  V30 7 C 4.591455 2.170552 -2.605478 0
M  V30 8 N 5.837406 1.448759 -2.630894 0
M  V30 9 C 5.726709 0.456342 -3.681434 0
M  V30 10 C 6.144313 0.872252 -1.338997 0
M  V30 11 C 5.290650 1.511184 -0.235208 0
M  V30 12 C 1.722096 0.311344 -0.023027 0
M  V30 13 C 0.833825 -0.151109 0.924358 0
M  V30 14 C 1.072439 -0.296720 2.274017 0
M  V30 15 N 0.146292 -0.771046 3.210735 0
M  V30 16 C -1.197577 -1.195148 3.023827 0
M  V30 17 N -1.908298 -1.623669 4.080662 0
M  V30 18 C -3.177747 -2.044579 4.019857 0
M  V30 19 C -3.794693 -2.036833 2.789554 0
M  V30 20 C -3.114558 -1.608026 1.672429 0
M  V30 21 N -1.846870 -1.208412 1.850261 0
M  V30 22 N -3.537529 -1.512163 0.317614 0
M  V30 23 C -2.848224 -0.546564 -0.474185 0
M  V30 24 C -4.555996 -2.272715 -0.294005 0
M  V30 25 C -4.394081 -2.284749 -1.672554 0
M  V30 26 C -5.325173 -2.995334 -2.404064 0
M  V30 27 C -6.361745 -3.659809 -1.812541 0
M  V30 28 C -6.529627 -3.651129 -0.425093 0
M  V30 29 C -5.607621 -2.945675 0.319064 0
M  V30 30 C -5.899432 -3.017290 1.767323 0
M  V30 31 O -6.958199 -3.599284 2.096193 0
M  V30 32 N -5.133103 -2.507857 2.877527 0
M  V30 33 C -5.744796 -2.463116 4.177266 0
M  V30 34 H 2.012811 0.500421 4.743605 0
M  V30 35 H 3.710456 0.463721 4.234112 0
M  V30 36 H 2.861681 -1.100906 4.412078 0
M  V30 37 H 4.250631 0.812495 2.130782 0
M  V30 38 H 3.402156 0.350189 -2.457493 0
M  V30 39 H 2.575382 1.872032 -1.929180 0
M  V30 40 H 4.634188 3.137616 -2.074672 0
M  V30 41 H 4.244658 2.363509 -3.652577 0
M  V30 42 H 6.682258 0.328788 -4.230474 0
M  V30 43 H 4.982697 0.804772 -4.451801 0
M  V30 44 H 5.396910 -0.530977 -3.328392 0
M  V30 45 H 5.815163 -0.202046 -1.359163 0
M  V30 46 H 7.218970 0.936535 -1.128967 0
M  V30 47 H 5.668064 1.071324 0.705248 0
M  V30 48 H 5.437923 2.607266 -0.280134 0
M  V30 49 H 1.475798 0.401171 -1.061183 0
M  V30 50 H -0.128999 -0.411220 0.515655 0
M  V30 51 H 0.503357 -0.821003 4.212817 0
M  V30 52 H -3.725668 -2.380161 4.863726 0
M  V30 53 H -3.549557 0.048796 -1.130342 0
M  V30 54 H -1.975115 -0.928629 -1.038240 0
M  V30 55 H -2.408474 0.256531 0.186706 0
M  V30 56 H -3.555341 -1.742623 -2.099618 0
M  V30 57 H -5.173455 -2.988140 -3.489792 0
M  V30 58 H -7.077480 -4.209479 -2.413380 0
M  V30 59 H -7.331842 -4.162076 0.071257 0
M  V30 60 H -6.860209 -2.515344 4.005487 0
M  V30 61 H -5.607928 -1.511815 4.717420 0
M  V30 62 H -5.535736 -3.360929 4.793002 0
M  V30 END ATOM
M  V30 BEGIN BOND
M  V30 1 1 1 2
M  V30 2 2 2 3
M  V30 3 1 3 4
M  V30 4 1 4 5
M  V30 5 1 5 6
M  V30 6 1 6 7
M  V30 7 1 7 8
M  V30 8 1 8 9
M  V30 9 1 8 10
M  V30 10 1 10 11
M  V30 11 2 4 12
M  V30 12 1 12 13
M  V30 13 2 13 14
M  V30 14 1 14 15
M  V30 15 1 15 16
M  V30 16 2 16 17
M  V30 17 1 17 18
M  V30 18 2 18 19
M  V30 19 1 19 20
M  V30 20 2 20 21
M  V30 21 1 20 22
M  V30 22 1 22 23
M  V30 23 1 22 24
M  V30 24 2 24 25
M  V30 25 1 25 26
M  V30 26 2 26 27
M  V30 27 1 27 28
M  V30 28 2 28 29
M  V30 29 1 29 30
M  V30 30 2 30 31
M  V30 31 1 30 32
M  V30 32 1 32 33
M  V30 33 1 14 2
M  V30 34 1 21 16
M  V30 35 1 29 24
M  V30 36 1 11 5
M  V30 37 1 32 19
M  V30 38 1 1 34
M  V30 39 1 1 35
M  V30 40 1 1 36
M  V30 41 1 3 37
M  V30 42 1 6 38
M  V30 43 1 6 39
M  V30 44 1 7 40
M  V30 45 1 7 41
M  V30 46 1 9 42
M  V30 47 1 9 43
M  V30 48 1 9 44
M  V30 49 1 10 45
M  V30 50 1 10 46
M  V30 51 1 11 47
M  V30 52 1 11 48
M  V30 53 1 12 49
M  V30 54 1 13 50
M  V30 55 1 15 51
M  V30 56 1 18 52
M  V30 57 1 23 53
M  V30 58 1 23 54
M  V30 59 1 23 55
M  V30 60 1 25 56
M  V30 61 1 26 57
M  V30 62 1 27 58
M  V30 63 1 28 59
M  V30 64 1 33 60
M  V30 65 1 33 61
M  V30 66 1 33 62
M  V30 END BOND
M  V30 END CTAB
M  END
>  <Dataset>  (250) 
ChEMBL_Kinases

>  <Ligand_Instance>  (250) 
nan

>  <PDB_ID>  (250) 
nan

>  <Standardized_SMILES>  (250) 
Cc1cc(N2CCN(C)CC2)ccc1Nc1ncc2c(n1)N(C)c1ccccc1C(=O)N2C

>  <Name>  (250) 
nan

>  <Pocket>  (250) 
nan

>  <ATP_Site>  (250) 
nan

>  <Peripheral>  (250) 
nan

>  <Num_H_Atoms_ProtBoundConf>  (250) 
nan

>  <Num_Resolved_Atoms>  (250) 
nan

>  <Num_Not_Resolved_Atoms>  (250) 
nan

$$$$
CHEMBL1673049
     RDKit          3D

  0  0  0  0  0  0  0  0  0  0999 V3000
M  V30 BEGIN CTAB
M  V30 COUNTS 75 80 0 0 0
M  V30 BEGIN ATOM
M  V30 1 C -0.635840 -0.057180 5.840662 0
M  V30 2 O 0.221166 -0.645568 4.874662 0
M  V30 3 C 0.185360 -0.156662 3.576250 0
M  V30 4 C -0.605851 0.864876 3.087983 0
M  V30 5 C -0.511858 1.226067 1.753478 0
M  V30 6 C -1.351274 2.304083 1.253928 0
M  V30 7 O -0.590630 3.241549 0.835296 0
M  V30 8 N -2.678907 2.736302 1.043587 0
M  V30 9 C -2.800476 4.036185 0.452382 0
M  V30 10 C -3.331628 3.893628 -0.961963 0
M  V30 11 C -4.500674 2.942310 -1.020679 0
M  V30 12 N -5.460700 3.396236 -1.922563 0
M  V30 13 C -6.171147 4.564157 -1.790933 0
M  V30 14 C -6.877325 4.759083 -3.115059 0
M  V30 15 C -6.005362 3.942756 -4.060295 0
M  V30 16 C -5.572418 2.759119 -3.176683 0
M  V30 17 C -5.034491 2.655986 0.370084 0
M  V30 18 C -3.963976 2.132664 1.299689 0
M  V30 19 C 0.346589 0.607483 0.869598 0
M  V30 20 C 1.152579 -0.416637 1.319731 0
M  V30 21 C 1.040350 -0.758196 2.654449 0
M  V30 22 N 1.894299 -1.822839 3.080094 0
M  V30 23 C 2.829772 -2.576185 2.319215 0
M  V30 24 N 4.058142 -2.022825 2.305731 0
M  V30 25 C 5.112993 -2.550789 1.654289 0
M  V30 26 C 4.930458 -3.727526 0.958358 0
M  V30 27 C 3.669166 -4.285182 0.979333 0
M  V30 28 N 2.633432 -3.736762 1.637944 0
M  V30 29 N 3.212929 -5.490619 0.348324 0
M  V30 30 C 2.003076 -6.111712 0.860513 0
M  V30 31 C 3.796513 -6.187648 -0.743692 0
M  V30 32 C 2.915054 -7.015742 -1.400070 0
M  V30 33 C 3.306969 -7.762034 -2.475278 0
M  V30 34 C 4.623674 -7.655532 -2.881691 0
M  V30 35 C 5.543378 -6.836735 -2.252397 0
M  V30 36 C 5.108615 -6.086910 -1.155299 0
M  V30 37 C 6.201515 -5.279771 -0.611556 0
M  V30 38 O 7.374988 -5.557954 -0.981956 0
M  V30 39 N 6.114961 -4.183048 0.313005 0
M  V30 40 C 7.338668 -3.462124 0.629502 0
M  V30 41 H -1.656229 0.070795 5.398283 0
M  V30 42 H -0.757364 -0.724133 6.730509 0
M  V30 43 H -0.249049 0.915698 6.182957 0
M  V30 44 H -1.267304 1.329094 3.805563 0
M  V30 45 H -3.520479 4.682301 1.028152 0
M  V30 46 H -1.868528 4.629642 0.420893 0
M  V30 47 H -2.545290 3.530680 -1.657411 0
M  V30 48 H -3.661886 4.865255 -1.371443 0
M  V30 49 H -4.113690 1.967990 -1.385849 0
M  V30 50 H -5.534920 5.464623 -1.658841 0
M  V30 51 H -6.972691 4.588488 -1.017451 0
M  V30 52 H -6.907826 5.826376 -3.415309 0
M  V30 53 H -7.856947 4.287469 -3.059338 0
M  V30 54 H -5.103271 4.558583 -4.274245 0
M  V30 55 H -6.536040 3.610028 -4.955453 0
M  V30 56 H -6.288837 1.932256 -3.226972 0
M  V30 57 H -4.581957 2.398814 -3.516486 0
M  V30 58 H -5.549746 3.533945 0.819924 0
M  V30 59 H -5.809449 1.863526 0.325139 0
M  V30 60 H -3.835432 1.043361 1.077322 0
M  V30 61 H -4.293071 2.295085 2.347523 0
M  V30 62 H 0.404316 0.906645 -0.174203 0
M  V30 63 H 1.836593 -0.926039 0.661278 0
M  V30 64 H 1.883976 -2.150219 4.091866 0
M  V30 65 H 6.083617 -2.076860 1.667224 0
M  V30 66 H 1.849066 -5.738815 1.916215 0
M  V30 67 H 2.173933 -7.185665 0.969853 0
M  V30 68 H 1.086630 -5.810693 0.335710 0
M  V30 69 H 1.905332 -7.065115 -1.048160 0
M  V30 70 H 2.617659 -8.403289 -2.979021 0
M  V30 71 H 4.985161 -8.232572 -3.737386 0
M  V30 72 H 6.570185 -6.764134 -2.582017 0
M  V30 73 H 8.173067 -4.044407 0.148915 0
M  V30 74 H 7.391885 -2.465379 0.155361 0
M  V30 75 H 7.582613 -3.470750 1.709774 0
M  V30 END ATOM
M  V30 BEGIN BOND
M  V30 1 1 1 2
M  V30 2 1 2 3
M  V30 3 2 3 4
M  V30 4 1 4 5
M  V30 5 1 5 6
M  V30 6 2 6 7
M  V30 7 1 6 8
M  V30 8 1 8 9
M  V30 9 1 9 10
M  V30 10 1 10 11
M  V30 11 1 11 12
M  V30 12 1 12 13
M  V30 13 1 13 14
M  V30 14 1 14 15
M  V30 15 1 15 16
M  V30 16 1 11 17
M  V30 17 1 17 18
M  V30 18 2 5 19
M  V30 19 1 19 20
M  V30 20 2 20 21
M  V30 21 1 21 22
M  V30 22 1 22 23
M  V30 23 2 23 24
M  V30 24 1 24 25
M  V30 25 2 25 26
M  V30 26 1 26 27
M  V30 27 2 27 28
M  V30 28 1 27 29
M  V30 29 1 29 30
M  V30 30 1 29 31
M  V30 31 2 31 32
M  V30 32 1 32 33
M  V30 33 2 33 34
M  V30 34 1 34 35
M  V30 35 2 35 36
M  V30 36 1 36 37
M  V30 37 2 37 38
M  V30 38 1 37 39
M  V30 39 1 39 40
M  V30 40 1 21 3
M  V30 41 1 28 23
M  V30 42 1 36 31
M  V30 43 1 18 8
M  V30 44 1 39 26
M  V30 45 1 16 12
M  V30 46 1 1 41
M  V30 47 1 1 42
M  V30 48 1 1 43
M  V30 49 1 4 44
M  V30 50 1 9 45
M  V30 51 1 9 46
M  V30 52 1 10 47
M  V30 53 1 10 48
M  V30 54 1 11 49
M  V30 55 1 13 50
M  V30 56 1 13 51
M  V30 57 1 14 52
M  V30 58 1 14 53
M  V30 59 1 15 54
M  V30 60 1 15 55
M  V30 61 1 16 56
M  V30 62 1 16 57
M  V30 63 1 17 58
M  V30 64 1 17 59
M  V30 65 1 18 60
M  V30 66 1 18 61
M  V30 67 1 19 62
M  V30 68 1 20 63
M  V30 69 1 22 64
M  V30 70 1 25 65
M  V30 71 1 30 66
M  V30 72 1 30 67
M  V30 73 1 30 68
M  V30 74 1 32 69
M  V30 75 1 33 70
M  V30 76 1 34 71
M  V30 77 1 35 72
M  V30 78 1 40 73
M  V30 79 1 40 74
M  V30 80 1 40 75
M  V30 END BOND
M  V30 END CTAB
M  END
>  <Dataset>  (251) 
ChEMBL_Kinases

>  <Ligand_Instance>  (251) 
nan

>  <PDB_ID>  (251) 
nan

>  <Standardized_SMILES>  (251) 
COc1cc(C(=O)N2CCC(N3CCCC3)CC2)ccc1Nc1ncc2c(n1)N(C)c1ccccc1C(=O)N2C

>  <Name>  (251) 
nan

>  <Pocket>  (251) 
nan

>  <ATP_Site>  (251) 
nan

>  <Peripheral>  (251) 
nan

>  <Num_H_Atoms_ProtBoundConf>  (251) 
nan

>  <Num_Resolved_Atoms>  (251) 
nan

>  <Num_Not_Resolved_Atoms>  (251) 
nan

$$$$
CHEMBL1681971
     RDKit          3D

  0  0  0  0  0  0  0  0  0  0999 V3000
M  V30 BEGIN CTAB
M  V30 COUNTS 48 50 0 0 0
M  V30 BEGIN ATOM
M  V30 1 C 2.053591 -4.660784 5.338105 0
M  V30 2 C 2.761634 -4.434371 4.018173 0
M  V30 3 C 1.762421 -3.852974 3.039236 0
M  V30 4 C 2.406814 -3.604223 1.696264 0
M  V30 5 C 3.551143 -2.647000 1.756829 0
M  V30 6 C 3.163188 -1.285656 2.265119 0
M  V30 7 N 2.166836 -0.650264 1.430967 0
M  V30 8 C 0.821565 -0.665496 1.464374 0
M  V30 9 C 0.485939 0.132462 0.404843 0
M  V30 10 C 1.592683 0.619430 -0.254270 0
M  V30 11 N 2.617473 0.108165 0.416591 0
M  V30 12 C 1.421415 1.487778 -1.404952 0
M  V30 13 C 0.098658 1.837280 -1.889953 0
M  V30 14 C -1.056607 1.290144 -1.133378 0
M  V30 15 C -0.856699 0.514246 -0.096198 0
M  V30 16 S -2.423270 0.086128 0.498847 0
M  V30 17 C -3.339647 1.059448 -0.792705 0
M  V30 18 N -4.759029 1.031382 -0.735430 0
M  V30 19 C -5.348723 2.045400 0.054184 0
M  V30 20 N -6.768868 2.079530 0.157939 0
M  V30 21 O -4.466023 2.786044 0.558523 0
M  V30 22 C -2.330717 1.602713 -1.534557 0
M  V30 23 C -2.843821 2.422201 -2.624882 0
M  V30 24 N -1.959056 3.083622 -3.519875 0
M  V30 25 O -4.045909 2.583669 -2.827009 0
M  V30 26 H 2.176328 -3.739691 5.939062 0
M  V30 27 H 0.980254 -4.794240 5.128229 0
M  V30 28 H 2.496596 -5.535757 5.850744 0
M  V30 29 H 3.556122 -3.648848 4.158696 0
M  V30 30 H 3.167220 -5.346035 3.578700 0
M  V30 31 H 1.002070 -4.659022 2.862044 0
M  V30 32 H 1.304526 -2.939102 3.436653 0
M  V30 33 H 2.855168 -4.596053 1.391446 0
M  V30 34 H 1.675433 -3.381601 0.914545 0
M  V30 35 H 3.955048 -2.521122 0.724298 0
M  V30 36 H 4.355116 -3.091739 2.373872 0
M  V30 37 H 2.711183 -1.449555 3.274488 0
M  V30 38 H 4.047405 -0.648495 2.437540 0
M  V30 39 H 0.248238 -1.199078 2.181139 0
M  V30 40 H 2.061112 2.409545 -1.205331 0
M  V30 41 H 2.009753 0.998750 -2.248679 0
M  V30 42 H 0.006533 1.574469 -2.990699 0
M  V30 43 H 0.037583 2.972133 -1.931108 0
M  V30 44 H -5.266929 0.288226 -1.262244 0
M  V30 45 H -7.282443 2.440680 -0.678443 0
M  V30 46 H -7.016680 1.713554 1.107593 0
M  V30 47 H -1.386705 2.949713 -4.372189 0
M  V30 48 H -1.653898 4.067181 -3.462416 0
M  V30 END ATOM
M  V30 BEGIN BOND
M  V30 1 1 1 2
M  V30 2 1 2 3
M  V30 3 1 3 4
M  V30 4 1 4 5
M  V30 5 1 5 6
M  V30 6 1 6 7
M  V30 7 1 7 8
M  V30 8 2 8 9
M  V30 9 1 9 10
M  V30 10 2 10 11
M  V30 11 1 10 12
M  V30 12 1 12 13
M  V30 13 1 13 14
M  V30 14 2 14 15
M  V30 15 1 15 16
M  V30 16 1 16 17
M  V30 17 1 17 18
M  V30 18 1 18 19
M  V30 19 1 19 20
M  V30 20 2 19 21
M  V30 21 2 17 22
M  V30 22 1 22 23
M  V30 23 1 23 24
M  V30 24 2 23 25
M  V30 25 1 11 7
M  V30 26 1 22 14
M  V30 27 1 15 9
M  V30 28 1 1 26
M  V30 29 1 1 27
M  V30 30 1 1 28
M  V30 31 1 2 29
M  V30 32 1 2 30
M  V30 33 1 3 31
M  V30 34 1 3 32
M  V30 35 1 4 33
M  V30 36 1 4 34
M  V30 37 1 5 35
M  V30 38 1 5 36
M  V30 39 1 6 37
M  V30 40 1 6 38
M  V30 41 1 8 39
M  V30 42 1 12 40
M  V30 43 1 12 41
M  V30 44 1 13 42
M  V30 45 1 13 43
M  V30 46 1 18 44
M  V30 47 1 20 45
M  V30 48 1 20 46
M  V30 49 1 24 47
M  V30 50 1 24 48
M  V30 END BOND
M  V30 END CTAB
M  END
>  <Dataset>  (252) 
ChEMBL_Kinases

>  <Ligand_Instance>  (252) 
nan

>  <PDB_ID>  (252) 
nan

>  <Standardized_SMILES>  (252) 
CCCCCCn1cc2c(n1)CCc1c-2sc(NC(N)=O)c1C(N)=O

>  <Name>  (252) 
nan

>  <Pocket>  (252) 
nan

>  <ATP_Site>  (252) 
nan

>  <Peripheral>  (252) 
nan

>  <Num_H_Atoms_ProtBoundConf>  (252) 
nan

>  <Num_Resolved_Atoms>  (252) 
nan

>  <Num_Not_Resolved_Atoms>  (252) 
nan

$$$$
CHEMBL1673055
     RDKit          3D

  0  0  0  0  0  0  0  0  0  0999 V3000
M  V30 BEGIN CTAB
M  V30 COUNTS 63 67 0 0 0
M  V30 BEGIN ATOM
M  V30 1 C 3.185406 0.549430 5.193509 0
M  V30 2 O 2.059629 0.540371 4.382045 0
M  V30 3 C 2.002443 0.620107 3.005784 0
M  V30 4 C 3.183157 0.722669 2.300392 0
M  V30 5 C 3.080539 0.802306 0.923077 0
M  V30 6 N 4.118172 0.873830 -0.054003 0
M  V30 7 C 5.127339 -0.158842 -0.279591 0
M  V30 8 C 4.582313 -0.838504 -1.549152 0
M  V30 9 N 4.232272 0.078222 -2.549348 0
M  V30 10 C 3.082188 -0.185977 -3.340390 0
M  V30 11 C 4.557065 1.454651 -2.384643 0
M  V30 12 C 4.372994 1.981715 -0.999308 0
M  V30 13 C 1.858258 0.780730 0.287124 0
M  V30 14 C 0.671716 0.676556 1.009762 0
M  V30 15 C 0.765472 0.595085 2.398641 0
M  V30 16 N -0.445515 0.466778 3.171345 0
M  V30 17 C -1.701373 0.395680 2.478754 0
M  V30 18 N -2.627134 1.362278 2.237644 0
M  V30 19 C -3.745786 1.055484 1.542449 0
M  V30 20 C -3.963312 -0.221810 1.073436 0
M  V30 21 C -3.004008 -1.179692 1.334556 0
M  V30 22 N -1.869988 -0.885123 2.035545 0
M  V30 23 N -2.993438 -2.575750 0.944883 0
M  V30 24 C -1.877948 -3.355473 1.446958 0
M  V30 25 C -3.926691 -3.275926 0.136181 0
M  V30 26 C -3.506426 -4.531680 -0.242909 0
M  V30 27 C -4.271672 -5.392334 -1.037731 0
M  V30 28 F -3.732478 -6.603289 -1.335690 0
M  V30 29 C -5.527442 -4.935650 -1.458941 0
M  V30 30 C -5.933898 -3.690407 -1.078256 0
M  V30 31 C -5.152855 -2.869274 -0.294822 0
M  V30 32 C -5.786362 -1.595742 -0.028252 0
M  V30 33 O -7.045545 -1.544805 -0.157009 0
M  V30 34 N -5.185704 -0.361416 0.366621 0
M  V30 35 C -5.867738 0.859664 0.022090 0
M  V30 36 H 4.120451 0.389110 4.653446 0
M  V30 37 H 3.078331 -0.330196 5.889472 0
M  V30 38 H 3.202422 1.434924 5.882494 0
M  V30 39 H 4.184664 0.749363 2.676334 0
M  V30 40 H 5.139141 -0.877901 0.564810 0
M  V30 41 H 6.123972 0.248146 -0.506637 0
M  V30 42 H 5.288152 -1.580696 -1.959608 0
M  V30 43 H 3.665596 -1.405594 -1.212094 0
M  V30 44 H 2.314051 -0.738800 -2.728709 0
M  V30 45 H 3.360688 -0.890262 -4.152431 0
M  V30 46 H 2.630863 0.748217 -3.735922 0
M  V30 47 H 3.966699 2.050512 -3.116439 0
M  V30 48 H 5.623856 1.578396 -2.674350 0
M  V30 49 H 5.346790 2.406034 -0.642487 0
M  V30 50 H 3.629699 2.775104 -0.936694 0
M  V30 51 H 1.643377 0.834065 -0.771847 0
M  V30 52 H -0.316020 0.653453 0.592315 0
M  V30 53 H -0.362331 0.432504 4.205865 0
M  V30 54 H -4.481325 1.815227 1.347536 0
M  V30 55 H -1.353098 -2.720946 2.219992 0
M  V30 56 H -1.112019 -3.540402 0.668950 0
M  V30 57 H -2.175839 -4.262478 2.000752 0
M  V30 58 H -2.541994 -4.863004 0.088111 0
M  V30 59 H -6.097003 -5.624153 -2.071668 0
M  V30 60 H -6.910949 -3.323969 -1.398925 0
M  V30 61 H -6.410665 1.330413 0.880979 0
M  V30 62 H -6.690203 0.583853 -0.704162 0
M  V30 63 H -5.236422 1.582653 -0.539545 0
M  V30 END ATOM
M  V30 BEGIN BOND
M  V30 1 1 1 2
M  V30 2 1 2 3
M  V30 3 2 3 4
M  V30 4 1 4 5
M  V30 5 1 5 6
M  V30 6 1 6 7
M  V30 7 1 7 8
M  V30 8 1 8 9
M  V30 9 1 9 10
M  V30 10 1 9 11
M  V30 11 1 11 12
M  V30 12 2 5 13
M  V30 13 1 13 14
M  V30 14 2 14 15
M  V30 15 1 15 16
M  V30 16 1 16 17
M  V30 17 2 17 18
M  V30 18 1 18 19
M  V30 19 2 19 20
M  V30 20 1 20 21
M  V30 21 2 21 22
M  V30 22 1 21 23
M  V30 23 1 23 24
M  V30 24 1 23 25
M  V30 25 2 25 26
M  V30 26 1 26 27
M  V30 27 1 27 28
M  V30 28 2 27 29
M  V30 29 1 29 30
M  V30 30 2 30 31
M  V30 31 1 31 32
M  V30 32 2 32 33
M  V30 33 1 32 34
M  V30 34 1 34 35
M  V30 35 1 15 3
M  V30 36 1 22 17
M  V30 37 1 31 25
M  V30 38 1 12 6
M  V30 39 1 34 20
M  V30 40 1 1 36
M  V30 41 1 1 37
M  V30 42 1 1 38
M  V30 43 1 4 39
M  V30 44 1 7 40
M  V30 45 1 7 41
M  V30 46 1 8 42
M  V30 47 1 8 43
M  V30 48 1 10 44
M  V30 49 1 10 45
M  V30 50 1 10 46
M  V30 51 1 11 47
M  V30 52 1 11 48
M  V30 53 1 12 49
M  V30 54 1 12 50
M  V30 55 1 13 51
M  V30 56 1 14 52
M  V30 57 1 16 53
M  V30 58 1 19 54
M  V30 59 1 24 55
M  V30 60 1 24 56
M  V30 61 1 24 57
M  V30 62 1 26 58
M  V30 63 1 29 59
M  V30 64 1 30 60
M  V30 65 1 35 61
M  V30 66 1 35 62
M  V30 67 1 35 63
M  V30 END BOND
M  V30 END CTAB
M  END
>  <Dataset>  (253) 
ChEMBL_Kinases

>  <Ligand_Instance>  (253) 
nan

>  <PDB_ID>  (253) 
nan

>  <Standardized_SMILES>  (253) 
COc1cc(N2CCN(C)CC2)ccc1Nc1ncc2c(n1)N(C)c1cc(F)ccc1C(=O)N2C

>  <Name>  (253) 
nan

>  <Pocket>  (253) 
nan

>  <ATP_Site>  (253) 
nan

>  <Peripheral>  (253) 
nan

>  <Num_H_Atoms_ProtBoundConf>  (253) 
nan

>  <Num_Resolved_Atoms>  (253) 
nan

>  <Num_Not_Resolved_Atoms>  (253) 
nan

$$$$
CHEMBL1677
     RDKit          3D

  0  0  0  0  0  0  0  0  0  0999 V3000
M  V30 BEGIN CTAB
M  V30 COUNTS 29 31 0 0 0
M  V30 BEGIN ATOM
M  V30 1 N 1.717691 1.166172 1.934101 0
M  V30 2 C 0.990036 0.302831 1.066731 0
M  V30 3 C -0.142541 -0.350322 1.517876 0
M  V30 4 C -0.874242 -1.195109 0.706482 0
M  V30 5 N -0.491059 -1.407811 -0.577331 0
M  V30 6 C 0.611579 -0.773692 -1.021149 0
M  V30 7 C 0.979602 -1.005507 -2.325889 0
M  V30 8 C 2.098738 -0.402226 -2.881445 0
M  V30 9 C 2.844954 0.449745 -2.078934 0
M  V30 10 C 2.501447 0.709867 -0.747018 0
M  V30 11 C 1.375272 0.079184 -0.249533 0
M  V30 12 C -2.064416 -1.847765 1.268491 0
M  V30 13 C -1.642283 -2.499031 2.575964 0
M  V30 14 C -0.950186 -1.548951 3.476640 0
M  V30 15 C -0.651601 -0.198482 2.882580 0
M  V30 16 H 1.552901 2.203205 1.773302 0
M  V30 17 H 2.372705 0.866633 2.683739 0
M  V30 18 H 0.392389 -1.677740 -2.962112 0
M  V30 19 H 2.368021 -0.599818 -3.909058 0
M  V30 20 H 3.714030 0.908674 -2.535227 0
M  V30 21 H 3.088657 1.371690 -0.138009 0
M  V30 22 H -2.755751 -1.007695 1.571998 0
M  V30 23 H -2.559584 -2.547167 0.605725 0
M  V30 24 H -1.027657 -3.384714 2.305741 0
M  V30 25 H -2.601803 -2.894657 3.020338 0
M  V30 26 H -1.542303 -1.412814 4.411738 0
M  V30 27 H 0.007235 -2.029221 3.833094 0
M  V30 28 H 0.050035 0.325706 3.555711 0
M  V30 29 H -1.638971 0.346618 2.884148 0
M  V30 END ATOM
M  V30 BEGIN BOND
M  V30 1 1 1 2
M  V30 2 2 2 3
M  V30 3 1 3 4
M  V30 4 2 4 5
M  V30 5 1 5 6
M  V30 6 2 6 7
M  V30 7 1 7 8
M  V30 8 2 8 9
M  V30 9 1 9 10
M  V30 10 2 10 11
M  V30 11 1 4 12
M  V30 12 1 12 13
M  V30 13 1 13 14
M  V30 14 1 14 15
M  V30 15 1 11 2
M  V30 16 1 15 3
M  V30 17 1 11 6
M  V30 18 1 1 16
M  V30 19 1 1 17
M  V30 20 1 7 18
M  V30 21 1 8 19
M  V30 22 1 9 20
M  V30 23 1 10 21
M  V30 24 1 12 22
M  V30 25 1 12 23
M  V30 26 1 13 24
M  V30 27 1 13 25
M  V30 28 1 14 26
M  V30 29 1 14 27
M  V30 30 1 15 28
M  V30 31 1 15 29
M  V30 END BOND
M  V30 END CTAB
M  END
>  <Dataset>  (254) 
ChEMBL_Kinases

>  <Ligand_Instance>  (254) 
nan

>  <PDB_ID>  (254) 
nan

>  <Standardized_SMILES>  (254) 
Nc1c2c(nc3ccccc13)CCCC2

>  <Name>  (254) 
TACRINE HYDROCHLORIDE

>  <Pocket>  (254) 
nan

>  <ATP_Site>  (254) 
nan

>  <Peripheral>  (254) 
nan

>  <Num_H_Atoms_ProtBoundConf>  (254) 
nan

>  <Num_Resolved_Atoms>  (254) 
nan

>  <Num_Not_Resolved_Atoms>  (254) 
nan

$$$$
CHEMBL1681965
     RDKit          3D

  0  0  0  0  0  0  0  0  0  0999 V3000
M  V30 BEGIN CTAB
M  V30 COUNTS 39 41 0 0 0
M  V30 BEGIN ATOM
M  V30 1 C 0.863771 -5.410198 1.019896 0
M  V30 2 C 0.447725 -5.657901 -0.398041 0
M  V30 3 C 1.142510 -4.656261 -1.327537 0
M  V30 4 N 0.758920 -3.314032 -0.933453 0
M  V30 5 C 1.380880 -2.516711 -0.039996 0
M  V30 6 C 0.587435 -1.393256 -0.076790 0
M  V30 7 C -0.464992 -1.509532 -0.953150 0
M  V30 8 N -0.322308 -2.721310 -1.466953 0
M  V30 9 C -1.493705 -0.487233 -1.220373 0
M  V30 10 C -1.397227 0.792351 -0.512712 0
M  V30 11 C -0.257314 0.879543 0.429697 0
M  V30 12 C 0.674160 -0.105134 0.649771 0
M  V30 13 S 1.789365 0.439403 1.804180 0
M  V30 14 C 0.969939 2.138704 2.041727 0
M  V30 15 N 1.596506 2.986550 2.970826 0
M  V30 16 C 1.222557 2.966404 4.352966 0
M  V30 17 N 1.914951 3.861126 5.211481 0
M  V30 18 O 0.310772 2.167703 4.735197 0
M  V30 19 C -0.096504 2.024053 1.147624 0
M  V30 20 C -0.844973 3.270833 1.206758 0
M  V30 21 N -1.990130 3.473613 0.415273 0
M  V30 22 O -0.547510 4.233863 1.937814 0
M  V30 23 H 0.256194 -4.623358 1.516488 0
M  V30 24 H 1.956016 -5.158715 0.997576 0
M  V30 25 H 0.773246 -6.321766 1.658373 0
M  V30 26 H 0.648642 -6.687013 -0.728864 0
M  V30 27 H -0.662485 -5.505473 -0.508259 0
M  V30 28 H 0.924394 -4.888724 -2.385712 0
M  V30 29 H 2.241963 -4.799037 -1.119301 0
M  V30 30 H 2.254441 -2.711377 0.537550 0
M  V30 31 H -2.528383 -0.931982 -1.154893 0
M  V30 32 H -1.400060 -0.289388 -2.342006 0
M  V30 33 H -1.296877 1.624858 -1.273304 0
M  V30 34 H -2.370451 0.963124 0.022000 0
M  V30 35 H 2.352485 3.637805 2.610195 0
M  V30 36 H 2.959740 4.016538 5.098401 0
M  V30 37 H 1.311441 4.331774 5.937533 0
M  V30 38 H -3.035924 3.287601 0.397536 0
M  V30 39 H -2.042245 3.951748 -0.511404 0
M  V30 END ATOM
M  V30 BEGIN BOND
M  V30 1 1 1 2
M  V30 2 1 2 3
M  V30 3 1 3 4
M  V30 4 1 4 5
M  V30 5 2 5 6
M  V30 6 1 6 7
M  V30 7 2 7 8
M  V30 8 1 7 9
M  V30 9 1 9 10
M  V30 10 1 10 11
M  V30 11 2 11 12
M  V30 12 1 12 13
M  V30 13 1 13 14
M  V30 14 1 14 15
M  V30 15 1 15 16
M  V30 16 1 16 17
M  V30 17 2 16 18
M  V30 18 2 14 19
M  V30 19 1 19 20
M  V30 20 1 20 21
M  V30 21 2 20 22
M  V30 22 1 8 4
M  V30 23 1 19 11
M  V30 24 1 12 6
M  V30 25 1 1 23
M  V30 26 1 1 24
M  V30 27 1 1 25
M  V30 28 1 2 26
M  V30 29 1 2 27
M  V30 30 1 3 28
M  V30 31 1 3 29
M  V30 32 1 5 30
M  V30 33 1 9 31
M  V30 34 1 9 32
M  V30 35 1 10 33
M  V30 36 1 10 34
M  V30 37 1 15 35
M  V30 38 1 17 36
M  V30 39 1 17 37
M  V30 40 1 21 38
M  V30 41 1 21 39
M  V30 END BOND
M  V30 END CTAB
M  END
>  <Dataset>  (255) 
ChEMBL_Kinases

>  <Ligand_Instance>  (255) 
nan

>  <PDB_ID>  (255) 
nan

>  <Standardized_SMILES>  (255) 
CCCn1cc2c(n1)CCc1c-2sc(NC(N)=O)c1C(N)=O

>  <Name>  (255) 
nan

>  <Pocket>  (255) 
nan

>  <ATP_Site>  (255) 
nan

>  <Peripheral>  (255) 
nan

>  <Num_H_Atoms_ProtBoundConf>  (255) 
nan

>  <Num_Resolved_Atoms>  (255) 
nan

>  <Num_Not_Resolved_Atoms>  (255) 
nan

$$$$
CHEMBL1681966
     RDKit          3D

  0  0  0  0  0  0  0  0  0  0999 V3000
M  V30 BEGIN CTAB
M  V30 COUNTS 39 41 0 0 0
M  V30 BEGIN ATOM
M  V30 1 C -0.596775 -5.676080 -0.737797 0
M  V30 2 C 0.655367 -4.815656 -0.906426 0
M  V30 3 C 1.721854 -5.384290 0.001585 0
M  V30 4 N 0.392206 -3.428106 -0.581090 0
M  V30 5 C 1.122933 -2.630277 0.237762 0
M  V30 6 C 0.425317 -1.446599 0.176125 0
M  V30 7 C -0.676082 -1.526127 -0.641908 0
M  V30 8 N -0.663253 -2.773787 -1.094858 0
M  V30 9 C -1.650412 -0.453621 -0.932056 0
M  V30 10 C -1.394035 0.867669 -0.318254 0
M  V30 11 C -0.206336 0.905069 0.571880 0
M  V30 12 C 0.656510 -0.145981 0.812242 0
M  V30 13 S 1.865024 0.390634 1.888167 0
M  V30 14 C 1.195985 2.143537 2.047723 0
M  V30 15 N 1.933561 2.999471 2.899464 0
M  V30 16 C 1.636468 3.099550 4.278643 0
M  V30 17 N 2.420719 3.975148 5.050709 0
M  V30 18 O 0.697318 2.427768 4.812740 0
M  V30 19 C 0.075895 2.082009 1.210789 0
M  V30 20 C -0.567063 3.385858 1.224124 0
M  V30 21 N -1.740762 3.631385 0.461443 0
M  V30 22 O -0.150182 4.358601 1.885825 0
M  V30 23 H -1.269276 -5.611735 -1.614992 0
M  V30 24 H -1.123697 -5.415294 0.208588 0
M  V30 25 H -0.219654 -6.719503 -0.597821 0
M  V30 26 H 0.951784 -4.944201 -1.963160 0
M  V30 27 H 1.610670 -6.483332 -0.046055 0
M  V30 28 H 2.726970 -5.147646 -0.368332 0
M  V30 29 H 1.602079 -5.069118 1.039075 0
M  V30 30 H 2.004654 -2.861494 0.783871 0
M  V30 31 H -2.691393 -0.773688 -0.621663 0
M  V30 32 H -1.771719 -0.319329 -2.045220 0
M  V30 33 H -1.203492 1.599258 -1.170026 0
M  V30 34 H -2.315758 1.197887 0.226859 0
M  V30 35 H 2.687806 3.520962 2.400710 0
M  V30 36 H 3.393601 4.154954 5.329109 0
M  V30 37 H 1.832246 4.721526 5.523247 0
M  V30 38 H -2.706205 3.787176 0.822484 0
M  V30 39 H -2.075907 3.736597 -0.507391 0
M  V30 END ATOM
M  V30 BEGIN BOND
M  V30 1 1 1 2
M  V30 2 1 2 3
M  V30 3 1 2 4
M  V30 4 1 4 5
M  V30 5 2 5 6
M  V30 6 1 6 7
M  V30 7 2 7 8
M  V30 8 1 7 9
M  V30 9 1 9 10
M  V30 10 1 10 11
M  V30 11 2 11 12
M  V30 12 1 12 13
M  V30 13 1 13 14
M  V30 14 1 14 15
M  V30 15 1 15 16
M  V30 16 1 16 17
M  V30 17 2 16 18
M  V30 18 2 14 19
M  V30 19 1 19 20
M  V30 20 1 20 21
M  V30 21 2 20 22
M  V30 22 1 8 4
M  V30 23 1 19 11
M  V30 24 1 12 6
M  V30 25 1 1 23
M  V30 26 1 1 24
M  V30 27 1 1 25
M  V30 28 1 2 26
M  V30 29 1 3 27
M  V30 30 1 3 28
M  V30 31 1 3 29
M  V30 32 1 5 30
M  V30 33 1 9 31
M  V30 34 1 9 32
M  V30 35 1 10 33
M  V30 36 1 10 34
M  V30 37 1 15 35
M  V30 38 1 17 36
M  V30 39 1 17 37
M  V30 40 1 21 38
M  V30 41 1 21 39
M  V30 END BOND
M  V30 END CTAB
M  END
>  <Dataset>  (256) 
ChEMBL_Kinases

>  <Ligand_Instance>  (256) 
nan

>  <PDB_ID>  (256) 
nan

>  <Standardized_SMILES>  (256) 
CC(C)n1cc2c(n1)CCc1c-2sc(NC(N)=O)c1C(N)=O

>  <Name>  (256) 
nan

>  <Pocket>  (256) 
nan

>  <ATP_Site>  (256) 
nan

>  <Peripheral>  (256) 
nan

>  <Num_H_Atoms_ProtBoundConf>  (256) 
nan

>  <Num_Resolved_Atoms>  (256) 
nan

>  <Num_Not_Resolved_Atoms>  (256) 
nan

$$$$
CHEMBL1681967
     RDKit          3D

  0  0  0  0  0  0  0  0  0  0999 V3000
M  V30 BEGIN CTAB
M  V30 COUNTS 43 46 0 0 0
M  V30 BEGIN ATOM
M  V30 1 N 6.939929 -3.720756 2.074899 0
M  V30 2 C 5.718477 -3.006678 1.997571 0
M  V30 3 O 5.095889 -2.943442 3.110432 0
M  V30 4 N 5.284379 -2.445556 0.792450 0
M  V30 5 C 4.064099 -1.737361 0.734810 0
M  V30 6 S 3.045009 -1.565107 2.296163 0
M  V30 7 C 1.795705 -0.674856 1.598924 0
M  V30 8 C 2.106319 -0.502433 0.260312 0
M  V30 9 C 3.259372 -1.042935 -0.178242 0
M  V30 10 C 3.848240 -1.031139 -1.509484 0
M  V30 11 N 3.243254 -0.399693 -2.616345 0
M  V30 12 O 4.934826 -1.577780 -1.780365 0
M  V30 13 C 1.217078 0.251658 -0.657308 0
M  V30 14 C -0.029583 0.753535 -0.083660 0
M  V30 15 C -0.273022 0.539560 1.343358 0
M  V30 16 C 0.546854 -0.137902 2.210328 0
M  V30 17 C 0.061769 -0.183105 3.473325 0
M  V30 18 N -1.087708 0.494979 3.341583 0
M  V30 19 N -1.297717 0.921930 2.110806 0
M  V30 20 C -2.510985 1.686123 1.771521 0
M  V30 21 C -3.623592 0.789122 1.358461 0
M  V30 22 C -4.447871 0.322345 2.391206 0
M  V30 23 C -5.528201 -0.514330 2.212087 0
M  V30 24 C -5.829111 -0.927344 0.935723 0
M  V30 25 F -6.876368 -1.751033 0.676240 0
M  V30 26 C -5.033556 -0.482577 -0.100392 0
M  V30 27 C -3.953851 0.355412 0.090667 0
M  V30 28 H 7.587773 -3.663529 2.894370 0
M  V30 29 H 7.465263 -4.395255 1.452162 0
M  V30 30 H 5.905297 -2.593277 0.007164 0
M  V30 31 H 3.303276 0.601412 -2.916207 0
M  V30 32 H 2.619825 -0.664148 -3.404503 0
M  V30 33 H 0.989372 -0.342017 -1.578036 0
M  V30 34 H 1.825103 1.122718 -1.069510 0
M  V30 35 H -0.047085 1.889168 -0.209399 0
M  V30 36 H -0.924129 0.452042 -0.702774 0
M  V30 37 H 0.498814 -0.647251 4.344496 0
M  V30 38 H -2.822521 2.270100 2.633380 0
M  V30 39 H -2.216489 2.365777 0.928425 0
M  V30 40 H -4.252310 0.620291 3.421955 0
M  V30 41 H -6.123348 -0.837166 3.054416 0
M  V30 42 H -5.203096 -0.761917 -1.137391 0
M  V30 43 H -3.300415 0.733034 -0.684827 0
M  V30 END ATOM
M  V30 BEGIN BOND
M  V30 1 1 1 2
M  V30 2 2 2 3
M  V30 3 1 2 4
M  V30 4 1 4 5
M  V30 5 1 5 6
M  V30 6 1 6 7
M  V30 7 2 7 8
M  V30 8 1 8 9
M  V30 9 1 9 10
M  V30 10 1 10 11
M  V30 11 2 10 12
M  V30 12 1 8 13
M  V30 13 1 13 14
M  V30 14 1 14 15
M  V30 15 2 15 16
M  V30 16 1 16 17
M  V30 17 2 17 18
M  V30 18 1 18 19
M  V30 19 1 19 20
M  V30 20 1 20 21
M  V30 21 2 21 22
M  V30 22 1 22 23
M  V30 23 2 23 24
M  V30 24 1 24 25
M  V30 25 1 24 26
M  V30 26 2 26 27
M  V30 27 2 9 5
M  V30 28 1 19 15
M  V30 29 1 27 21
M  V30 30 1 16 7
M  V30 31 1 1 28
M  V30 32 1 1 29
M  V30 33 1 4 30
M  V30 34 1 11 31
M  V30 35 1 11 32
M  V30 36 1 13 33
M  V30 37 1 13 34
M  V30 38 1 14 35
M  V30 39 1 14 36
M  V30 40 1 17 37
M  V30 41 1 20 38
M  V30 42 1 20 39
M  V30 43 1 22 40
M  V30 44 1 23 41
M  V30 45 1 26 42
M  V30 46 1 27 43
M  V30 END BOND
M  V30 END CTAB
M  END
>  <Dataset>  (257) 
ChEMBL_Kinases

>  <Ligand_Instance>  (257) 
nan

>  <PDB_ID>  (257) 
nan

>  <Standardized_SMILES>  (257) 
NC(=O)Nc1sc2c(c1C(N)=O)CCc1c-2cnn1Cc1ccc(F)cc1

>  <Name>  (257) 
nan

>  <Pocket>  (257) 
nan

>  <ATP_Site>  (257) 
nan

>  <Peripheral>  (257) 
nan

>  <Num_H_Atoms_ProtBoundConf>  (257) 
nan

>  <Num_Resolved_Atoms>  (257) 
nan

>  <Num_Not_Resolved_Atoms>  (257) 
nan

$$$$
CHEMBL1681968
     RDKit          3D

  0  0  0  0  0  0  0  0  0  0999 V3000
M  V30 BEGIN CTAB
M  V30 COUNTS 43 46 0 0 0
M  V30 BEGIN ATOM
M  V30 1 N 6.690113 -3.173816 -0.821451 0
M  V30 2 C 5.372024 -2.593223 -0.862567 0
M  V30 3 O 4.410731 -2.986863 -1.584603 0
M  V30 4 N 5.272886 -1.501331 0.022175 0
M  V30 5 C 4.024010 -0.777198 0.130611 0
M  V30 6 S 2.792482 -1.363110 1.397460 0
M  V30 7 C 1.621867 -0.160993 1.032346 0
M  V30 8 C 2.131471 0.588747 0.055344 0
M  V30 9 C 3.371441 0.331388 -0.464205 0
M  V30 10 C 4.172713 0.955363 -1.505012 0
M  V30 11 N 3.674320 2.065861 -2.194669 0
M  V30 12 O 5.305360 0.504982 -1.787501 0
M  V30 13 C 1.353719 1.728444 -0.493677 0
M  V30 14 C 0.044682 1.972352 0.095954 0
M  V30 15 C -0.444635 1.105491 1.161303 0
M  V30 16 N -1.559936 1.071628 1.867365 0
M  V30 17 N -1.516955 0.053837 2.745655 0
M  V30 18 C -2.614135 -0.220167 3.654109 0
M  V30 19 C -3.600150 -1.170016 3.036541 0
M  V30 20 C -4.648441 -0.618059 2.303816 0
M  V30 21 C -5.576416 -1.440698 1.719124 0
M  V30 22 C -5.473541 -2.802312 1.854779 0
M  V30 23 F -6.356112 -3.687304 1.303691 0
M  V30 24 C -4.442279 -3.385129 2.577544 0
M  V30 25 C -3.529104 -2.541473 3.151248 0
M  V30 26 C -0.348779 -0.602730 2.620990 0
M  V30 27 C 0.312063 0.057176 1.634065 0
M  V30 28 H 7.642351 -3.071019 -1.225860 0
M  V30 29 H 6.516859 -3.937536 -0.128570 0
M  V30 30 H 5.989541 -1.113429 0.640460 0
M  V30 31 H 3.187237 2.238957 -3.104480 0
M  V30 32 H 3.195600 2.276565 -3.078368 0
M  V30 33 H 1.961868 2.688790 -0.425444 0
M  V30 34 H 1.251840 1.602665 -1.609957 0
M  V30 35 H -0.049769 3.069225 0.381267 0
M  V30 36 H -0.742982 1.899718 -0.727996 0
M  V30 37 H -3.079333 0.722187 3.942966 0
M  V30 38 H -2.199872 -0.740921 4.560883 0
M  V30 39 H -4.727769 0.455435 2.198065 0
M  V30 40 H -6.404870 -1.044840 1.142030 0
M  V30 41 H -4.274452 -4.440743 2.742007 0
M  V30 42 H -2.700431 -2.919450 3.727621 0
M  V30 43 H -0.030247 -1.475832 3.203731 0
M  V30 END ATOM
M  V30 BEGIN BOND
M  V30 1 1 1 2
M  V30 2 2 2 3
M  V30 3 1 2 4
M  V30 4 1 4 5
M  V30 5 1 5 6
M  V30 6 1 6 7
M  V30 7 2 7 8
M  V30 8 1 8 9
M  V30 9 1 9 10
M  V30 10 1 10 11
M  V30 11 2 10 12
M  V30 12 1 8 13
M  V30 13 1 13 14
M  V30 14 1 14 15
M  V30 15 2 15 16
M  V30 16 1 16 17
M  V30 17 1 17 18
M  V30 18 1 18 19
M  V30 19 2 19 20
M  V30 20 1 20 21
M  V30 21 2 21 22
M  V30 22 1 22 23
M  V30 23 1 22 24
M  V30 24 2 24 25
M  V30 25 1 17 26
M  V30 26 2 26 27
M  V30 27 2 9 5
M  V30 28 1 27 15
M  V30 29 1 27 7
M  V30 30 1 25 19
M  V30 31 1 1 28
M  V30 32 1 1 29
M  V30 33 1 4 30
M  V30 34 1 11 31
M  V30 35 1 11 32
M  V30 36 1 13 33
M  V30 37 1 13 34
M  V30 38 1 14 35
M  V30 39 1 14 36
M  V30 40 1 18 37
M  V30 41 1 18 38
M  V30 42 1 20 39
M  V30 43 1 21 40
M  V30 44 1 24 41
M  V30 45 1 25 42
M  V30 46 1 26 43
M  V30 END BOND
M  V30 END CTAB
M  END
>  <Dataset>  (258) 
ChEMBL_Kinases

>  <Ligand_Instance>  (258) 
nan

>  <PDB_ID>  (258) 
nan

>  <Standardized_SMILES>  (258) 
NC(=O)Nc1sc2c(c1C(N)=O)CCc1nn(Cc3ccc(F)cc3)cc1-2

>  <Name>  (258) 
nan

>  <Pocket>  (258) 
nan

>  <ATP_Site>  (258) 
nan

>  <Peripheral>  (258) 
nan

>  <Num_H_Atoms_ProtBoundConf>  (258) 
nan

>  <Num_Resolved_Atoms>  (258) 
nan

>  <Num_Not_Resolved_Atoms>  (258) 
nan

$$$$
CHEMBL1681969
     RDKit          3D

  0  0  0  0  0  0  0  0  0  0999 V3000
M  V30 BEGIN CTAB
M  V30 COUNTS 39 41 0 0 0
M  V30 BEGIN ATOM
M  V30 1 C -0.925073 -5.923106 -1.691042 0
M  V30 2 C -0.087403 -4.673115 -1.516241 0
M  V30 3 C 0.157062 -4.505568 -0.035932 0
M  V30 4 N 0.957193 -3.328046 0.260071 0
M  V30 5 N 2.275704 -3.363726 0.316988 0
M  V30 6 C 2.764594 -2.165210 0.600795 0
M  V30 7 C 1.665656 -1.368396 0.719361 0
M  V30 8 C 0.501254 -2.068320 0.511019 0
M  V30 9 C -0.904704 -1.632573 0.551345 0
M  V30 10 C -1.061815 -0.177749 0.772129 0
M  V30 11 C 0.184644 0.575962 1.038079 0
M  V30 12 C 1.501801 0.060172 1.006426 0
M  V30 13 S 2.582676 1.306098 1.347805 0
M  V30 14 C 1.283709 2.639615 1.561883 0
M  V30 15 N 1.718979 3.945723 1.877142 0
M  V30 16 C 1.834316 4.243466 3.278106 0
M  V30 17 N 2.279825 5.581569 3.580141 0
M  V30 18 O 1.490908 3.180649 3.899632 0
M  V30 19 C 0.087821 1.907565 1.326324 0
M  V30 20 C -1.032587 2.816570 1.460753 0
M  V30 21 N -2.361776 2.421735 1.296799 0
M  V30 22 O -0.939749 4.027626 1.732165 0
M  V30 23 H -1.735987 -5.749158 -2.442432 0
M  V30 24 H -1.379635 -6.243637 -0.719785 0
M  V30 25 H -0.283589 -6.778622 -1.996134 0
M  V30 26 H 0.860337 -4.841218 -2.067025 0
M  V30 27 H -0.565493 -3.785152 -1.973438 0
M  V30 28 H 0.691715 -5.404929 0.318568 0
M  V30 29 H -0.782911 -4.470370 0.542334 0
M  V30 30 H 3.783161 -1.773708 0.735678 0
M  V30 31 H -1.446723 -2.205678 1.381988 0
M  V30 32 H -1.443443 -1.899336 -0.398496 0
M  V30 33 H -1.786022 -0.033323 1.636424 0
M  V30 34 H -1.555790 0.276803 -0.148325 0
M  V30 35 H 1.919833 4.583848 1.058751 0
M  V30 36 H 3.180881 5.824480 3.097792 0
M  V30 37 H 1.442180 5.743552 4.200650 0
M  V30 38 H -3.204931 2.791155 1.786306 0
M  V30 39 H -3.079655 1.823547 0.839509 0
M  V30 END ATOM
M  V30 BEGIN BOND
M  V30 1 1 1 2
M  V30 2 1 2 3
M  V30 3 1 3 4
M  V30 4 1 4 5
M  V30 5 2 5 6
M  V30 6 1 6 7
M  V30 7 2 7 8
M  V30 8 1 8 9
M  V30 9 1 9 10
M  V30 10 1 10 11
M  V30 11 2 11 12
M  V30 12 1 12 13
M  V30 13 1 13 14
M  V30 14 1 14 15
M  V30 15 1 15 16
M  V30 16 1 16 17
M  V30 17 2 16 18
M  V30 18 2 14 19
M  V30 19 1 19 20
M  V30 20 1 20 21
M  V30 21 2 20 22
M  V30 22 1 8 4
M  V30 23 1 19 11
M  V30 24 1 12 7
M  V30 25 1 1 23
M  V30 26 1 1 24
M  V30 27 1 1 25
M  V30 28 1 2 26
M  V30 29 1 2 27
M  V30 30 1 3 28
M  V30 31 1 3 29
M  V30 32 1 6 30
M  V30 33 1 9 31
M  V30 34 1 9 32
M  V30 35 1 10 33
M  V30 36 1 10 34
M  V30 37 1 15 35
M  V30 38 1 17 36
M  V30 39 1 17 37
M  V30 40 1 21 38
M  V30 41 1 21 39
M  V30 END BOND
M  V30 END CTAB
M  END
>  <Dataset>  (259) 
ChEMBL_Kinases

>  <Ligand_Instance>  (259) 
nan

>  <PDB_ID>  (259) 
nan

>  <Standardized_SMILES>  (259) 
CCCn1ncc2c1CCc1c-2sc(NC(N)=O)c1C(N)=O

>  <Name>  (259) 
nan

>  <Pocket>  (259) 
nan

>  <ATP_Site>  (259) 
nan

>  <Peripheral>  (259) 
nan

>  <Num_H_Atoms_ProtBoundConf>  (259) 
nan

>  <Num_Resolved_Atoms>  (259) 
nan

>  <Num_Not_Resolved_Atoms>  (259) 
nan

$$$$
CHEMBL1681970
     RDKit          3D

  0  0  0  0  0  0  0  0  0  0999 V3000
M  V30 BEGIN CTAB
M  V30 COUNTS 42 44 0 0 0
M  V30 BEGIN ATOM
M  V30 1 C 0.190651 -5.994208 -1.516180 0
M  V30 2 C 0.524823 -4.589241 -1.969296 0
M  V30 3 C -0.647989 -3.909481 -2.620376 0
M  V30 4 C -0.179529 -2.506389 -3.028663 0
M  V30 5 N 0.252625 -1.750058 -1.885258 0
M  V30 6 C -0.498675 -0.938368 -1.089862 0
M  V30 7 C 0.397837 -0.482498 -0.174838 0
M  V30 8 C 1.656897 -0.993461 -0.396292 0
M  V30 9 N 1.526885 -1.767751 -1.455794 0
M  V30 10 C 2.794173 -0.652316 0.455152 0
M  V30 11 C 2.612245 0.259043 1.581654 0
M  V30 12 C 1.238927 0.798724 1.798881 0
M  V30 13 C 0.276083 0.429034 0.973881 0
M  V30 14 S -1.109581 1.269905 1.578104 0
M  V30 15 C -0.291252 2.067009 2.909248 0
M  V30 16 N -1.066600 2.953522 3.790047 0
M  V30 17 C -2.435675 3.151033 3.560459 0
M  V30 18 N -3.236275 3.993613 4.374912 0
M  V30 19 O -3.104492 2.609362 2.615577 0
M  V30 20 C 0.949709 1.644918 2.800027 0
M  V30 21 C 1.869868 2.188057 3.835655 0
M  V30 22 N 3.259813 1.923706 3.984265 0
M  V30 23 O 1.520744 2.968241 4.729816 0
M  V30 24 H 1.069404 -6.368011 -0.943416 0
M  V30 25 H -0.676867 -5.954801 -0.802604 0
M  V30 26 H 0.045002 -6.693279 -2.342221 0
M  V30 27 H 1.336905 -4.653844 -2.715757 0
M  V30 28 H 0.784612 -4.019247 -1.065673 0
M  V30 29 H -1.051976 -4.431916 -3.498341 0
M  V30 30 H -1.482958 -3.841944 -1.895901 0
M  V30 31 H -1.029750 -2.053501 -3.582058 0
M  V30 32 H 0.655082 -2.629286 -3.746330 0
M  V30 33 H -1.541983 -0.721708 -1.176852 0
M  V30 34 H 3.123708 -1.651598 0.906464 0
M  V30 35 H 3.678690 -0.314476 -0.163784 0
M  V30 36 H 3.306701 1.151785 1.429163 0
M  V30 37 H 3.009567 -0.152647 2.562929 0
M  V30 38 H -0.712299 3.483645 4.607938 0
M  V30 39 H -3.049223 4.975711 4.718975 0
M  V30 40 H -4.176649 3.782044 4.787058 0
M  V30 41 H 4.152619 2.434559 3.775791 0
M  V30 42 H 3.923093 1.193573 4.325212 0
M  V30 END ATOM
M  V30 BEGIN BOND
M  V30 1 1 1 2
M  V30 2 1 2 3
M  V30 3 1 3 4
M  V30 4 1 4 5
M  V30 5 1 5 6
M  V30 6 2 6 7
M  V30 7 1 7 8
M  V30 8 2 8 9
M  V30 9 1 8 10
M  V30 10 1 10 11
M  V30 11 1 11 12
M  V30 12 2 12 13
M  V30 13 1 13 14
M  V30 14 1 14 15
M  V30 15 1 15 16
M  V30 16 1 16 17
M  V30 17 1 17 18
M  V30 18 2 17 19
M  V30 19 2 15 20
M  V30 20 1 20 21
M  V30 21 1 21 22
M  V30 22 2 21 23
M  V30 23 1 9 5
M  V30 24 1 20 12
M  V30 25 1 13 7
M  V30 26 1 1 24
M  V30 27 1 1 25
M  V30 28 1 1 26
M  V30 29 1 2 27
M  V30 30 1 2 28
M  V30 31 1 3 29
M  V30 32 1 3 30
M  V30 33 1 4 31
M  V30 34 1 4 32
M  V30 35 1 6 33
M  V30 36 1 10 34
M  V30 37 1 10 35
M  V30 38 1 11 36
M  V30 39 1 11 37
M  V30 40 1 16 38
M  V30 41 1 18 39
M  V30 42 1 18 40
M  V30 43 1 22 41
M  V30 44 1 22 42
M  V30 END BOND
M  V30 END CTAB
M  END
>  <Dataset>  (260) 
ChEMBL_Kinases

>  <Ligand_Instance>  (260) 
nan

>  <PDB_ID>  (260) 
nan

>  <Standardized_SMILES>  (260) 
CCCCn1cc2c(n1)CCc1c-2sc(NC(N)=O)c1C(N)=O

>  <Name>  (260) 
nan

>  <Pocket>  (260) 
nan

>  <ATP_Site>  (260) 
nan

>  <Peripheral>  (260) 
nan

>  <Num_H_Atoms_ProtBoundConf>  (260) 
nan

>  <Num_Resolved_Atoms>  (260) 
nan

>  <Num_Not_Resolved_Atoms>  (260) 
nan

$$$$
CHEMBL1673050
     RDKit          3D

  0  0  0  0  0  0  0  0  0  0999 V3000
M  V30 BEGIN CTAB
M  V30 COUNTS 64 67 0 0 0
M  V30 BEGIN ATOM
M  V30 1 C 3.075602 -2.632210 5.387768 0
M  V30 2 O 1.936671 -2.224608 4.688729 0
M  V30 3 C 1.880467 -1.407043 3.595445 0
M  V30 4 C 3.008918 -0.841676 3.000095 0
M  V30 5 C 2.917654 -0.021529 1.899838 0
M  V30 6 C 4.148051 0.510555 1.328580 0
M  V30 7 O 5.229850 0.155820 1.879548 0
M  V30 8 N 4.238529 1.389537 0.209972 0
M  V30 9 C 5.479833 1.853416 -0.288311 0
M  V30 10 C 5.318406 2.748168 -1.461913 0
M  V30 11 N 4.709120 2.251299 -2.622915 0
M  V30 12 C 3.332377 1.942043 -2.635164 0
M  V30 13 C 5.533673 1.618393 -3.595314 0
M  V30 14 C 1.682523 0.259625 1.359039 0
M  V30 15 C 0.586015 -0.311447 1.965902 0
M  V30 16 C 0.603939 -1.147602 3.075888 0
M  V30 17 N -0.601776 -1.690240 3.598424 0
M  V30 18 C -1.828829 -1.321875 2.973334 0
M  V30 19 N -2.688326 -0.359839 3.401834 0
M  V30 20 C -3.826580 -0.096231 2.701381 0
M  V30 21 C -4.146285 -0.787511 1.543645 0
M  V30 22 C -3.258831 -1.751659 1.136789 0
M  V30 23 N -2.138377 -1.995125 1.847339 0
M  V30 24 N -3.278951 -2.633143 -0.007651 0
M  V30 25 C -2.144730 -3.492396 -0.145417 0
M  V30 26 C -4.278575 -2.755992 -1.019865 0
M  V30 27 C -3.992459 -3.718885 -1.949576 0
M  V30 28 C -4.837919 -3.994945 -3.018262 0
M  V30 29 C -5.996633 -3.242654 -3.100827 0
M  V30 30 C -6.310868 -2.263481 -2.175305 0
M  V30 31 C -5.446518 -2.000480 -1.106334 0
M  V30 32 C -5.949511 -0.940332 -0.245995 0
M  V30 33 O -7.051753 -0.420559 -0.572455 0
M  V30 34 N -5.373144 -0.383782 0.940658 0
M  V30 35 C -6.076770 0.691141 1.616011 0
M  V30 36 H 3.322464 -1.927617 6.216337 0
M  V30 37 H 3.945345 -2.721667 4.716226 0
M  V30 38 H 2.955125 -3.634843 5.852089 0
M  V30 39 H 3.957142 -1.096659 3.468178 0
M  V30 40 H 3.280007 1.607916 -0.130724 0
M  V30 41 H 6.238381 1.057013 -0.445584 0
M  V30 42 H 5.934960 2.489416 0.530513 0
M  V30 43 H 6.309615 3.211120 -1.731865 0
M  V30 44 H 4.677732 3.614353 -1.101319 0
M  V30 45 H 2.974211 2.050430 -3.714859 0
M  V30 46 H 3.037817 0.924810 -2.365890 0
M  V30 47 H 2.776789 2.754844 -2.118940 0
M  V30 48 H 6.400175 1.070790 -3.197496 0
M  V30 49 H 4.910460 0.857933 -4.120832 0
M  V30 50 H 5.812592 2.349107 -4.384352 0
M  V30 51 H 1.535566 0.889444 0.504223 0
M  V30 52 H -0.401201 -0.088255 1.535309 0
M  V30 53 H -0.487992 -2.332298 4.421167 0
M  V30 54 H -4.489743 0.657370 3.046112 0
M  V30 55 H -2.329385 -4.563897 -0.027346 0
M  V30 56 H -1.397724 -3.255751 0.665738 0
M  V30 57 H -1.545750 -3.259796 -1.075013 0
M  V30 58 H -3.103989 -4.292296 -1.884206 0
M  V30 59 H -4.657280 -4.743987 -3.776985 0
M  V30 60 H -6.689422 -3.432267 -3.932891 0
M  V30 61 H -7.210881 -1.671382 -2.229368 0
M  V30 62 H -7.011615 0.869843 1.005357 0
M  V30 63 H -5.525613 1.644506 1.598771 0
M  V30 64 H -6.462114 0.401685 2.606448 0
M  V30 END ATOM
M  V30 BEGIN BOND
M  V30 1 1 1 2
M  V30 2 1 2 3
M  V30 3 2 3 4
M  V30 4 1 4 5
M  V30 5 1 5 6
M  V30 6 2 6 7
M  V30 7 1 6 8
M  V30 8 1 8 9
M  V30 9 1 9 10
M  V30 10 1 10 11
M  V30 11 1 11 12
M  V30 12 1 11 13
M  V30 13 2 5 14
M  V30 14 1 14 15
M  V30 15 2 15 16
M  V30 16 1 16 17
M  V30 17 1 17 18
M  V30 18 2 18 19
M  V30 19 1 19 20
M  V30 20 2 20 21
M  V30 21 1 21 22
M  V30 22 2 22 23
M  V30 23 1 22 24
M  V30 24 1 24 25
M  V30 25 1 24 26
M  V30 26 2 26 27
M  V30 27 1 27 28
M  V30 28 2 28 29
M  V30 29 1 29 30
M  V30 30 2 30 31
M  V30 31 1 31 32
M  V30 32 2 32 33
M  V30 33 1 32 34
M  V30 34 1 34 35
M  V30 35 1 16 3
M  V30 36 1 23 18
M  V30 37 1 31 26
M  V30 38 1 34 21
M  V30 39 1 1 36
M  V30 40 1 1 37
M  V30 41 1 1 38
M  V30 42 1 4 39
M  V30 43 1 8 40
M  V30 44 1 9 41
M  V30 45 1 9 42
M  V30 46 1 10 43
M  V30 47 1 10 44
M  V30 48 1 12 45
M  V30 49 1 12 46
M  V30 50 1 12 47
M  V30 51 1 13 48
M  V30 52 1 13 49
M  V30 53 1 13 50
M  V30 54 1 14 51
M  V30 55 1 15 52
M  V30 56 1 17 53
M  V30 57 1 20 54
M  V30 58 1 25 55
M  V30 59 1 25 56
M  V30 60 1 25 57
M  V30 61 1 27 58
M  V30 62 1 28 59
M  V30 63 1 29 60
M  V30 64 1 30 61
M  V30 65 1 35 62
M  V30 66 1 35 63
M  V30 67 1 35 64
M  V30 END BOND
M  V30 END CTAB
M  END
>  <Dataset>  (261) 
ChEMBL_Kinases

>  <Ligand_Instance>  (261) 
nan

>  <PDB_ID>  (261) 
nan

>  <Standardized_SMILES>  (261) 
COc1cc(C(=O)NCCN(C)C)ccc1Nc1ncc2c(n1)N(C)c1ccccc1C(=O)N2C

>  <Name>  (261) 
nan

>  <Pocket>  (261) 
nan

>  <ATP_Site>  (261) 
nan

>  <Peripheral>  (261) 
nan

>  <Num_H_Atoms_ProtBoundConf>  (261) 
nan

>  <Num_Resolved_Atoms>  (261) 
nan

>  <Num_Not_Resolved_Atoms>  (261) 
nan

$$$$
CHEMBL1683314
     RDKit          3D

  0  0  0  0  0  0  0  0  0  0999 V3000
M  V30 BEGIN CTAB
M  V30 COUNTS 59 62 0 0 0
M  V30 BEGIN ATOM
M  V30 1 C 5.951441 0.494314 7.405618 0
M  V30 2 C 6.511461 0.081752 6.080353 0
M  V30 3 C 6.974352 -1.372824 6.195311 0
M  V30 4 N 5.544604 0.092007 5.006852 0
M  V30 5 C 5.735196 0.935688 3.879009 0
M  V30 6 O 6.721126 1.703019 3.746268 0
M  V30 7 C 4.764260 0.956625 2.778322 0
M  V30 8 C 5.021250 1.772210 1.690916 0
M  V30 9 C 4.181321 1.884036 0.575383 0
M  V30 10 C 3.035838 1.118304 0.598142 0
M  V30 11 C 2.743761 0.288893 1.670800 0
M  V30 12 C 1.524070 -0.512029 1.665481 0
M  V30 13 C 0.591491 -0.533080 0.643243 0
M  V30 14 C -0.458891 -1.386765 0.911100 0
M  V30 15 C -1.593754 -1.621910 0.025570 0
M  V30 16 C -1.663187 -0.973249 -1.212852 0
M  V30 17 C -2.731528 -1.189997 -2.057449 0
M  V30 18 C -3.722027 -2.058827 -1.648416 0
M  V30 19 N -4.791392 -2.223360 -2.592596 0
M  V30 20 C -6.216720 -1.914724 -2.480990 0
M  V30 21 C -6.642883 -1.031410 -3.622850 0
M  V30 22 N -6.140365 -1.398318 -4.898838 0
M  V30 23 C -6.212918 -0.236736 -5.773601 0
M  V30 24 C -4.774142 -1.834917 -4.942744 0
M  V30 25 C -4.398299 -2.800641 -3.873032 0
M  V30 26 C -3.673991 -2.708383 -0.432187 0
M  V30 27 Br -5.118386 -3.889004 0.013492 0
M  V30 28 C -2.598818 -2.502583 0.439822 0
M  V30 29 N -0.135451 -1.878470 2.119510 0
M  V30 30 N 0.998697 -1.380150 2.554182 0
M  V30 31 C 3.601568 0.211917 2.747450 0
M  V30 32 H 4.891612 0.247375 7.546437 0
M  V30 33 H 6.533673 -0.062874 8.184889 0
M  V30 34 H 6.152027 1.576690 7.651173 0
M  V30 35 H 7.306404 0.773775 5.810632 0
M  V30 36 H 7.110341 -1.833809 5.195157 0
M  V30 37 H 7.929429 -1.354821 6.736449 0
M  V30 38 H 6.239921 -1.973097 6.747575 0
M  V30 39 H 4.718336 -0.538063 5.099087 0
M  V30 40 H 5.915643 2.407246 1.612582 0
M  V30 41 H 4.404680 2.524215 -0.252994 0
M  V30 42 H 2.378829 1.206570 -0.275852 0
M  V30 43 H 0.686034 0.065530 -0.273845 0
M  V30 44 H -0.890246 -0.298280 -1.527396 0
M  V30 45 H -2.756197 -0.672531 -3.007048 0
M  V30 46 H -6.470756 -1.406612 -1.539590 0
M  V30 47 H -6.782582 -2.863761 -2.552097 0
M  V30 48 H -6.435126 0.057123 -3.443560 0
M  V30 49 H -7.767847 -1.098659 -3.670848 0
M  V30 50 H -5.781955 0.618643 -5.182683 0
M  V30 51 H -5.542813 -0.342446 -6.654383 0
M  V30 52 H -7.242369 0.057999 -6.030342 0
M  V30 53 H -4.055009 -0.997692 -5.056267 0
M  V30 54 H -4.680237 -2.403212 -5.916835 0
M  V30 55 H -4.951690 -3.755321 -4.037010 0
M  V30 56 H -3.320951 -3.016336 -3.948999 0
M  V30 57 H -2.578683 -3.019763 1.388045 0
M  V30 58 H -0.748559 -2.582598 2.626335 0
M  V30 59 H 3.379274 -0.421616 3.569665 0
M  V30 END ATOM
M  V30 BEGIN BOND
M  V30 1 1 1 2
M  V30 2 1 2 3
M  V30 3 1 2 4
M  V30 4 1 4 5
M  V30 5 2 5 6
M  V30 6 1 5 7
M  V30 7 2 7 8
M  V30 8 1 8 9
M  V30 9 2 9 10
M  V30 10 1 10 11
M  V30 11 1 11 12
M  V30 12 1 12 13
M  V30 13 2 13 14
M  V30 14 1 14 15
M  V30 15 2 15 16
M  V30 16 1 16 17
M  V30 17 2 17 18
M  V30 18 1 18 19
M  V30 19 1 19 20
M  V30 20 1 20 21
M  V30 21 1 21 22
M  V30 22 1 22 23
M  V30 23 1 22 24
M  V30 24 1 24 25
M  V30 25 1 18 26
M  V30 26 1 26 27
M  V30 27 2 26 28
M  V30 28 1 14 29
M  V30 29 1 29 30
M  V30 30 2 11 31
M  V30 31 1 31 7
M  V30 32 2 30 12
M  V30 33 1 28 15
M  V30 34 1 25 19
M  V30 35 1 1 32
M  V30 36 1 1 33
M  V30 37 1 1 34
M  V30 38 1 2 35
M  V30 39 1 3 36
M  V30 40 1 3 37
M  V30 41 1 3 38
M  V30 42 1 4 39
M  V30 43 1 8 40
M  V30 44 1 9 41
M  V30 45 1 10 42
M  V30 46 1 13 43
M  V30 47 1 16 44
M  V30 48 1 17 45
M  V30 49 1 20 46
M  V30 50 1 20 47
M  V30 51 1 21 48
M  V30 52 1 21 49
M  V30 53 1 23 50
M  V30 54 1 23 51
M  V30 55 1 23 52
M  V30 56 1 24 53
M  V30 57 1 24 54
M  V30 58 1 25 55
M  V30 59 1 25 56
M  V30 60 1 28 57
M  V30 61 1 29 58
M  V30 62 1 31 59
M  V30 END BOND
M  V30 END CTAB
M  END
>  <Dataset>  (262) 
ChEMBL_Kinases

>  <Ligand_Instance>  (262) 
nan

>  <PDB_ID>  (262) 
nan

>  <Standardized_SMILES>  (262) 
CC(C)NC(=O)c1cccc(-c2cc(-c3ccc(N4CCN(C)CC4)c(Br)c3)[nH]n2)c1

>  <Name>  (262) 
nan

>  <Pocket>  (262) 
nan

>  <ATP_Site>  (262) 
nan

>  <Peripheral>  (262) 
nan

>  <Num_H_Atoms_ProtBoundConf>  (262) 
nan

>  <Num_Resolved_Atoms>  (262) 
nan

>  <Num_Not_Resolved_Atoms>  (262) 
nan

$$$$
CHEMBL1683313
     RDKit          3D

  0  0  0  0  0  0  0  0  0  0999 V3000
M  V30 BEGIN CTAB
M  V30 COUNTS 59 62 0 0 0
M  V30 BEGIN ATOM
M  V30 1 C 3.079125 -0.979869 6.858853 0
M  V30 2 C 4.047113 -1.656601 5.928989 0
M  V30 3 C 3.603142 -3.104978 5.772143 0
M  V30 4 N 4.042577 -1.083149 4.618758 0
M  V30 5 C 5.185722 -0.506034 3.997617 0
M  V30 6 O 6.248915 -0.500517 4.631006 0
M  V30 7 C 5.137416 0.069222 2.656841 0
M  V30 8 C 6.314590 0.601121 2.157516 0
M  V30 9 C 6.414028 1.178369 0.902066 0
M  V30 10 C 5.257461 1.214760 0.118570 0
M  V30 11 C 4.093766 0.680289 0.631894 0
M  V30 12 C 2.893832 0.730947 -0.209824 0
M  V30 13 C 1.624268 0.271634 0.068664 0
M  V30 14 C 0.908993 0.581279 -1.069297 0
M  V30 15 C -0.508298 0.297510 -1.279785 0
M  V30 16 C -1.133608 0.648661 -2.457198 0
M  V30 17 C -2.466837 0.399229 -2.695353 0
M  V30 18 C -3.253018 -0.222842 -1.754457 0
M  V30 19 N -4.629946 -0.509103 -1.938931 0
M  V30 20 C -5.560929 -1.127811 -1.026555 0
M  V30 21 C -5.994017 -2.495561 -1.486118 0
M  V30 22 N -6.048304 -2.619774 -2.914545 0
M  V30 23 C -5.048264 -3.514575 -3.445630 0
M  V30 24 C -6.213972 -1.397289 -3.618652 0
M  V30 25 C -5.400749 -0.234009 -3.110037 0
M  V30 26 C -2.630505 -0.574182 -0.578301 0
M  V30 27 C -1.294074 -0.327206 -0.332602 0
M  V30 28 N 1.678027 1.189450 -1.989647 0
M  V30 29 N 2.895840 1.280471 -1.460482 0
M  V30 30 C 4.008611 0.107740 1.885266 0
M  V30 31 H 2.224314 -0.502077 6.351240 0
M  V30 32 H 2.662866 -1.750175 7.542876 0
M  V30 33 H 3.589744 -0.238907 7.529251 0
M  V30 34 H 5.042276 -1.607226 6.424358 0
M  V30 35 H 3.846348 -3.639207 6.701106 0
M  V30 36 H 2.498808 -3.141164 5.638329 0
M  V30 37 H 4.066681 -3.564026 4.865373 0
M  V30 38 H 3.124281 -1.110972 4.124291 0
M  V30 39 H 7.244497 0.595961 2.732755 0
M  V30 40 H 7.356949 1.584279 0.548122 0
M  V30 41 H 5.334585 1.665455 -0.861902 0
M  V30 42 H 1.306890 -0.213377 0.981811 0
M  V30 43 H -0.539263 1.139631 -3.215440 0
M  V30 44 H -2.861724 0.704536 -3.628757 0
M  V30 45 H -6.460653 -0.477189 -0.819458 0
M  V30 46 H -5.073966 -1.254986 -0.040872 0
M  V30 47 H -6.966042 -2.723853 -1.003675 0
M  V30 48 H -5.263010 -3.238932 -1.105944 0
M  V30 49 H -5.330318 -4.582935 -3.333200 0
M  V30 50 H -4.142050 -3.368046 -2.796171 0
M  V30 51 H -4.810599 -3.323602 -4.495743 0
M  V30 52 H -7.292976 -1.166154 -3.730153 0
M  V30 53 H -5.868771 -1.587582 -4.672729 0
M  V30 54 H -6.160416 0.558177 -2.833633 0
M  V30 55 H -4.796282 0.231367 -3.899078 0
M  V30 56 H -3.096320 -1.062636 0.250698 0
M  V30 57 H -0.772253 -0.591353 0.584149 0
M  V30 58 H 1.454667 1.548704 -2.943182 0
M  V30 59 H 3.099697 -0.295831 2.254356 0
M  V30 END ATOM
M  V30 BEGIN BOND
M  V30 1 1 1 2
M  V30 2 1 2 3
M  V30 3 1 2 4
M  V30 4 1 4 5
M  V30 5 2 5 6
M  V30 6 1 5 7
M  V30 7 2 7 8
M  V30 8 1 8 9
M  V30 9 2 9 10
M  V30 10 1 10 11
M  V30 11 1 11 12
M  V30 12 1 12 13
M  V30 13 2 13 14
M  V30 14 1 14 15
M  V30 15 2 15 16
M  V30 16 1 16 17
M  V30 17 2 17 18
M  V30 18 1 18 19
M  V30 19 1 19 20
M  V30 20 1 20 21
M  V30 21 1 21 22
M  V30 22 1 22 23
M  V30 23 1 22 24
M  V30 24 1 24 25
M  V30 25 1 18 26
M  V30 26 2 26 27
M  V30 27 1 14 28
M  V30 28 1 28 29
M  V30 29 2 11 30
M  V30 30 1 30 7
M  V30 31 2 29 12
M  V30 32 1 27 15
M  V30 33 1 25 19
M  V30 34 1 1 31
M  V30 35 1 1 32
M  V30 36 1 1 33
M  V30 37 1 2 34
M  V30 38 1 3 35
M  V30 39 1 3 36
M  V30 40 1 3 37
M  V30 41 1 4 38
M  V30 42 1 8 39
M  V30 43 1 9 40
M  V30 44 1 10 41
M  V30 45 1 13 42
M  V30 46 1 16 43
M  V30 47 1 17 44
M  V30 48 1 20 45
M  V30 49 1 20 46
M  V30 50 1 21 47
M  V30 51 1 21 48
M  V30 52 1 23 49
M  V30 53 1 23 50
M  V30 54 1 23 51
M  V30 55 1 24 52
M  V30 56 1 24 53
M  V30 57 1 25 54
M  V30 58 1 25 55
M  V30 59 1 26 56
M  V30 60 1 27 57
M  V30 61 1 28 58
M  V30 62 1 30 59
M  V30 END BOND
M  V30 END CTAB
M  END
>  <Dataset>  (263) 
ChEMBL_Kinases

>  <Ligand_Instance>  (263) 
nan

>  <PDB_ID>  (263) 
nan

>  <Standardized_SMILES>  (263) 
CC(C)NC(=O)c1cccc(-c2cc(-c3ccc(N4CCN(C)CC4)cc3)[nH]n2)c1

>  <Name>  (263) 
nan

>  <Pocket>  (263) 
nan

>  <ATP_Site>  (263) 
nan

>  <Peripheral>  (263) 
nan

>  <Num_H_Atoms_ProtBoundConf>  (263) 
nan

>  <Num_Resolved_Atoms>  (263) 
nan

>  <Num_Not_Resolved_Atoms>  (263) 
nan

$$$$
CHEMBL1683312
     RDKit          3D

  0  0  0  0  0  0  0  0  0  0999 V3000
M  V30 BEGIN CTAB
M  V30 COUNTS 54 57 0 0 0
M  V30 BEGIN ATOM
M  V30 1 C 4.324507 -2.680403 3.693830 0
M  V30 2 C 4.308624 -1.241649 4.170320 0
M  V30 3 C 3.342729 -1.133860 5.322286 0
M  V30 4 N 3.927418 -0.420797 3.029320 0
M  V30 5 C 4.644421 0.672506 2.487729 0
M  V30 6 O 5.716634 0.955986 3.067211 0
M  V30 7 C 4.232297 1.461605 1.340254 0
M  V30 8 C 5.054058 2.511089 0.960747 0
M  V30 9 C 4.732084 3.302485 -0.134336 0
M  V30 10 C 3.574591 2.967524 -0.782126 0
M  V30 11 C 2.688585 1.982188 -0.525926 0
M  V30 12 C 1.467844 1.494599 -1.118562 0
M  V30 13 C 0.689177 0.419028 -0.765522 0
M  V30 14 C -0.330302 0.404688 -1.687690 0
M  V30 15 C -1.392875 -0.589350 -1.650757 0
M  V30 16 C -2.502075 -0.539483 -2.439268 0
M  V30 17 C -3.560327 -1.408826 -2.558127 0
M  V30 18 C -3.399641 -2.507856 -1.691342 0
M  V30 19 C -4.478970 -3.549410 -1.665192 0
M  V30 20 N -5.349128 -3.417298 -0.563680 0
M  V30 21 C -6.029628 -2.198433 -0.346339 0
M  V30 22 C -6.825772 -2.214140 0.972547 0
M  V30 23 C -7.498049 -2.042939 -0.367587 0
M  V30 24 C -2.321791 -2.663098 -0.851521 0
M  V30 25 C -1.326650 -1.711265 -0.830823 0
M  V30 26 N -0.189443 1.413181 -2.559526 0
M  V30 27 N 0.890899 2.065215 -2.215656 0
M  V30 28 C 3.095651 1.234205 0.599355 0
M  V30 29 H 4.195175 -3.415507 4.511999 0
M  V30 30 H 5.306202 -2.889617 3.228935 0
M  V30 31 H 3.471956 -2.853363 2.983614 0
M  V30 32 H 5.298318 -0.927250 4.576421 0
M  V30 33 H 2.514206 -0.420897 5.117682 0
M  V30 34 H 2.875711 -2.126367 5.474120 0
M  V30 35 H 3.849524 -0.873710 6.284191 0
M  V30 36 H 3.022291 -0.708482 2.600389 0
M  V30 37 H 5.952654 2.737375 1.498898 0
M  V30 38 H 5.308687 4.131313 -0.499699 0
M  V30 39 H 3.238398 3.544173 -1.657592 0
M  V30 40 H 0.841208 -0.261941 0.048466 0
M  V30 41 H -2.560354 0.340721 -3.083205 0
M  V30 42 H -4.405564 -1.291132 -3.212005 0
M  V30 43 H -5.049658 -3.437021 -2.624057 0
M  V30 44 H -4.036125 -4.566713 -1.633063 0
M  V30 45 H -5.021310 -3.920787 0.273180 0
M  V30 46 H -5.461466 -1.228424 -0.461349 0
M  V30 47 H -7.040521 -3.193889 1.445531 0
M  V30 48 H -6.729573 -1.384408 1.671273 0
M  V30 49 H -7.939424 -1.029881 -0.476857 0
M  V30 50 H -8.090313 -2.867438 -0.811114 0
M  V30 51 H -2.302257 -3.557633 -0.217022 0
M  V30 52 H -0.478292 -1.831405 -0.172367 0
M  V30 53 H -0.875209 1.552847 -3.332007 0
M  V30 54 H 2.521824 0.390490 0.984719 0
M  V30 END ATOM
M  V30 BEGIN BOND
M  V30 1 1 1 2
M  V30 2 1 2 3
M  V30 3 1 2 4
M  V30 4 1 4 5
M  V30 5 2 5 6
M  V30 6 1 5 7
M  V30 7 2 7 8
M  V30 8 1 8 9
M  V30 9 2 9 10
M  V30 10 1 10 11
M  V30 11 1 11 12
M  V30 12 1 12 13
M  V30 13 2 13 14
M  V30 14 1 14 15
M  V30 15 2 15 16
M  V30 16 1 16 17
M  V30 17 2 17 18
M  V30 18 1 18 19
M  V30 19 1 19 20
M  V30 20 1 20 21
M  V30 21 1 21 22
M  V30 22 1 22 23
M  V30 23 1 18 24
M  V30 24 2 24 25
M  V30 25 1 14 26
M  V30 26 1 26 27
M  V30 27 2 11 28
M  V30 28 1 28 7
M  V30 29 2 27 12
M  V30 30 1 25 15
M  V30 31 1 23 21
M  V30 32 1 1 29
M  V30 33 1 1 30
M  V30 34 1 1 31
M  V30 35 1 2 32
M  V30 36 1 3 33
M  V30 37 1 3 34
M  V30 38 1 3 35
M  V30 39 1 4 36
M  V30 40 1 8 37
M  V30 41 1 9 38
M  V30 42 1 10 39
M  V30 43 1 13 40
M  V30 44 1 16 41
M  V30 45 1 17 42
M  V30 46 1 19 43
M  V30 47 1 19 44
M  V30 48 1 20 45
M  V30 49 1 21 46
M  V30 50 1 22 47
M  V30 51 1 22 48
M  V30 52 1 23 49
M  V30 53 1 23 50
M  V30 54 1 24 51
M  V30 55 1 25 52
M  V30 56 1 26 53
M  V30 57 1 28 54
M  V30 END BOND
M  V30 END CTAB
M  END
>  <Dataset>  (264) 
ChEMBL_Kinases

>  <Ligand_Instance>  (264) 
nan

>  <PDB_ID>  (264) 
nan

>  <Standardized_SMILES>  (264) 
CC(C)NC(=O)c1cccc(-c2cc(-c3ccc(CNC4CC4)cc3)[nH]n2)c1

>  <Name>  (264) 
nan

>  <Pocket>  (264) 
nan

>  <ATP_Site>  (264) 
nan

>  <Peripheral>  (264) 
nan

>  <Num_H_Atoms_ProtBoundConf>  (264) 
nan

>  <Num_Resolved_Atoms>  (264) 
nan

>  <Num_Not_Resolved_Atoms>  (264) 
nan

$$$$
CHEMBL1683311
     RDKit          3D

  0  0  0  0  0  0  0  0  0  0999 V3000
M  V30 BEGIN CTAB
M  V30 COUNTS 57 59 0 0 0
M  V30 BEGIN ATOM
M  V30 1 C 5.441705 -5.350383 6.320981 0
M  V30 2 O 5.551214 -3.956723 6.182498 0
M  V30 3 C 4.387013 -3.533870 5.508122 0
M  V30 4 C 4.387801 -2.052457 5.301922 0
M  V30 5 N 5.472644 -1.540091 4.537918 0
M  V30 6 C 5.463610 -1.902985 3.159515 0
M  V30 7 C 4.283728 -1.467383 2.389977 0
M  V30 8 C 4.157640 -0.255339 1.736838 0
M  V30 9 C 3.035095 0.115422 1.018940 0
M  V30 10 C 1.969869 -0.758084 0.936956 0
M  V30 11 C 0.733291 -0.450065 0.196182 0
M  V30 12 C 0.414570 0.719875 -0.504958 0
M  V30 13 C -0.845523 0.590998 -1.050864 0
M  V30 14 C -1.596583 1.544988 -1.861268 0
M  V30 15 C -1.129431 2.791926 -2.214006 0
M  V30 16 C -1.920057 3.641639 -2.997245 0
M  V30 17 C -3.180550 3.259459 -3.436090 0
M  V30 18 C -3.651417 2.013341 -3.085875 0
M  V30 19 C -4.976683 1.632113 -3.557378 0
M  V30 20 O -5.642590 2.472586 -4.213826 0
M  V30 21 N -5.565535 0.361607 -3.320237 0
M  V30 22 C -6.875486 -0.069847 -3.764247 0
M  V30 23 C -6.706175 -1.248677 -4.737095 0
M  V30 24 C -7.634466 -0.616526 -2.579610 0
M  V30 25 C -2.852004 1.203122 -2.316601 0
M  V30 26 N -1.262457 -0.635844 -0.677351 0
M  V30 27 N -0.345067 -1.238885 0.046554 0
M  V30 28 C 2.035762 -1.985659 1.569190 0
M  V30 29 C 3.186435 -2.298434 2.272226 0
M  V30 30 H 6.339126 -5.750059 6.847345 0
M  V30 31 H 4.537979 -5.573917 6.931290 0
M  V30 32 H 5.308244 -5.862808 5.347710 0
M  V30 33 H 4.347113 -4.143972 4.600049 0
M  V30 34 H 3.539295 -3.860548 6.145760 0
M  V30 35 H 4.317001 -1.579798 6.302754 0
M  V30 36 H 3.410836 -1.801071 4.809977 0
M  V30 37 H 5.558122 -0.513140 4.711700 0
M  V30 38 H 6.431829 -1.544539 2.721579 0
M  V30 39 H 5.524402 -3.013035 3.115077 0
M  V30 40 H 5.005694 0.429921 1.806937 0
M  V30 41 H 2.974678 1.062191 0.525986 0
M  V30 42 H 1.040897 1.572991 -0.603724 0
M  V30 43 H -0.141463 3.098197 -1.873535 0
M  V30 44 H -1.520936 4.630876 -3.262815 0
M  V30 45 H -3.761337 3.957907 -4.045679 0
M  V30 46 H -5.035885 -0.355803 -2.779399 0
M  V30 47 H -7.442227 0.712040 -4.310564 0
M  V30 48 H -5.738913 -1.740723 -4.509623 0
M  V30 49 H -6.633704 -0.892106 -5.783991 0
M  V30 50 H -7.509761 -1.973264 -4.577516 0
M  V30 51 H -6.940188 -1.284169 -2.025441 0
M  V30 52 H -8.445739 -1.315294 -2.939789 0
M  V30 53 H -8.066930 0.175423 -1.948347 0
M  V30 54 H -3.227404 0.205502 -2.035293 0
M  V30 55 H -0.487523 -2.205251 0.430992 0
M  V30 56 H 1.193339 -2.658643 1.496475 0
M  V30 57 H 3.149113 -3.276484 2.732007 0
M  V30 END ATOM
M  V30 BEGIN BOND
M  V30 1 1 1 2
M  V30 2 1 2 3
M  V30 3 1 3 4
M  V30 4 1 4 5
M  V30 5 1 5 6
M  V30 6 1 6 7
M  V30 7 2 7 8
M  V30 8 1 8 9
M  V30 9 2 9 10
M  V30 10 1 10 11
M  V30 11 2 11 12
M  V30 12 1 12 13
M  V30 13 1 13 14
M  V30 14 2 14 15
M  V30 15 1 15 16
M  V30 16 2 16 17
M  V30 17 1 17 18
M  V30 18 1 18 19
M  V30 19 2 19 20
M  V30 20 1 19 21
M  V30 21 1 21 22
M  V30 22 1 22 23
M  V30 23 1 22 24
M  V30 24 2 18 25
M  V30 25 2 13 26
M  V30 26 1 26 27
M  V30 27 1 10 28
M  V30 28 2 28 29
M  V30 29 1 29 7
M  V30 30 1 27 11
M  V30 31 1 25 14
M  V30 32 1 1 30
M  V30 33 1 1 31
M  V30 34 1 1 32
M  V30 35 1 3 33
M  V30 36 1 3 34
M  V30 37 1 4 35
M  V30 38 1 4 36
M  V30 39 1 5 37
M  V30 40 1 6 38
M  V30 41 1 6 39
M  V30 42 1 8 40
M  V30 43 1 9 41
M  V30 44 1 12 42
M  V30 45 1 15 43
M  V30 46 1 16 44
M  V30 47 1 17 45
M  V30 48 1 21 46
M  V30 49 1 22 47
M  V30 50 1 23 48
M  V30 51 1 23 49
M  V30 52 1 23 50
M  V30 53 1 24 51
M  V30 54 1 24 52
M  V30 55 1 24 53
M  V30 56 1 25 54
M  V30 57 1 27 55
M  V30 58 1 28 56
M  V30 59 1 29 57
M  V30 END BOND
M  V30 END CTAB
M  END
>  <Dataset>  (265) 
ChEMBL_Kinases

>  <Ligand_Instance>  (265) 
nan

>  <PDB_ID>  (265) 
nan

>  <Standardized_SMILES>  (265) 
COCCNCc1ccc(-c2cc(-c3cccc(C(=O)NC(C)C)c3)n[nH]2)cc1

>  <Name>  (265) 
nan

>  <Pocket>  (265) 
nan

>  <ATP_Site>  (265) 
nan

>  <Peripheral>  (265) 
nan

>  <Num_H_Atoms_ProtBoundConf>  (265) 
nan

>  <Num_Resolved_Atoms>  (265) 
nan

>  <Num_Not_Resolved_Atoms>  (265) 
nan

$$$$
CHEMBL1683310
     RDKit          3D

  0  0  0  0  0  0  0  0  0  0999 V3000
M  V30 BEGIN CTAB
M  V30 COUNTS 59 62 0 0 0
M  V30 BEGIN ATOM
M  V30 1 C 4.901737 0.159998 9.142075 0
M  V30 2 C 4.409060 0.043524 7.730868 0
M  V30 3 C 5.521069 -0.220492 6.737660 0
M  V30 4 N 4.899688 -0.309551 5.418817 0
M  V30 5 C 5.672902 -0.552978 4.250895 0
M  V30 6 O 6.917355 -0.693382 4.363784 0
M  V30 7 C 5.107890 -0.651920 2.909990 0
M  V30 8 C 5.975724 -0.888813 1.864971 0
M  V30 9 C 5.533334 -1.000513 0.543588 0
M  V30 10 C 4.175667 -0.871061 0.255166 0
M  V30 11 C 3.305257 -0.633887 1.300122 0
M  V30 12 C 1.851616 -0.481847 1.101693 0
M  V30 13 C 1.197653 -0.554900 -0.112047 0
M  V30 14 C -0.145254 -0.360457 0.135530 0
M  V30 15 C -1.242574 -0.348337 -0.824635 0
M  V30 16 C -2.522045 -0.145074 -0.423355 0
M  V30 17 C -3.559951 -0.133443 -1.330793 0
M  V30 18 C -3.380675 -0.322484 -2.678634 0
M  V30 19 N -4.456780 -0.307682 -3.598052 0
M  V30 20 C -5.844606 -0.086442 -3.252491 0
M  V30 21 C -6.565782 -1.388787 -3.484690 0
M  V30 22 N -6.022062 -2.232375 -4.476571 0
M  V30 23 C -5.564158 -3.511752 -4.023711 0
M  V30 24 C -5.242478 -1.635330 -5.498158 0
M  V30 25 C -4.351737 -0.512046 -5.025772 0
M  V30 26 C -2.077218 -0.525994 -3.058630 0
M  V30 27 C -1.022445 -0.542167 -2.171413 0
M  V30 28 N -0.289474 -0.176386 1.460109 0
M  V30 29 N 0.905950 -0.248057 2.046274 0
M  V30 30 C 3.781656 -0.530043 2.591800 0
M  V30 31 H 4.127331 -0.157110 9.872193 0
M  V30 32 H 5.785655 -0.484573 9.356722 0
M  V30 33 H 5.191428 1.205412 9.385414 0
M  V30 34 H 3.872467 0.980682 7.453842 0
M  V30 35 H 3.658771 -0.773181 7.688566 0
M  V30 36 H 5.970625 -1.196816 7.029695 0
M  V30 37 H 6.276883 0.564592 6.785059 0
M  V30 38 H 3.874083 -0.200809 5.269940 0
M  V30 39 H 7.050299 -1.007749 1.960755 0
M  V30 40 H 6.202075 -1.186994 -0.292490 0
M  V30 41 H 3.731985 -0.940293 -0.727953 0
M  V30 42 H 1.631337 -0.728704 -1.075618 0
M  V30 43 H -2.681357 0.005784 0.637234 0
M  V30 44 H -4.530182 0.036856 -0.890729 0
M  V30 45 H -6.014320 0.254631 -2.226045 0
M  V30 46 H -6.325722 0.656641 -3.957873 0
M  V30 47 H -7.622906 -1.169268 -3.728708 0
M  V30 48 H -6.593675 -1.922427 -2.507880 0
M  V30 49 H -6.441410 -4.184828 -3.934807 0
M  V30 50 H -5.089379 -3.455122 -3.003113 0
M  V30 51 H -4.844618 -3.988550 -4.700858 0
M  V30 52 H -5.911057 -1.340689 -6.333450 0
M  V30 53 H -4.562323 -2.413513 -5.904231 0
M  V30 54 H -4.777992 0.419338 -5.505509 0
M  V30 55 H -3.328844 -0.587134 -5.380754 0
M  V30 56 H -1.796543 -0.687832 -4.087334 0
M  V30 57 H -0.000203 -0.704855 -2.494038 0
M  V30 58 H -1.141286 -0.000875 2.032212 0
M  V30 59 H 3.088431 -0.344871 3.394916 0
M  V30 END ATOM
M  V30 BEGIN BOND
M  V30 1 1 1 2
M  V30 2 1 2 3
M  V30 3 1 3 4
M  V30 4 1 4 5
M  V30 5 2 5 6
M  V30 6 1 5 7
M  V30 7 2 7 8
M  V30 8 1 8 9
M  V30 9 2 9 10
M  V30 10 1 10 11
M  V30 11 1 11 12
M  V30 12 1 12 13
M  V30 13 2 13 14
M  V30 14 1 14 15
M  V30 15 2 15 16
M  V30 16 1 16 17
M  V30 17 2 17 18
M  V30 18 1 18 19
M  V30 19 1 19 20
M  V30 20 1 20 21
M  V30 21 1 21 22
M  V30 22 1 22 23
M  V30 23 1 22 24
M  V30 24 1 24 25
M  V30 25 1 18 26
M  V30 26 2 26 27
M  V30 27 1 14 28
M  V30 28 1 28 29
M  V30 29 2 11 30
M  V30 30 1 30 7
M  V30 31 2 29 12
M  V30 32 1 27 15
M  V30 33 1 25 19
M  V30 34 1 1 31
M  V30 35 1 1 32
M  V30 36 1 1 33
M  V30 37 1 2 34
M  V30 38 1 2 35
M  V30 39 1 3 36
M  V30 40 1 3 37
M  V30 41 1 4 38
M  V30 42 1 8 39
M  V30 43 1 9 40
M  V30 44 1 10 41
M  V30 45 1 13 42
M  V30 46 1 16 43
M  V30 47 1 17 44
M  V30 48 1 20 45
M  V30 49 1 20 46
M  V30 50 1 21 47
M  V30 51 1 21 48
M  V30 52 1 23 49
M  V30 53 1 23 50
M  V30 54 1 23 51
M  V30 55 1 24 52
M  V30 56 1 24 53
M  V30 57 1 25 54
M  V30 58 1 25 55
M  V30 59 1 26 56
M  V30 60 1 27 57
M  V30 61 1 28 58
M  V30 62 1 30 59
M  V30 END BOND
M  V30 END CTAB
M  END
>  <Dataset>  (266) 
ChEMBL_Kinases

>  <Ligand_Instance>  (266) 
nan

>  <PDB_ID>  (266) 
nan

>  <Standardized_SMILES>  (266) 
CCCNC(=O)c1cccc(-c2cc(-c3ccc(N4CCN(C)CC4)cc3)[nH]n2)c1

>  <Name>  (266) 
nan

>  <Pocket>  (266) 
nan

>  <ATP_Site>  (266) 
nan

>  <Peripheral>  (266) 
nan

>  <Num_H_Atoms_ProtBoundConf>  (266) 
nan

>  <Num_Resolved_Atoms>  (266) 
nan

>  <Num_Not_Resolved_Atoms>  (266) 
nan

$$$$
CHEMBL1682853
     RDKit          3D

  0  0  0  0  0  0  0  0  0  0999 V3000
M  V30 BEGIN CTAB
M  V30 COUNTS 48 51 0 0 0
M  V30 BEGIN ATOM
M  V30 1 C 1.144861 -4.142837 0.284462 0
M  V30 2 N -0.088683 -3.392523 0.325921 0
M  V30 3 C -0.060287 -2.026011 0.304557 0
M  V30 4 N 1.200748 -1.419812 0.236943 0
M  V30 5 C 1.498429 -1.194129 -1.168003 0
M  V30 6 C 2.889192 -0.625220 -1.346419 0
M  V30 7 C 3.069250 0.570873 -0.462191 0
M  V30 8 C 2.839169 0.266981 0.986403 0
M  V30 9 C 2.210950 1.398744 1.711201 0
M  V30 10 C 0.952729 1.874126 1.428987 0
M  V30 11 C 0.372143 2.925061 2.107837 0
M  V30 12 C 1.049848 3.560276 3.126742 0
M  V30 13 C 2.314992 3.129326 3.456059 0
M  V30 14 C 2.840993 2.088571 2.754858 0
M  V30 15 C 2.129919 -1.041066 1.240891 0
M  V30 16 C -1.274397 -1.366655 0.348388 0
M  V30 17 C -2.509799 -1.977767 0.411812 0
M  V30 18 C -3.715912 -1.161196 0.452095 0
M  V30 19 C -4.964619 -1.716797 0.515253 0
M  V30 20 C -5.998772 -0.805946 0.546688 0
M  V30 21 N -5.884847 0.533299 0.521350 0
M  V30 22 C -4.615432 1.039444 0.457887 0
M  V30 23 N -3.596202 0.168449 0.426485 0
M  V30 24 C -2.495256 -3.345056 0.431282 0
M  V30 25 C -1.299120 -4.026324 0.388561 0
M  V30 26 O -1.283468 -5.297744 0.406509 0
M  V30 27 H 0.876849 -5.227852 0.463289 0
M  V30 28 H 1.669204 -4.148791 -0.662633 0
M  V30 29 H 1.794116 -3.919151 1.174087 0
M  V30 30 H 0.804169 -0.355666 -1.466880 0
M  V30 31 H 1.363434 -2.067008 -1.805452 0
M  V30 32 H 3.663729 -1.365557 -1.098143 0
M  V30 33 H 2.965305 -0.313699 -2.395853 0
M  V30 34 H 2.348375 1.381001 -0.767696 0
M  V30 35 H 4.070507 0.999708 -0.656847 0
M  V30 36 H 3.871934 0.177660 1.439681 0
M  V30 37 H 0.373362 1.435607 0.656236 0
M  V30 38 H -0.610758 3.309000 1.900103 0
M  V30 39 H 0.659738 4.388176 3.700900 0
M  V30 40 H 2.908746 3.583177 4.248818 0
M  V30 41 H 3.853305 1.740936 3.015141 0
M  V30 42 H 1.706732 -0.959175 2.257696 0
M  V30 43 H 2.948854 -1.818509 1.216841 0
M  V30 44 H -1.250597 -0.286448 0.331078 0
M  V30 45 H -5.127906 -2.779613 0.538580 0
M  V30 46 H -7.032023 -1.173494 0.597638 0
M  V30 47 H -4.412354 2.101341 0.432991 0
M  V30 48 H -3.427126 -3.884925 0.480594 0
M  V30 END ATOM
M  V30 BEGIN BOND
M  V30 1 1 1 2
M  V30 2 1 2 3
M  V30 3 1 3 4
M  V30 4 1 4 5
M  V30 5 1 5 6
M  V30 6 1 6 7
M  V30 7 1 7 8
M  V30 8 1 8 9
M  V30 9 2 9 10
M  V30 10 1 10 11
M  V30 11 2 11 12
M  V30 12 1 12 13
M  V30 13 2 13 14
M  V30 14 1 8 15
M  V30 15 2 3 16
M  V30 16 1 16 17
M  V30 17 1 17 18
M  V30 18 2 18 19
M  V30 19 1 19 20
M  V30 20 2 20 21
M  V30 21 1 21 22
M  V30 22 2 22 23
M  V30 23 2 17 24
M  V30 24 1 24 25
M  V30 25 2 25 26
M  V30 26 1 25 2
M  V30 27 1 15 4
M  V30 28 1 23 18
M  V30 29 1 14 9
M  V30 30 1 1 27
M  V30 31 1 1 28
M  V30 32 1 1 29
M  V30 33 1 5 30
M  V30 34 1 5 31
M  V30 35 1 6 32
M  V30 36 1 6 33
M  V30 37 1 7 34
M  V30 38 1 7 35
M  V30 39 1 8 36
M  V30 40 1 10 37
M  V30 41 1 11 38
M  V30 42 1 12 39
M  V30 43 1 13 40
M  V30 44 1 14 41
M  V30 45 1 15 42
M  V30 46 1 15 43
M  V30 47 1 16 44
M  V30 48 1 19 45
M  V30 49 1 20 46
M  V30 50 1 22 47
M  V30 51 1 24 48
M  V30 END BOND
M  V30 END CTAB
M  END
>  <Dataset>  (267) 
ChEMBL_Kinases

>  <Ligand_Instance>  (267) 
nan

>  <PDB_ID>  (267) 
nan

>  <Standardized_SMILES>  (267) 
Cn1c(N2CCCC(c3ccccc3)C2)cc(-c2ccncn2)cc1=O

>  <Name>  (267) 
nan

>  <Pocket>  (267) 
nan

>  <ATP_Site>  (267) 
nan

>  <Peripheral>  (267) 
nan

>  <Num_H_Atoms_ProtBoundConf>  (267) 
nan

>  <Num_Resolved_Atoms>  (267) 
nan

>  <Num_Not_Resolved_Atoms>  (267) 
nan

$$$$
CHEMBL1682852
     RDKit          3D

  0  0  0  0  0  0  0  0  0  0999 V3000
M  V30 BEGIN CTAB
M  V30 COUNTS 50 53 0 0 0
M  V30 BEGIN ATOM
M  V30 1 C -0.512234 -1.969496 3.337780 0
M  V30 2 O 0.019518 -2.372384 2.082650 0
M  V30 3 C 1.371452 -2.555328 1.867349 0
M  V30 4 C 2.304718 -2.351397 2.884403 0
M  V30 5 C 3.675428 -2.505482 2.776952 0
M  V30 6 C 4.089893 -2.898210 1.521750 0
M  V30 7 C 3.251772 -3.125463 0.451492 0
M  V30 8 C 1.905429 -2.951983 0.635615 0
M  V30 9 C 0.843718 -3.150482 -0.417336 0 CFG=2
M  V30 10 C 0.628212 -1.778924 -1.037267 0
M  V30 11 N -0.796161 -1.427646 -1.009109 0
M  V30 12 C -1.239917 -0.217687 -0.409734 0
M  V30 13 C -0.307997 0.782793 -0.240798 0
M  V30 14 C -0.643015 1.979969 0.352073 0
M  V30 15 C 0.357076 3.045749 0.530799 0
M  V30 16 C 0.063722 4.253842 1.108585 0
M  V30 17 C 1.030326 5.218602 1.248844 0
M  V30 18 N 2.271645 4.987462 0.820288 0
M  V30 19 C 2.587787 3.793688 0.242606 0
M  V30 20 N 1.617001 2.878834 0.124860 0
M  V30 21 C -1.922223 2.220152 0.796935 0
M  V30 22 C -2.819519 1.212260 0.615591 0
M  V30 23 O -4.027984 1.373839 1.008104 0
M  V30 24 N -2.486358 0.024911 0.028170 0
M  V30 25 C -3.530964 -0.972645 -0.081328 0
M  V30 26 C -1.440210 -2.512511 -1.711154 0
M  V30 27 C -1.264491 -3.762066 -0.864742 0
M  V30 28 O -0.339179 -3.566294 0.153432 0
M  V30 29 H -0.085183 -2.505678 4.193638 0
M  V30 30 H -0.327272 -0.866095 3.428993 0
M  V30 31 H -1.612379 -2.057664 3.257760 0
M  V30 32 H 1.910980 -2.040718 3.854335 0
M  V30 33 H 4.322096 -2.328355 3.608867 0
M  V30 34 H 5.164449 -3.046019 1.339014 0
M  V30 35 H 3.578196 -3.432757 -0.530468 0
M  V30 36 H 1.265681 -3.869791 -1.147010 0
M  V30 37 H 1.273993 -1.026372 -0.584829 0
M  V30 38 H 0.913352 -1.864346 -2.104125 0
M  V30 39 H 0.712148 0.781715 -0.527411 0
M  V30 40 H -0.909667 4.491082 1.467188 0
M  V30 41 H 0.920334 6.192396 1.682638 0
M  V30 42 H 3.561464 3.489254 -0.143670 0
M  V30 43 H -2.303458 3.110139 1.273289 0
M  V30 44 H -4.336520 -0.700301 0.682957 0
M  V30 45 H -4.057076 -0.911244 -1.033116 0
M  V30 46 H -3.216878 -1.979888 0.247437 0
M  V30 47 H -0.949507 -2.663513 -2.720685 0
M  V30 48 H -2.501364 -2.395363 -1.914764 0
M  V30 49 H -0.864820 -4.567839 -1.529577 0
M  V30 50 H -2.244492 -4.104182 -0.448007 0
M  V30 END ATOM
M  V30 BEGIN BOND
M  V30 1 1 1 2
M  V30 2 1 2 3
M  V30 3 2 3 4
M  V30 4 1 4 5
M  V30 5 2 5 6
M  V30 6 1 6 7
M  V30 7 2 7 8
M  V30 8 1 8 9
M  V30 9 1 9 10
M  V30 10 1 10 11
M  V30 11 1 11 12
M  V30 12 2 12 13
M  V30 13 1 13 14
M  V30 14 1 14 15
M  V30 15 2 15 16
M  V30 16 1 16 17
M  V30 17 2 17 18
M  V30 18 1 18 19
M  V30 19 2 19 20
M  V30 20 2 14 21
M  V30 21 1 21 22
M  V30 22 2 22 23
M  V30 23 1 22 24
M  V30 24 1 24 25
M  V30 25 1 11 26
M  V30 26 1 26 27
M  V30 27 1 27 28
M  V30 28 1 8 3
M  V30 29 1 28 9
M  V30 30 1 24 12
M  V30 31 1 20 15
M  V30 32 1 1 29
M  V30 33 1 1 30
M  V30 34 1 1 31
M  V30 35 1 4 32
M  V30 36 1 5 33
M  V30 37 1 6 34
M  V30 38 1 7 35
M  V30 39 1 9 36 CFG=3
M  V30 40 1 10 37
M  V30 41 1 10 38
M  V30 42 1 13 39
M  V30 43 1 16 40
M  V30 44 1 17 41
M  V30 45 1 19 42
M  V30 46 1 21 43
M  V30 47 1 25 44
M  V30 48 1 25 45
M  V30 49 1 25 46
M  V30 50 1 26 47
M  V30 51 1 26 48
M  V30 52 1 27 49
M  V30 53 1 27 50
M  V30 END BOND
M  V30 END CTAB
M  END
>  <Dataset>  (268) 
ChEMBL_Kinases

>  <Ligand_Instance>  (268) 
nan

>  <PDB_ID>  (268) 
nan

>  <Standardized_SMILES>  (268) 
COc1ccccc1[C@@H]1CN(c2cc(-c3ccncn3)cc(=O)n2C)CCO1

>  <Name>  (268) 
nan

>  <Pocket>  (268) 
nan

>  <ATP_Site>  (268) 
nan

>  <Peripheral>  (268) 
nan

>  <Num_H_Atoms_ProtBoundConf>  (268) 
nan

>  <Num_Resolved_Atoms>  (268) 
nan

>  <Num_Not_Resolved_Atoms>  (268) 
nan

$$$$
CHEMBL1682851
     RDKit          3D

  0  0  0  0  0  0  0  0  0  0999 V3000
M  V30 BEGIN CTAB
M  V30 COUNTS 50 53 0 0 0
M  V30 BEGIN ATOM
M  V30 1 C -0.626125 -5.099340 3.932707 0
M  V30 2 O -0.238452 -4.389243 2.781644 0
M  V30 3 C 1.032927 -3.948784 2.531854 0
M  V30 4 C 2.028630 -4.202097 3.453110 0
M  V30 5 C 3.333788 -3.778618 3.250218 0
M  V30 6 C 3.636794 -3.082952 2.087946 0
M  V30 7 C 2.608030 -2.853425 1.196225 0
M  V30 8 C 1.299144 -3.259863 1.365625 0
M  V30 9 C 0.252655 -2.963616 0.341318 0 CFG=1
M  V30 10 C -0.326044 -1.623908 0.749613 0
M  V30 11 N -0.918955 -0.951189 -0.390453 0
M  V30 12 C -1.233059 0.442344 -0.173945 0
M  V30 13 C -0.259117 1.391095 -0.470751 0
M  V30 14 C -0.522492 2.730013 -0.277142 0
M  V30 15 C 0.539851 3.674444 -0.607390 0
M  V30 16 C 0.444282 5.043638 -0.474529 0
M  V30 17 C 1.518485 5.834086 -0.820216 0
M  V30 18 N 2.681966 5.351654 -1.289589 0
M  V30 19 C 2.746266 3.993253 -1.409996 0
M  V30 20 N 1.700550 3.183714 -1.076307 0
M  V30 21 C -1.754263 3.111611 0.210605 0
M  V30 22 C -2.676649 2.134569 0.486123 0
M  V30 23 O -3.780203 2.541976 0.927764 0
M  V30 24 N -2.423365 0.827169 0.298510 0
M  V30 25 C -3.443997 -0.147119 0.610829 0
M  V30 26 C -1.121417 -1.742815 -1.587694 0
M  V30 27 C 0.078740 -2.585971 -1.929268 0
M  V30 28 O 0.924236 -2.778750 -0.847608 0
M  V30 29 H -0.335449 -4.566213 4.856030 0
M  V30 30 H -0.216324 -6.137211 3.936456 0
M  V30 31 H -1.733966 -5.224129 3.917702 0
M  V30 32 H 1.864248 -4.737096 4.377861 0
M  V30 33 H 4.152151 -3.943734 3.926961 0
M  V30 34 H 4.627239 -2.699392 1.817875 0
M  V30 35 H 2.795002 -2.306249 0.258861 0
M  V30 36 H -0.513303 -3.762311 0.302832 0
M  V30 37 H -1.019578 -1.706650 1.607864 0
M  V30 38 H 0.556711 -0.990358 1.056586 0
M  V30 39 H 0.688846 1.023315 -0.851366 0
M  V30 40 H -0.470589 5.457133 -0.103043 0
M  V30 41 H 1.378042 6.910716 -0.691329 0
M  V30 42 H 3.639920 3.492170 -1.779789 0
M  V30 43 H -1.967983 4.159581 0.364965 0
M  V30 44 H -3.162615 -0.626747 1.570283 0
M  V30 45 H -4.430127 0.317620 0.753607 0
M  V30 46 H -3.502536 -0.953526 -0.151235 0
M  V30 47 H -1.955205 -2.457340 -1.343639 0
M  V30 48 H -1.473592 -1.129035 -2.442583 0
M  V30 49 H -0.185097 -3.572751 -2.379863 0
M  V30 50 H 0.663522 -2.041107 -2.704975 0
M  V30 END ATOM
M  V30 BEGIN BOND
M  V30 1 1 1 2
M  V30 2 1 2 3
M  V30 3 2 3 4
M  V30 4 1 4 5
M  V30 5 2 5 6
M  V30 6 1 6 7
M  V30 7 2 7 8
M  V30 8 1 8 9
M  V30 9 1 9 10
M  V30 10 1 10 11
M  V30 11 1 11 12
M  V30 12 2 12 13
M  V30 13 1 13 14
M  V30 14 1 14 15
M  V30 15 2 15 16
M  V30 16 1 16 17
M  V30 17 2 17 18
M  V30 18 1 18 19
M  V30 19 2 19 20
M  V30 20 2 14 21
M  V30 21 1 21 22
M  V30 22 2 22 23
M  V30 23 1 22 24
M  V30 24 1 24 25
M  V30 25 1 11 26
M  V30 26 1 26 27
M  V30 27 1 27 28
M  V30 28 1 8 3
M  V30 29 1 28 9
M  V30 30 1 24 12
M  V30 31 1 20 15
M  V30 32 1 1 29
M  V30 33 1 1 30
M  V30 34 1 1 31
M  V30 35 1 4 32
M  V30 36 1 5 33
M  V30 37 1 6 34
M  V30 38 1 7 35
M  V30 39 1 9 36 CFG=3
M  V30 40 1 10 37
M  V30 41 1 10 38
M  V30 42 1 13 39
M  V30 43 1 16 40
M  V30 44 1 17 41
M  V30 45 1 19 42
M  V30 46 1 21 43
M  V30 47 1 25 44
M  V30 48 1 25 45
M  V30 49 1 25 46
M  V30 50 1 26 47
M  V30 51 1 26 48
M  V30 52 1 27 49
M  V30 53 1 27 50
M  V30 END BOND
M  V30 END CTAB
M  END
>  <Dataset>  (269) 
ChEMBL_Kinases

>  <Ligand_Instance>  (269) 
nan

>  <PDB_ID>  (269) 
nan

>  <Standardized_SMILES>  (269) 
COc1ccccc1[C@H]1CN(c2cc(-c3ccncn3)cc(=O)n2C)CCO1

>  <Name>  (269) 
nan

>  <Pocket>  (269) 
nan

>  <ATP_Site>  (269) 
nan

>  <Peripheral>  (269) 
nan

>  <Num_H_Atoms_ProtBoundConf>  (269) 
nan

>  <Num_Resolved_Atoms>  (269) 
nan

>  <Num_Not_Resolved_Atoms>  (269) 
nan

$$$$
CHEMBL1682850
     RDKit          3D

  0  0  0  0  0  0  0  0  0  0999 V3000
M  V30 BEGIN CTAB
M  V30 COUNTS 49 52 0 0 0
M  V30 BEGIN ATOM
M  V30 1 C 0.827889 -2.871482 2.652182 0
M  V30 2 N -0.377386 -2.773528 1.851153 0
M  V30 3 C -0.383713 -2.024576 0.734270 0
M  V30 4 N 0.760191 -1.293074 0.263753 0
M  V30 5 C 0.435544 0.093549 -0.021999 0
M  V30 6 C 1.583497 0.733804 -0.798046 0
M  V30 7 C 2.832535 0.755630 0.048934 0
M  V30 8 O 3.850501 1.294057 -0.733899 0
M  V30 9 C 2.556114 1.707827 1.169168 0
M  V30 10 C 2.100318 1.391751 2.432358 0
M  V30 11 C 1.875468 2.388855 3.362442 0
M  V30 12 C 2.088040 3.711814 3.087199 0
M  V30 13 C 2.548591 4.068046 1.822027 0
M  V30 14 C 2.767956 3.061812 0.905588 0
M  V30 15 C 3.138233 -0.637922 0.540570 0
M  V30 16 C 2.146445 -1.615039 0.000695 0
M  V30 17 C -1.549632 -1.935427 -0.039403 0
M  V30 18 C -2.705644 -2.606374 0.321442 0
M  V30 19 C -3.911496 -2.502844 -0.504018 0
M  V30 20 C -5.082467 -3.157406 -0.179236 0
M  V30 21 C -6.181749 -3.009190 -1.017161 0
M  V30 22 N -6.165224 -2.247627 -2.149702 0
M  V30 23 C -5.006430 -1.633125 -2.421267 0
M  V30 24 N -3.900984 -1.750866 -1.625006 0
M  V30 25 C -2.678268 -3.360879 1.457993 0
M  V30 26 C -1.513314 -3.425023 2.194125 0
M  V30 27 O -1.476108 -4.127409 3.257411 0
M  V30 28 H 0.500596 -3.309361 3.643225 0
M  V30 29 H 1.267606 -1.909920 2.911756 0
M  V30 30 H 1.553974 -3.607706 2.252495 0
M  V30 31 H -0.436040 0.218324 -0.698630 0
M  V30 32 H 0.301509 0.647184 0.931567 0
M  V30 33 H 1.717706 0.328246 -1.800450 0
M  V30 34 H 1.271436 1.801222 -0.924430 0
M  V30 35 H 4.686141 1.441187 -0.227760 0
M  V30 36 H 1.946556 0.361813 2.626243 0
M  V30 37 H 1.521771 2.086880 4.326393 0
M  V30 38 H 1.915669 4.505122 3.800435 0
M  V30 39 H 2.735661 5.119021 1.548766 0
M  V30 40 H 3.128866 3.392802 -0.069660 0
M  V30 41 H 3.353433 -0.708766 1.610761 0
M  V30 42 H 4.120187 -0.909593 0.044131 0
M  V30 43 H 2.408658 -2.669086 0.213673 0
M  V30 44 H 2.234614 -1.547114 -1.128365 0
M  V30 45 H -1.638854 -1.361658 -0.948246 0
M  V30 46 H -5.167781 -3.773860 0.697780 0
M  V30 47 H -7.090941 -3.547559 -0.719038 0
M  V30 48 H -4.803632 -0.982507 -3.281988 0
M  V30 49 H -3.513142 -3.917479 1.825369 0
M  V30 END ATOM
M  V30 BEGIN BOND
M  V30 1 1 1 2
M  V30 2 1 2 3
M  V30 3 1 3 4
M  V30 4 1 4 5
M  V30 5 1 5 6
M  V30 6 1 6 7
M  V30 7 1 7 8
M  V30 8 1 7 9
M  V30 9 2 9 10
M  V30 10 1 10 11
M  V30 11 2 11 12
M  V30 12 1 12 13
M  V30 13 2 13 14
M  V30 14 1 7 15
M  V30 15 1 15 16
M  V30 16 2 3 17
M  V30 17 1 17 18
M  V30 18 1 18 19
M  V30 19 2 19 20
M  V30 20 1 20 21
M  V30 21 2 21 22
M  V30 22 1 22 23
M  V30 23 2 23 24
M  V30 24 2 18 25
M  V30 25 1 25 26
M  V30 26 2 26 27
M  V30 27 1 26 2
M  V30 28 1 16 4
M  V30 29 1 24 19
M  V30 30 1 14 9
M  V30 31 1 1 28
M  V30 32 1 1 29
M  V30 33 1 1 30
M  V30 34 1 5 31
M  V30 35 1 5 32
M  V30 36 1 6 33
M  V30 37 1 6 34
M  V30 38 1 8 35
M  V30 39 1 10 36
M  V30 40 1 11 37
M  V30 41 1 12 38
M  V30 42 1 13 39
M  V30 43 1 14 40
M  V30 44 1 15 41
M  V30 45 1 15 42
M  V30 46 1 16 43
M  V30 47 1 16 44
M  V30 48 1 17 45
M  V30 49 1 20 46
M  V30 50 1 21 47
M  V30 51 1 23 48
M  V30 52 1 25 49
M  V30 END BOND
M  V30 END CTAB
M  END
>  <Dataset>  (270) 
ChEMBL_Kinases

>  <Ligand_Instance>  (270) 
nan

>  <PDB_ID>  (270) 
nan

>  <Standardized_SMILES>  (270) 
Cn1c(N2CCC(O)(c3ccccc3)CC2)cc(-c2ccncn2)cc1=O

>  <Name>  (270) 
nan

>  <Pocket>  (270) 
nan

>  <ATP_Site>  (270) 
nan

>  <Peripheral>  (270) 
nan

>  <Num_H_Atoms_ProtBoundConf>  (270) 
nan

>  <Num_Resolved_Atoms>  (270) 
nan

>  <Num_Not_Resolved_Atoms>  (270) 
nan

$$$$
CHEMBL1682849
     RDKit          3D

  0  0  0  0  0  0  0  0  0  0999 V3000
M  V30 BEGIN CTAB
M  V30 COUNTS 52 55 0 0 0
M  V30 BEGIN ATOM
M  V30 1 C 0.691416 -1.117141 3.499500 0
M  V30 2 O 1.286074 -1.270709 2.226169 0
M  V30 3 C 2.563721 -0.779188 2.035335 0
M  V30 4 C 3.251505 -0.150557 3.057100 0
M  V30 5 C 4.524599 0.349514 2.894588 0
M  V30 6 C 5.138251 0.219448 1.667505 0
M  V30 7 C 4.431395 -0.409231 0.671673 0
M  V30 8 C 3.137681 -0.936183 0.779262 0
M  V30 9 C 2.489010 -1.601715 -0.383185 0
M  V30 10 C 1.628739 -0.573170 -1.049455 0
M  V30 11 C 0.441124 -1.115836 -1.747030 0
M  V30 12 N -0.236263 -2.095617 -0.898565 0
M  V30 13 C -1.472365 -1.690217 -0.341034 0
M  V30 14 C -1.698858 -0.336201 -0.210745 0
M  V30 15 C -2.858620 0.204445 0.296514 0
M  V30 16 C -3.159158 1.619384 0.461063 0
M  V30 17 C -2.303138 2.644736 0.123201 0
M  V30 18 C -2.555684 3.992429 0.265686 0
M  V30 19 N -3.764454 4.332763 0.789162 0
M  V30 20 C -4.622017 3.353843 1.128913 0
M  V30 21 N -4.324598 2.056086 0.968584 0
M  V30 22 C -3.875237 -0.665580 0.707672 0
M  V30 23 C -3.646949 -2.011636 0.576150 0
M  V30 24 O -4.558731 -2.794151 0.944747 0
M  V30 25 N -2.489456 -2.458733 0.071569 0
M  V30 26 C -2.390059 -3.894567 -0.044921 0
M  V30 27 C 0.594500 -3.243643 -0.822591 0
M  V30 28 C 1.883330 -2.905145 -0.110613 0
M  V30 29 H 1.327835 -1.471729 4.329494 0
M  V30 30 H -0.269175 -1.682946 3.575242 0
M  V30 31 H 0.475671 -0.028817 3.691470 0
M  V30 32 H 2.779738 -0.038762 4.037073 0
M  V30 33 H 5.101765 0.847053 3.658825 0
M  V30 34 H 6.135463 0.585754 1.460989 0
M  V30 35 H 4.915389 -0.510361 -0.291157 0
M  V30 36 H 3.329311 -1.785174 -1.124363 0
M  V30 37 H 1.316112 0.184725 -0.303478 0
M  V30 38 H 2.197733 0.007610 -1.802791 0
M  V30 39 H -0.258205 -0.327993 -2.058952 0
M  V30 40 H 0.733479 -1.638159 -2.710605 0
M  V30 41 H -1.037105 0.466143 -0.462496 0
M  V30 42 H -1.332033 2.430503 -0.295910 0
M  V30 43 H -1.849142 4.755620 -0.015440 0
M  V30 44 H -5.617653 3.469919 1.555885 0
M  V30 45 H -4.816570 -0.323482 1.117674 0
M  V30 46 H -1.981465 -4.235928 -1.027049 0
M  V30 47 H -3.418452 -4.359294 -0.038981 0
M  V30 48 H -1.842176 -4.394910 0.751785 0
M  V30 49 H 0.187765 -4.127728 -0.304132 0
M  V30 50 H 0.890508 -3.533988 -1.879006 0
M  V30 51 H 1.712906 -3.157397 0.977850 0
M  V30 52 H 2.576883 -3.750626 -0.414491 0
M  V30 END ATOM
M  V30 BEGIN BOND
M  V30 1 1 1 2
M  V30 2 1 2 3
M  V30 3 2 3 4
M  V30 4 1 4 5
M  V30 5 2 5 6
M  V30 6 1 6 7
M  V30 7 2 7 8
M  V30 8 1 8 9
M  V30 9 1 9 10
M  V30 10 1 10 11
M  V30 11 1 11 12
M  V30 12 1 12 13
M  V30 13 2 13 14
M  V30 14 1 14 15
M  V30 15 1 15 16
M  V30 16 2 16 17
M  V30 17 1 17 18
M  V30 18 2 18 19
M  V30 19 1 19 20
M  V30 20 2 20 21
M  V30 21 2 15 22
M  V30 22 1 22 23
M  V30 23 2 23 24
M  V30 24 1 23 25
M  V30 25 1 25 26
M  V30 26 1 12 27
M  V30 27 1 27 28
M  V30 28 1 8 3
M  V30 29 1 28 9
M  V30 30 1 25 13
M  V30 31 1 21 16
M  V30 32 1 1 29
M  V30 33 1 1 30
M  V30 34 1 1 31
M  V30 35 1 4 32
M  V30 36 1 5 33
M  V30 37 1 6 34
M  V30 38 1 7 35
M  V30 39 1 9 36
M  V30 40 1 10 37
M  V30 41 1 10 38
M  V30 42 1 11 39
M  V30 43 1 11 40
M  V30 44 1 14 41
M  V30 45 1 17 42
M  V30 46 1 18 43
M  V30 47 1 20 44
M  V30 48 1 22 45
M  V30 49 1 26 46
M  V30 50 1 26 47
M  V30 51 1 26 48
M  V30 52 1 27 49
M  V30 53 1 27 50
M  V30 54 1 28 51
M  V30 55 1 28 52
M  V30 END BOND
M  V30 END CTAB
M  END
>  <Dataset>  (271) 
ChEMBL_Kinases

>  <Ligand_Instance>  (271) 
nan

>  <PDB_ID>  (271) 
nan

>  <Standardized_SMILES>  (271) 
COc1ccccc1C1CCN(c2cc(-c3ccncn3)cc(=O)n2C)CC1

>  <Name>  (271) 
nan

>  <Pocket>  (271) 
nan

>  <ATP_Site>  (271) 
nan

>  <Peripheral>  (271) 
nan

>  <Num_H_Atoms_ProtBoundConf>  (271) 
nan

>  <Num_Resolved_Atoms>  (271) 
nan

>  <Num_Not_Resolved_Atoms>  (271) 
nan

$$$$
CHEMBL1682848
     RDKit          3D

  0  0  0  0  0  0  0  0  0  0999 V3000
M  V30 BEGIN CTAB
M  V30 COUNTS 52 55 0 0 0
M  V30 BEGIN ATOM
M  V30 1 C -0.134478 -0.518572 3.416964 0
M  V30 2 O 0.923486 -0.824718 2.539684 0
M  V30 3 C 2.254088 -0.971343 2.896414 0
M  V30 4 C 2.641282 -0.814632 4.182304 0
M  V30 5 C 3.990591 -0.973839 4.495767 0
M  V30 6 C 4.861528 -1.287298 3.446067 0
M  V30 7 C 4.432286 -1.440437 2.140139 0
M  V30 8 C 3.073746 -1.278995 1.834447 0
M  V30 9 C 2.776783 -1.463890 0.393062 0
M  V30 10 C 3.187950 -0.284466 -0.446489 0
M  V30 11 C 2.410495 0.962234 -0.211790 0
M  V30 12 C 0.932053 0.773969 -0.268242 0
M  V30 13 N 0.567281 -0.647805 -0.318411 0
M  V30 14 C -0.742245 -0.816482 -0.865064 0
M  V30 15 C -1.880599 -0.481889 -0.132523 0
M  V30 16 C -3.158309 -0.657696 -0.680302 0
M  V30 17 C -4.284086 -0.263742 0.154718 0
M  V30 18 C -5.600898 -0.353557 -0.229177 0
M  V30 19 C -6.623778 0.059469 0.632863 0
M  V30 20 N -6.363508 0.560894 1.872127 0
M  V30 21 C -5.050936 0.629345 2.203615 0
M  V30 22 N -4.061884 0.235938 1.383848 0
M  V30 23 C -3.333034 -1.163370 -1.950451 0
M  V30 24 C -2.161237 -1.483174 -2.643155 0
M  V30 25 O -2.366041 -1.943773 -3.800059 0
M  V30 26 N -0.916018 -1.313809 -2.116162 0
M  V30 27 C 0.190588 -1.688311 -2.968968 0
M  V30 28 C 1.346632 -1.782313 0.089274 0
M  V30 29 H -0.262867 0.530742 3.665233 0
M  V30 30 H 0.044255 -1.154041 4.335291 0
M  V30 31 H -1.069437 -0.953627 2.982388 0
M  V30 32 H 1.939680 -0.575186 4.938143 0
M  V30 33 H 4.390684 -0.870469 5.494098 0
M  V30 34 H 5.925844 -1.413927 3.699011 0
M  V30 35 H 5.215334 -1.683835 1.415881 0
M  V30 36 H 3.397119 -2.333778 0.025909 0
M  V30 37 H 4.290390 -0.106406 -0.401881 0
M  V30 38 H 3.024949 -0.581845 -1.515962 0
M  V30 39 H 2.678861 1.403147 0.782020 0
M  V30 40 H 2.710421 1.767922 -0.949551 0
M  V30 41 H 0.411120 1.238893 0.615040 0
M  V30 42 H 0.539175 1.293533 -1.163065 0
M  V30 43 H -1.732806 -0.094190 0.842034 0
M  V30 44 H -5.849416 -0.744676 -1.202005 0
M  V30 45 H -7.678899 -0.000460 0.348657 0
M  V30 46 H -4.802157 1.031609 3.197224 0
M  V30 47 H -4.301793 -1.303495 -2.382050 0
M  V30 48 H 1.090971 -1.070487 -2.780211 0
M  V30 49 H -0.114752 -1.406873 -4.024755 0
M  V30 50 H 0.397928 -2.760236 -3.020940 0
M  V30 51 H 1.358631 -2.456565 -0.822716 0
M  V30 52 H 0.849367 -2.420032 0.855398 0
M  V30 END ATOM
M  V30 BEGIN BOND
M  V30 1 1 1 2
M  V30 2 1 2 3
M  V30 3 2 3 4
M  V30 4 1 4 5
M  V30 5 2 5 6
M  V30 6 1 6 7
M  V30 7 2 7 8
M  V30 8 1 8 9
M  V30 9 1 9 10
M  V30 10 1 10 11
M  V30 11 1 11 12
M  V30 12 1 12 13
M  V30 13 1 13 14
M  V30 14 2 14 15
M  V30 15 1 15 16
M  V30 16 1 16 17
M  V30 17 2 17 18
M  V30 18 1 18 19
M  V30 19 2 19 20
M  V30 20 1 20 21
M  V30 21 2 21 22
M  V30 22 2 16 23
M  V30 23 1 23 24
M  V30 24 2 24 25
M  V30 25 1 24 26
M  V30 26 1 26 27
M  V30 27 1 13 28
M  V30 28 1 8 3
M  V30 29 1 28 9
M  V30 30 1 26 14
M  V30 31 1 22 17
M  V30 32 1 1 29
M  V30 33 1 1 30
M  V30 34 1 1 31
M  V30 35 1 4 32
M  V30 36 1 5 33
M  V30 37 1 6 34
M  V30 38 1 7 35
M  V30 39 1 9 36
M  V30 40 1 10 37
M  V30 41 1 10 38
M  V30 42 1 11 39
M  V30 43 1 11 40
M  V30 44 1 12 41
M  V30 45 1 12 42
M  V30 46 1 15 43
M  V30 47 1 18 44
M  V30 48 1 19 45
M  V30 49 1 21 46
M  V30 50 1 23 47
M  V30 51 1 27 48
M  V30 52 1 27 49
M  V30 53 1 27 50
M  V30 54 1 28 51
M  V30 55 1 28 52
M  V30 END BOND
M  V30 END CTAB
M  END
>  <Dataset>  (272) 
ChEMBL_Kinases

>  <Ligand_Instance>  (272) 
nan

>  <PDB_ID>  (272) 
nan

>  <Standardized_SMILES>  (272) 
COc1ccccc1C1CCCN(c2cc(-c3ccncn3)cc(=O)n2C)C1

>  <Name>  (272) 
nan

>  <Pocket>  (272) 
nan

>  <ATP_Site>  (272) 
nan

>  <Peripheral>  (272) 
nan

>  <Num_H_Atoms_ProtBoundConf>  (272) 
nan

>  <Num_Resolved_Atoms>  (272) 
nan

>  <Num_Not_Resolved_Atoms>  (272) 
nan

$$$$
CHEMBL1682847
     RDKit          3D

  0  0  0  0  0  0  0  0  0  0999 V3000
M  V30 BEGIN CTAB
M  V30 COUNTS 48 50 0 0 0
M  V30 BEGIN ATOM
M  V30 1 C 2.186113 -5.169391 1.636480 0
M  V30 2 O 2.419183 -3.817851 1.284025 0
M  V30 3 C 2.001149 -3.232035 0.098940 0
M  V30 4 C 1.304470 -3.951434 -0.846469 0
M  V30 5 C 0.897537 -3.353345 -2.017566 0
M  V30 6 C 1.185109 -2.037431 -2.246493 0
M  V30 7 C 1.889031 -1.355935 -1.264057 0
M  V30 8 C 2.330795 -1.881820 -0.067270 0
M  V30 9 C 3.066791 -1.152207 0.953668 0
M  V30 10 C 2.247198 -0.715874 2.157807 0
M  V30 11 N 1.188920 0.156645 1.747855 0
M  V30 12 C 1.799319 1.412010 1.269878 0
M  V30 13 C -0.231985 0.151243 1.690992 0
M  V30 14 C -0.907735 1.178730 1.069510 0
M  V30 15 C -2.266325 1.266138 0.982853 0
M  V30 16 C -2.946138 2.363411 0.315874 0
M  V30 17 C -2.376019 3.441160 -0.315317 0
M  V30 18 C -3.036560 4.472177 -0.945130 0
M  V30 19 N -4.396934 4.389578 -0.924891 0
M  V30 20 C -4.978819 3.345866 -0.314288 0
M  V30 21 N -4.302820 2.357357 0.290014 0
M  V30 22 C -3.028297 0.271188 1.546943 0
M  V30 23 C -2.382166 -0.762681 2.170677 0
M  V30 24 O -3.098563 -1.650197 2.671777 0
M  V30 25 N -1.040840 -0.782316 2.217677 0
M  V30 26 C -0.477707 -1.923076 2.897126 0
M  V30 27 H 2.622500 -5.856713 0.875195 0
M  V30 28 H 2.797703 -5.361937 2.564541 0
M  V30 29 H 1.120842 -5.370302 1.847592 0
M  V30 30 H 1.064974 -5.013160 -0.675966 0
M  V30 31 H 0.351667 -3.896659 -2.773459 0
M  V30 32 H 0.890128 -1.522134 -3.146917 0
M  V30 33 H 2.104597 -0.314773 -1.470162 0
M  V30 34 H 3.884041 -1.785345 1.368447 0
M  V30 35 H 3.522060 -0.250774 0.511987 0
M  V30 36 H 2.990862 -0.074077 2.746627 0
M  V30 37 H 2.030680 -1.525564 2.835690 0
M  V30 38 H 1.836240 1.411687 0.167198 0
M  V30 39 H 2.822693 1.548540 1.717291 0
M  V30 40 H 1.244242 2.306767 1.582236 0
M  V30 41 H -0.402410 1.984802 0.595330 0
M  V30 42 H -1.296898 3.504813 -0.331308 0
M  V30 43 H -2.486572 5.275633 -1.412015 0
M  V30 44 H -6.075145 3.265849 -0.288329 0
M  V30 45 H -4.105460 0.298407 1.503871 0
M  V30 46 H -0.005703 -1.666947 3.845868 0
M  V30 47 H 0.086473 -2.493147 2.164316 0
M  V30 48 H -1.298198 -2.652088 3.206076 0
M  V30 END ATOM
M  V30 BEGIN BOND
M  V30 1 1 1 2
M  V30 2 1 2 3
M  V30 3 2 3 4
M  V30 4 1 4 5
M  V30 5 2 5 6
M  V30 6 1 6 7
M  V30 7 2 7 8
M  V30 8 1 8 9
M  V30 9 1 9 10
M  V30 10 1 10 11
M  V30 11 1 11 12
M  V30 12 1 11 13
M  V30 13 2 13 14
M  V30 14 1 14 15
M  V30 15 1 15 16
M  V30 16 2 16 17
M  V30 17 1 17 18
M  V30 18 2 18 19
M  V30 19 1 19 20
M  V30 20 2 20 21
M  V30 21 2 15 22
M  V30 22 1 22 23
M  V30 23 2 23 24
M  V30 24 1 23 25
M  V30 25 1 25 26
M  V30 26 1 8 3
M  V30 27 1 25 13
M  V30 28 1 21 16
M  V30 29 1 1 27
M  V30 30 1 1 28
M  V30 31 1 1 29
M  V30 32 1 4 30
M  V30 33 1 5 31
M  V30 34 1 6 32
M  V30 35 1 7 33
M  V30 36 1 9 34
M  V30 37 1 9 35
M  V30 38 1 10 36
M  V30 39 1 10 37
M  V30 40 1 12 38
M  V30 41 1 12 39
M  V30 42 1 12 40
M  V30 43 1 14 41
M  V30 44 1 17 42
M  V30 45 1 18 43
M  V30 46 1 20 44
M  V30 47 1 22 45
M  V30 48 1 26 46
M  V30 49 1 26 47
M  V30 50 1 26 48
M  V30 END BOND
M  V30 END CTAB
M  END
>  <Dataset>  (273) 
ChEMBL_Kinases

>  <Ligand_Instance>  (273) 
nan

>  <PDB_ID>  (273) 
nan

>  <Standardized_SMILES>  (273) 
COc1ccccc1CCN(C)c1cc(-c2ccncn2)cc(=O)n1C

>  <Name>  (273) 
nan

>  <Pocket>  (273) 
nan

>  <ATP_Site>  (273) 
nan

>  <Peripheral>  (273) 
nan

>  <Num_H_Atoms_ProtBoundConf>  (273) 
nan

>  <Num_Resolved_Atoms>  (273) 
nan

>  <Num_Not_Resolved_Atoms>  (273) 
nan

$$$$
CHEMBL1682842
     RDKit          3D

  0  0  0  0  0  0  0  0  0  0999 V3000
M  V30 BEGIN CTAB
M  V30 COUNTS 45 47 0 0 0
M  V30 BEGIN ATOM
M  V30 1 C -0.735978 -4.675803 0.067139 0
M  V30 2 O -0.503934 -3.502125 -0.687049 0
M  V30 3 C 0.794685 -3.287916 -1.121876 0
M  V30 4 C 1.829683 -4.152054 -0.855331 0
M  V30 5 C 3.109543 -3.908162 -1.305829 0
M  V30 6 C 3.337328 -2.748142 -2.050421 0
M  V30 7 C 2.256468 -1.924410 -2.281934 0
M  V30 8 C 0.957583 -2.141586 -1.842154 0
M  V30 9 C 0.017501 -1.079985 -2.223399 0
M  V30 10 C -0.268369 -0.076053 -1.146753 0
M  V30 11 N -0.869079 -0.682531 -0.014829 0
M  V30 12 C -1.042943 0.430420 0.893454 0
M  V30 13 C -0.128793 0.667332 1.905671 0
M  V30 14 C -0.176733 1.698575 2.822406 0
M  V30 15 C 0.799663 1.890434 3.885196 0
M  V30 16 C 1.853705 1.016607 4.058499 0
M  V30 17 C 2.681463 1.322316 5.117669 0
M  V30 18 N 2.550350 2.361159 5.962196 0
M  V30 19 C 1.495955 3.188629 5.745013 0
M  V30 20 N 0.656936 2.939930 4.727894 0
M  V30 21 C -1.256540 2.536111 2.663791 0
M  V30 22 C -2.201208 2.344182 1.666412 0
M  V30 23 O -3.175163 3.102281 1.526252 0
M  V30 24 N -2.090270 1.299118 0.792735 0
M  V30 25 C -3.095952 1.129187 -0.230973 0
M  V30 26 H -1.791014 -4.885727 0.273537 0
M  V30 27 H -0.316480 -5.587506 -0.410324 0
M  V30 28 H -0.205999 -4.589261 1.061798 0
M  V30 29 H 1.641920 -5.043267 -0.281798 0
M  V30 30 H 3.946476 -4.562432 -1.116192 0
M  V30 31 H 4.331773 -2.567564 -2.397647 0
M  V30 32 H 2.549437 -1.043607 -2.877855 0
M  V30 33 H 0.369036 -0.550603 -3.154050 0
M  V30 34 H -0.945913 -1.567046 -2.583213 0
M  V30 35 H -0.907979 0.715784 -1.614596 0
M  V30 36 H 0.707574 0.418870 -0.909857 0
M  V30 37 H -1.289704 -1.337776 0.671170 0
M  V30 38 H 0.665211 -0.033967 1.943565 0
M  V30 39 H 2.022965 0.161740 3.422463 0
M  V30 40 H 3.546214 0.682319 5.335451 0
M  V30 41 H 1.299989 4.058153 6.373975 0
M  V30 42 H -1.334631 3.365900 3.367336 0
M  V30 43 H -4.116587 1.388530 0.168496 0
M  V30 44 H -2.961903 1.799166 -1.096606 0
M  V30 45 H -3.177456 0.057776 -0.529286 0
M  V30 END ATOM
M  V30 BEGIN BOND
M  V30 1 1 1 2
M  V30 2 1 2 3
M  V30 3 2 3 4
M  V30 4 1 4 5
M  V30 5 2 5 6
M  V30 6 1 6 7
M  V30 7 2 7 8
M  V30 8 1 8 9
M  V30 9 1 9 10
M  V30 10 1 10 11
M  V30 11 1 11 12
M  V30 12 2 12 13
M  V30 13 1 13 14
M  V30 14 1 14 15
M  V30 15 2 15 16
M  V30 16 1 16 17
M  V30 17 2 17 18
M  V30 18 1 18 19
M  V30 19 2 19 20
M  V30 20 2 14 21
M  V30 21 1 21 22
M  V30 22 2 22 23
M  V30 23 1 22 24
M  V30 24 1 24 25
M  V30 25 1 8 3
M  V30 26 1 24 12
M  V30 27 1 20 15
M  V30 28 1 1 26
M  V30 29 1 1 27
M  V30 30 1 1 28
M  V30 31 1 4 29
M  V30 32 1 5 30
M  V30 33 1 6 31
M  V30 34 1 7 32
M  V30 35 1 9 33
M  V30 36 1 9 34
M  V30 37 1 10 35
M  V30 38 1 10 36
M  V30 39 1 11 37
M  V30 40 1 13 38
M  V30 41 1 16 39
M  V30 42 1 17 40
M  V30 43 1 19 41
M  V30 44 1 21 42
M  V30 45 1 25 43
M  V30 46 1 25 44
M  V30 47 1 25 45
M  V30 END BOND
M  V30 END CTAB
M  END
>  <Dataset>  (274) 
ChEMBL_Kinases

>  <Ligand_Instance>  (274) 
nan

>  <PDB_ID>  (274) 
nan

>  <Standardized_SMILES>  (274) 
COc1ccccc1CCNc1cc(-c2ccncn2)cc(=O)n1C

>  <Name>  (274) 
nan

>  <Pocket>  (274) 
nan

>  <ATP_Site>  (274) 
nan

>  <Peripheral>  (274) 
nan

>  <Num_H_Atoms_ProtBoundConf>  (274) 
nan

>  <Num_Resolved_Atoms>  (274) 
nan

>  <Num_Not_Resolved_Atoms>  (274) 
nan

$$$$
CHEMBL1682840
     RDKit          3D

  0  0  0  0  0  0  0  0  0  0999 V3000
M  V30 BEGIN CTAB
M  V30 COUNTS 36 38 0 0 0
M  V30 BEGIN ATOM
M  V30 1 C -2.303767 -2.712029 0.894014 0
M  V30 2 N -1.691888 -1.462154 0.510002 0
M  V30 3 C -0.399051 -1.204811 0.738414 0
M  V30 4 N 0.497404 -2.161424 1.336077 0
M  V30 5 C 0.743675 -3.589460 1.150742 0
M  V30 6 C 2.218229 -3.711275 0.808682 0
M  V30 7 O 2.993434 -3.287159 1.855187 0
M  V30 8 C 2.803389 -1.945025 2.171844 0
M  V30 9 C 1.351231 -1.614811 2.384560 0
M  V30 10 C 0.164211 0.002763 0.382940 0
M  V30 11 C -0.633163 0.961486 -0.222801 0
M  V30 12 C 0.010237 2.216850 -0.591867 0
M  V30 13 C -0.613550 3.282459 -1.201929 0
M  V30 14 C 0.070801 4.442937 -1.528367 0
M  V30 15 N 1.365037 4.552991 -1.253904 0
M  V30 16 C 1.983120 3.515414 -0.656836 0
M  V30 17 N 1.316886 2.390580 -0.341512 0
M  V30 18 C -1.955889 0.705783 -0.460779 0
M  V30 19 C -2.450131 -0.522637 -0.077908 0
M  V30 20 O -3.678197 -0.702613 -0.321971 0
M  V30 21 H -1.681153 -3.225455 1.657970 0
M  V30 22 H -2.476490 -3.394958 0.029730 0
M  V30 23 H -3.304141 -2.494078 1.390129 0
M  V30 24 H 0.110271 -4.031548 0.348134 0
M  V30 25 H 0.595632 -4.122673 2.123182 0
M  V30 26 H 2.436810 -3.228593 -0.169580 0
M  V30 27 H 2.437426 -4.791320 0.663277 0
M  V30 28 H 3.305812 -1.767301 3.142599 0
M  V30 29 H 3.229537 -1.234726 1.467626 0
M  V30 30 H 1.234227 -0.541213 2.506573 0
M  V30 31 H 1.034817 -2.185130 3.310348 0
M  V30 32 H 1.208561 0.193404 0.575924 0
M  V30 33 H -1.674982 3.188168 -1.424340 0
M  V30 34 H -0.501336 5.239527 -2.010676 0
M  V30 35 H 3.052181 3.669441 -0.457481 0
M  V30 36 H -2.585526 1.441721 -0.933019 0
M  V30 END ATOM
M  V30 BEGIN BOND
M  V30 1 1 1 2
M  V30 2 1 2 3
M  V30 3 1 3 4
M  V30 4 1 4 5
M  V30 5 1 5 6
M  V30 6 1 6 7
M  V30 7 1 7 8
M  V30 8 1 8 9
M  V30 9 2 3 10
M  V30 10 1 10 11
M  V30 11 1 11 12
M  V30 12 2 12 13
M  V30 13 1 13 14
M  V30 14 2 14 15
M  V30 15 1 15 16
M  V30 16 2 16 17
M  V30 17 2 11 18
M  V30 18 1 18 19
M  V30 19 2 19 20
M  V30 20 1 19 2
M  V30 21 1 9 4
M  V30 22 1 17 12
M  V30 23 1 1 21
M  V30 24 1 1 22
M  V30 25 1 1 23
M  V30 26 1 5 24
M  V30 27 1 5 25
M  V30 28 1 6 26
M  V30 29 1 6 27
M  V30 30 1 8 28
M  V30 31 1 8 29
M  V30 32 1 9 30
M  V30 33 1 9 31
M  V30 34 1 10 32
M  V30 35 1 13 33
M  V30 36 1 14 34
M  V30 37 1 16 35
M  V30 38 1 18 36
M  V30 END BOND
M  V30 END CTAB
M  END
>  <Dataset>  (275) 
ChEMBL_Kinases

>  <Ligand_Instance>  (275) 
nan

>  <PDB_ID>  (275) 
nan

>  <Standardized_SMILES>  (275) 
Cn1c(N2CCOCC2)cc(-c2ccncn2)cc1=O

>  <Name>  (275) 
nan

>  <Pocket>  (275) 
nan

>  <ATP_Site>  (275) 
nan

>  <Peripheral>  (275) 
nan

>  <Num_H_Atoms_ProtBoundConf>  (275) 
nan

>  <Num_Resolved_Atoms>  (275) 
nan

>  <Num_Not_Resolved_Atoms>  (275) 
nan

$$$$
CHEMBL1682839
     RDKit          3D

  0  0  0  0  0  0  0  0  0  0999 V3000
M  V30 BEGIN CTAB
M  V30 COUNTS 38 40 0 0 0
M  V30 BEGIN ATOM
M  V30 1 C -3.061368 -1.379694 1.227220 0
M  V30 2 N -2.003583 -0.400515 1.334424 0
M  V30 3 C -0.809763 -0.716579 0.788361 0
M  V30 4 N -0.570858 -1.961793 0.107578 0
M  V30 5 C -0.226900 -3.146909 0.856270 0
M  V30 6 C 1.176529 -3.621289 0.578120 0
M  V30 7 C 1.736252 -3.031483 -0.689950 0
M  V30 8 C 0.722400 -2.854740 -1.782243 0
M  V30 9 C -0.599412 -2.299745 -1.306626 0
M  V30 10 C 0.243601 0.174602 0.862623 0
M  V30 11 C 0.087294 1.390014 1.491785 0
M  V30 12 C 1.150305 2.385398 1.616535 0
M  V30 13 C 2.417480 2.197793 1.111714 0
M  V30 14 C 3.386199 3.166039 1.257206 0
M  V30 15 N 3.091047 4.300272 1.895415 0
M  V30 16 C 1.867223 4.522985 2.401142 0
M  V30 17 N 0.968245 3.560437 2.236558 0
M  V30 18 C -1.144113 1.736865 2.065331 0
M  V30 19 C -2.169852 0.786997 1.953896 0
M  V30 20 O -3.284487 1.077570 2.461617 0
M  V30 21 H -3.584396 -1.520669 2.193357 0
M  V30 22 H -3.799085 -1.059990 0.453241 0
M  V30 23 H -2.662082 -2.356299 0.932793 0
M  V30 24 H -0.921325 -3.974674 0.578338 0
M  V30 25 H -0.354159 -2.939894 1.931240 0
M  V30 26 H 1.232407 -4.720867 0.504029 0
M  V30 27 H 1.872475 -3.347106 1.404467 0
M  V30 28 H 2.514387 -3.718831 -1.069677 0
M  V30 29 H 2.254455 -2.052073 -0.492252 0
M  V30 30 H 1.201560 -2.145445 -2.517258 0
M  V30 31 H 0.537727 -3.800116 -2.331273 0
M  V30 32 H -1.413379 -3.041972 -1.438854 0
M  V30 33 H -0.860877 -1.430905 -1.957192 0
M  V30 34 H 1.195381 -0.086285 0.423732 0
M  V30 35 H 2.678841 1.287115 0.591716 0
M  V30 36 H 4.395904 3.114671 0.903562 0
M  V30 37 H 1.499685 5.401511 2.942613 0
M  V30 38 H -1.289038 2.684469 2.562623 0
M  V30 END ATOM
M  V30 BEGIN BOND
M  V30 1 1 1 2
M  V30 2 1 2 3
M  V30 3 1 3 4
M  V30 4 1 4 5
M  V30 5 1 5 6
M  V30 6 1 6 7
M  V30 7 1 7 8
M  V30 8 1 8 9
M  V30 9 2 3 10
M  V30 10 1 10 11
M  V30 11 1 11 12
M  V30 12 2 12 13
M  V30 13 1 13 14
M  V30 14 2 14 15
M  V30 15 1 15 16
M  V30 16 2 16 17
M  V30 17 2 11 18
M  V30 18 1 18 19
M  V30 19 2 19 20
M  V30 20 1 19 2
M  V30 21 1 9 4
M  V30 22 1 17 12
M  V30 23 1 1 21
M  V30 24 1 1 22
M  V30 25 1 1 23
M  V30 26 1 5 24
M  V30 27 1 5 25
M  V30 28 1 6 26
M  V30 29 1 6 27
M  V30 30 1 7 28
M  V30 31 1 7 29
M  V30 32 1 8 30
M  V30 33 1 8 31
M  V30 34 1 9 32
M  V30 35 1 9 33
M  V30 36 1 10 34
M  V30 37 1 13 35
M  V30 38 1 14 36
M  V30 39 1 16 37
M  V30 40 1 18 38
M  V30 END BOND
M  V30 END CTAB
M  END
>  <Dataset>  (276) 
ChEMBL_Kinases

>  <Ligand_Instance>  (276) 
nan

>  <PDB_ID>  (276) 
nan

>  <Standardized_SMILES>  (276) 
Cn1c(N2CCCCC2)cc(-c2ccncn2)cc1=O

>  <Name>  (276) 
nan

>  <Pocket>  (276) 
nan

>  <ATP_Site>  (276) 
nan

>  <Peripheral>  (276) 
nan

>  <Num_H_Atoms_ProtBoundConf>  (276) 
nan

>  <Num_Resolved_Atoms>  (276) 
nan

>  <Num_Not_Resolved_Atoms>  (276) 
nan

$$$$
CHEMBL1681990
     RDKit          3D

  0  0  0  0  0  0  0  0  0  0999 V3000
M  V30 BEGIN CTAB
M  V30 COUNTS 62 66 0 0 0
M  V30 BEGIN ATOM
M  V30 1 C 3.672111 -0.699598 5.370319 0
M  V30 2 O 3.018311 0.511567 5.125610 0
M  V30 3 C 2.753384 1.033408 3.869634 0
M  V30 4 C 3.100928 0.426736 2.688575 0
M  V30 5 C 2.787473 1.035184 1.491755 0
M  V30 6 C 2.122307 2.259657 1.396163 0
M  V30 7 C 1.846205 2.733380 0.043815 0
M  V30 8 N 0.543316 2.455001 -0.480652 0
M  V30 9 C 0.423575 3.066437 -1.765118 0
M  V30 10 C -0.905886 2.920993 -2.427457 0
M  V30 11 C -1.977441 3.411575 -1.478053 0
M  V30 12 C -1.871194 2.580211 -0.231068 0
M  V30 13 N -1.976655 1.154624 -0.475529 0
M  V30 14 C -1.213143 0.238914 0.177856 0
M  V30 15 C -1.659732 -0.939948 -0.375498 0
M  V30 16 C -2.643334 -0.744610 -1.315700 0
M  V30 17 N -2.803094 0.567019 -1.340586 0
M  V30 18 C -3.304460 -1.798366 -2.067927 0
M  V30 19 C -2.934330 -3.194473 -1.837601 0
M  V30 20 C -1.868424 -3.358187 -0.819679 0
M  V30 21 C -1.271214 -2.346203 -0.136466 0
M  V30 22 S -0.106206 -3.000884 0.927963 0
M  V30 23 C -0.433605 -4.802520 0.425941 0
M  V30 24 N 0.348153 -5.769497 1.085039 0
M  V30 25 C -0.144434 -6.334735 2.314143 0
M  V30 26 N 0.606592 -7.321384 3.027777 0
M  V30 27 O -1.269802 -5.863828 2.655228 0
M  V30 28 C -1.433286 -4.625378 -0.526503 0
M  V30 29 C -1.803381 -5.943279 -1.020704 0
M  V30 30 N -2.808925 -6.087842 -2.013236 0
M  V30 31 O -1.297796 -7.003499 -0.637786 0
M  V30 32 C -0.495538 2.893365 0.395575 0
M  V30 33 C 1.800259 2.820637 2.607272 0
M  V30 34 F 1.178959 4.023829 2.576646 0
M  V30 35 C 2.089566 2.255445 3.823917 0
M  V30 36 H 4.209352 -0.644513 6.349239 0
M  V30 37 H 2.961155 -1.552140 5.468241 0
M  V30 38 H 4.395816 -0.902253 4.550845 0
M  V30 39 H 3.615689 -0.517890 2.710103 0
M  V30 40 H 3.099826 0.487503 0.594800 0
M  V30 41 H 1.985825 3.845797 -0.008752 0
M  V30 42 H 2.571817 2.293321 -0.707312 0
M  V30 43 H 1.216731 2.590985 -2.414783 0
M  V30 44 H 0.684302 4.144757 -1.771916 0
M  V30 45 H -0.880887 3.532619 -3.352798 0
M  V30 46 H -1.121230 1.880720 -2.732626 0
M  V30 47 H -2.963722 3.444675 -1.937369 0
M  V30 48 H -1.693238 4.454910 -1.166723 0
M  V30 49 H -2.617552 2.863915 0.534560 0
M  V30 50 H -0.455202 0.391035 0.932375 0
M  V30 51 H -4.414108 -1.706363 -1.806851 0
M  V30 52 H -3.312394 -1.602466 -3.174068 0
M  V30 53 H -3.824662 -3.857666 -1.587283 0
M  V30 54 H -2.597724 -3.646286 -2.827825 0
M  V30 55 H 1.266243 -6.079746 0.703038 0
M  V30 56 H 1.386352 -7.157609 3.698421 0
M  V30 57 H 0.606435 -8.378173 3.089933 0
M  V30 58 H -3.030683 -5.989807 -3.024953 0
M  V30 59 H -3.826011 -6.393372 -2.063397 0
M  V30 60 H -0.468280 3.996212 0.459574 0
M  V30 61 H -0.474831 2.381062 1.385220 0
M  V30 62 H 1.810542 2.744780 4.730351 0
M  V30 END ATOM
M  V30 BEGIN BOND
M  V30 1 1 1 2
M  V30 2 1 2 3
M  V30 3 2 3 4
M  V30 4 1 4 5
M  V30 5 2 5 6
M  V30 6 1 6 7
M  V30 7 1 7 8
M  V30 8 1 8 9
M  V30 9 1 9 10
M  V30 10 1 10 11
M  V30 11 1 11 12
M  V30 12 1 12 13
M  V30 13 1 13 14
M  V30 14 2 14 15
M  V30 15 1 15 16
M  V30 16 2 16 17
M  V30 17 1 16 18
M  V30 18 1 18 19
M  V30 19 1 19 20
M  V30 20 2 20 21
M  V30 21 1 21 22
M  V30 22 1 22 23
M  V30 23 1 23 24
M  V30 24 1 24 25
M  V30 25 1 25 26
M  V30 26 2 25 27
M  V30 27 2 23 28
M  V30 28 1 28 29
M  V30 29 1 29 30
M  V30 30 2 29 31
M  V30 31 1 12 32
M  V30 32 1 6 33
M  V30 33 1 33 34
M  V30 34 2 33 35
M  V30 35 1 35 3
M  V30 36 1 32 8
M  V30 37 1 17 13
M  V30 38 1 28 20
M  V30 39 1 21 15
M  V30 40 1 1 36
M  V30 41 1 1 37
M  V30 42 1 1 38
M  V30 43 1 4 39
M  V30 44 1 5 40
M  V30 45 1 7 41
M  V30 46 1 7 42
M  V30 47 1 9 43
M  V30 48 1 9 44
M  V30 49 1 10 45
M  V30 50 1 10 46
M  V30 51 1 11 47
M  V30 52 1 11 48
M  V30 53 1 12 49
M  V30 54 1 14 50
M  V30 55 1 18 51
M  V30 56 1 18 52
M  V30 57 1 19 53
M  V30 58 1 19 54
M  V30 59 1 24 55
M  V30 60 1 26 56
M  V30 61 1 26 57
M  V30 62 1 30 58
M  V30 63 1 30 59
M  V30 64 1 32 60
M  V30 65 1 32 61
M  V30 66 1 35 62
M  V30 END BOND
M  V30 END CTAB
M  END
>  <Dataset>  (277) 
ChEMBL_Kinases

>  <Ligand_Instance>  (277) 
nan

>  <PDB_ID>  (277) 
nan

>  <Standardized_SMILES>  (277) 
COc1ccc(CN2CCCC(n3cc4c(n3)CCc3c-4sc(NC(N)=O)c3C(N)=O)C2)c(F)c1

>  <Name>  (277) 
nan

>  <Pocket>  (277) 
nan

>  <ATP_Site>  (277) 
nan

>  <Peripheral>  (277) 
nan

>  <Num_H_Atoms_ProtBoundConf>  (277) 
nan

>  <Num_Resolved_Atoms>  (277) 
nan

>  <Num_Not_Resolved_Atoms>  (277) 
nan

$$$$
CHEMBL1682281
     RDKit          3D

  0  0  0  0  0  0  0  0  0  0999 V3000
M  V30 BEGIN CTAB
M  V30 COUNTS 36 39 0 0 0
M  V30 BEGIN ATOM
M  V30 1 O 3.042532 -0.012770 4.804501 0
M  V30 2 C 3.119843 -1.144898 4.252194 0
M  V30 3 O 3.790708 -1.935367 5.171859 0
M  V30 4 C 2.591804 -1.470465 2.925658 0
M  V30 5 C 2.681176 -2.723807 2.353852 0
M  V30 6 C 2.139225 -2.877302 1.092612 0
M  V30 7 C 1.529418 -1.858654 0.400328 0
M  V30 8 C 1.471093 -0.632707 1.021978 0
M  V30 9 C 1.985365 -0.389676 2.278594 0
M  V30 10 N 0.874302 0.383765 0.355814 0
M  V30 11 C 0.342799 0.242660 -0.870723 0
M  V30 12 N -0.255348 1.412148 -1.474753 0
M  V30 13 C -1.508102 1.450904 -0.759778 0
M  V30 14 C -1.350815 2.395484 0.265804 0
M  V30 15 C -2.381429 2.687222 1.172279 0
M  V30 16 F -2.299904 3.573389 2.172140 0
M  V30 17 C -3.566637 1.992212 1.001880 0
M  V30 18 C -3.713762 1.065123 -0.009679 0
M  V30 19 F -4.855960 0.346038 -0.244012 0
M  V30 20 C -2.701855 0.779571 -0.900017 0
M  V30 21 C 0.390885 -0.979803 -1.510322 0
M  V30 22 N -0.146708 -1.123909 -2.755170 0
M  V30 23 C -0.055062 -2.359960 -3.313542 0
M  V30 24 N 0.535828 -3.404474 -2.681245 0
M  V30 25 C 1.072557 -3.278357 -1.448318 0
M  V30 26 C 0.995845 -2.030311 -0.849829 0
M  V30 27 H 3.529217 -2.034703 6.144548 0
M  V30 28 H 3.156756 -3.502940 2.906724 0
M  V30 29 H 2.241307 -3.868972 0.713520 0
M  V30 30 H 1.889258 0.599977 2.671444 0
M  V30 31 H 0.112488 2.049166 -2.220875 0
M  V30 32 H -0.467906 3.007881 0.508322 0
M  V30 33 H -4.421668 2.166892 1.669891 0
M  V30 34 H -2.636360 0.110416 -1.723579 0
M  V30 35 H -0.438258 -2.600966 -4.296563 0
M  V30 36 H 1.521036 -4.159681 -1.030553 0
M  V30 END ATOM
M  V30 BEGIN BOND
M  V30 1 2 1 2
M  V30 2 1 2 3
M  V30 3 1 2 4
M  V30 4 2 4 5
M  V30 5 1 5 6
M  V30 6 2 6 7
M  V30 7 1 7 8
M  V30 8 2 8 9
M  V30 9 1 8 10
M  V30 10 2 10 11
M  V30 11 1 11 12
M  V30 12 1 12 13
M  V30 13 2 13 14
M  V30 14 1 14 15
M  V30 15 1 15 16
M  V30 16 2 15 17
M  V30 17 1 17 18
M  V30 18 1 18 19
M  V30 19 2 18 20
M  V30 20 1 11 21
M  V30 21 2 21 22
M  V30 22 1 22 23
M  V30 23 2 23 24
M  V30 24 1 24 25
M  V30 25 2 25 26
M  V30 26 1 9 4
M  V30 27 1 20 13
M  V30 28 1 26 21
M  V30 29 1 26 7
M  V30 30 1 3 27
M  V30 31 1 5 28
M  V30 32 1 6 29
M  V30 33 1 9 30
M  V30 34 1 12 31
M  V30 35 1 14 32
M  V30 36 1 17 33
M  V30 37 1 20 34
M  V30 38 1 23 35
M  V30 39 1 25 36
M  V30 END BOND
M  V30 END CTAB
M  END
>  <Dataset>  (278) 
ChEMBL_Kinases

>  <Ligand_Instance>  (278) 
nan

>  <PDB_ID>  (278) 
nan

>  <Standardized_SMILES>  (278) 
O=C(O)c1ccc2c(c1)nc(Nc1cc(F)cc(F)c1)c1ncncc12

>  <Name>  (278) 
nan

>  <Pocket>  (278) 
nan

>  <ATP_Site>  (278) 
nan

>  <Peripheral>  (278) 
nan

>  <Num_H_Atoms_ProtBoundConf>  (278) 
nan

>  <Num_Resolved_Atoms>  (278) 
nan

>  <Num_Not_Resolved_Atoms>  (278) 
nan

$$$$
CHEMBL1682283
     RDKit          3D

  0  0  0  0  0  0  0  0  0  0999 V3000
M  V30 BEGIN CTAB
M  V30 COUNTS 38 41 0 0 0
M  V30 BEGIN ATOM
M  V30 1 C -2.544860 -4.885917 5.980536 0
M  V30 2 C -1.951440 -4.060991 5.339532 0
M  V30 3 C -1.244661 -3.085604 4.554192 0
M  V30 4 C -0.236122 -2.280056 5.072388 0
M  V30 5 C 0.393294 -1.360354 4.224363 0
M  V30 6 C 0.034341 -1.237456 2.890078 0
M  V30 7 C -0.983234 -2.055356 2.382466 0
M  V30 8 N -1.356883 -1.929865 0.997133 0
M  V30 9 C -0.598325 -1.004510 0.229014 0
M  V30 10 N -0.837421 0.328273 0.072264 0
M  V30 11 C -0.031686 1.091040 -0.694102 0
M  V30 12 C -0.358921 2.427283 -0.788241 0
M  V30 13 C 0.475747 3.204970 -1.578825 0
M  V30 14 C 0.150471 4.621140 -1.691846 0
M  V30 15 O -0.845733 5.085394 -1.088446 0
M  V30 16 O 0.946221 5.472128 -2.473421 0
M  V30 17 C 1.585629 2.699629 -2.251033 0
M  V30 18 C 1.843666 1.331992 -2.099406 0
M  V30 19 C 1.048665 0.518410 -1.328579 0
M  V30 20 C 1.346731 -0.816629 -1.213816 0
M  V30 21 C 2.424854 -1.370325 -1.852746 0
M  V30 22 N 2.700577 -2.700775 -1.724152 0
M  V30 23 C 1.860721 -3.439172 -0.938777 0
M  V30 24 N 0.806793 -2.879611 -0.318835 0
M  V30 25 C 0.499976 -1.573694 -0.419181 0
M  V30 26 C -1.607187 -2.970573 3.232322 0
M  V30 27 H -3.091689 -5.615869 6.564058 0
M  V30 28 H 0.029021 -2.391332 6.116489 0
M  V30 29 H 1.191081 -0.723934 4.639410 0
M  V30 30 H 0.556121 -0.499538 2.259407 0
M  V30 31 H -2.149929 -2.523934 0.670387 0
M  V30 32 H -1.199671 2.865485 -0.292083 0
M  V30 33 H 0.900648 6.475072 -2.367819 0
M  V30 34 H 2.206261 3.364612 -2.860020 0
M  V30 35 H 2.715618 1.030412 -2.651833 0
M  V30 36 H 3.105979 -0.844695 -2.471104 0
M  V30 37 H 2.087346 -4.492079 -0.843267 0
M  V30 38 H -2.397282 -3.594703 2.805672 0
M  V30 END ATOM
M  V30 BEGIN BOND
M  V30 1 3 1 2
M  V30 2 1 2 3
M  V30 3 2 3 4
M  V30 4 1 4 5
M  V30 5 2 5 6
M  V30 6 1 6 7
M  V30 7 1 7 8
M  V30 8 1 8 9
M  V30 9 2 9 10
M  V30 10 1 10 11
M  V30 11 2 11 12
M  V30 12 1 12 13
M  V30 13 1 13 14
M  V30 14 2 14 15
M  V30 15 1 14 16
M  V30 16 2 13 17
M  V30 17 1 17 18
M  V30 18 2 18 19
M  V30 19 1 19 20
M  V30 20 2 20 21
M  V30 21 1 21 22
M  V30 22 2 22 23
M  V30 23 1 23 24
M  V30 24 2 24 25
M  V30 25 2 7 26
M  V30 26 1 26 3
M  V30 27 1 25 9
M  V30 28 1 19 11
M  V30 29 1 25 20
M  V30 30 1 1 27
M  V30 31 1 4 28
M  V30 32 1 5 29
M  V30 33 1 6 30
M  V30 34 1 8 31
M  V30 35 1 12 32
M  V30 36 1 16 33
M  V30 37 1 17 34
M  V30 38 1 18 35
M  V30 39 1 21 36
M  V30 40 1 23 37
M  V30 41 1 26 38
M  V30 END BOND
M  V30 END CTAB
M  END
>  <Dataset>  (279) 
ChEMBL_Kinases

>  <Ligand_Instance>  (279) 
nan

>  <PDB_ID>  (279) 
nan

>  <Standardized_SMILES>  (279) 
C#Cc1cccc(Nc2nc3cc(C(=O)O)ccc3c3cncnc23)c1

>  <Name>  (279) 
nan

>  <Pocket>  (279) 
nan

>  <ATP_Site>  (279) 
nan

>  <Peripheral>  (279) 
nan

>  <Num_H_Atoms_ProtBoundConf>  (279) 
nan

>  <Num_Resolved_Atoms>  (279) 
nan

>  <Num_Not_Resolved_Atoms>  (279) 
nan

$$$$
CHEMBL1682284
     RDKit          3D

  0  0  0  0  0  0  0  0  0  0999 V3000
M  V30 BEGIN CTAB
M  V30 COUNTS 39 42 0 0 0
M  V30 BEGIN ATOM
M  V30 1 C 1.416241 -8.034113 0.682823 0
M  V30 2 C 1.408085 -6.828038 0.832838 0
M  V30 3 C 1.395023 -5.402761 1.003972 0
M  V30 4 C 2.446574 -4.789479 1.653786 0
M  V30 5 C 2.438797 -3.407614 1.822578 0
M  V30 6 C 1.374910 -2.681415 1.333788 0
M  V30 7 C 0.318529 -3.259954 0.685689 0
M  V30 8 N -0.774939 -2.479836 0.187733 0
M  V30 9 C -0.677828 -1.078489 0.415199 0
M  V30 10 N -0.095805 -0.208904 -0.453284 0
M  V30 11 C -0.039237 1.120553 -0.167526 0
M  V30 12 C 0.577804 1.939698 -1.118846 0
M  V30 13 C 0.640806 3.287895 -0.839713 0
M  V30 14 C 1.281571 4.171304 -1.817871 0
M  V30 15 N 1.364753 5.580337 -1.558429 0
M  V30 16 O 1.739157 3.629889 -2.866488 0
M  V30 17 C 0.117607 3.832551 0.335562 0
M  V30 18 C -0.483732 3.005307 1.253942 0
M  V30 19 C -0.550727 1.673848 0.987555 0
M  V30 20 C -1.134160 0.816074 1.862379 0
M  V30 21 C -1.664876 1.293678 3.032846 0
M  V30 22 N -2.241994 0.426750 3.893153 0
M  V30 23 C -2.290635 -0.891616 3.595266 0
M  V30 24 N -1.769946 -1.372248 2.443413 0
M  V30 25 C -1.196407 -0.530854 1.582338 0
M  V30 26 C 0.335583 -4.647607 0.521211 0
M  V30 27 H 1.417453 -9.096125 0.537496 0
M  V30 28 H 3.277087 -5.360009 2.034974 0
M  V30 29 H 3.266095 -2.916834 2.334836 0
M  V30 30 H 1.409108 -1.602953 1.487339 0
M  V30 31 H -1.552819 -2.973387 -0.297255 0
M  V30 32 H 0.985254 1.518624 -2.033626 0
M  V30 33 H 0.723615 6.326891 -1.941194 0
M  V30 34 H 0.697250 6.284578 -1.967153 0
M  V30 35 H 0.214255 4.916002 0.470881 0
M  V30 36 H -0.848169 3.506191 2.108562 0
M  V30 37 H -1.687300 2.301317 3.376145 0
M  V30 38 H -2.767236 -1.566830 4.318155 0
M  V30 39 H -0.482787 -5.143224 0.013040 0
M  V30 END ATOM
M  V30 BEGIN BOND
M  V30 1 3 1 2
M  V30 2 1 2 3
M  V30 3 2 3 4
M  V30 4 1 4 5
M  V30 5 2 5 6
M  V30 6 1 6 7
M  V30 7 1 7 8
M  V30 8 1 8 9
M  V30 9 2 9 10
M  V30 10 1 10 11
M  V30 11 2 11 12
M  V30 12 1 12 13
M  V30 13 1 13 14
M  V30 14 1 14 15
M  V30 15 2 14 16
M  V30 16 2 13 17
M  V30 17 1 17 18
M  V30 18 2 18 19
M  V30 19 1 19 20
M  V30 20 2 20 21
M  V30 21 1 21 22
M  V30 22 2 22 23
M  V30 23 1 23 24
M  V30 24 2 24 25
M  V30 25 2 7 26
M  V30 26 1 26 3
M  V30 27 1 25 9
M  V30 28 1 19 11
M  V30 29 1 25 20
M  V30 30 1 1 27
M  V30 31 1 4 28
M  V30 32 1 5 29
M  V30 33 1 6 30
M  V30 34 1 8 31
M  V30 35 1 12 32
M  V30 36 1 15 33
M  V30 37 1 15 34
M  V30 38 1 17 35
M  V30 39 1 18 36
M  V30 40 1 21 37
M  V30 41 1 23 38
M  V30 42 1 26 39
M  V30 END BOND
M  V30 END CTAB
M  END
>  <Dataset>  (280) 
ChEMBL_Kinases

>  <Ligand_Instance>  (280) 
nan

>  <PDB_ID>  (280) 
nan

>  <Standardized_SMILES>  (280) 
C#Cc1cccc(Nc2nc3cc(C(N)=O)ccc3c3cncnc23)c1

>  <Name>  (280) 
nan

>  <Pocket>  (280) 
nan

>  <ATP_Site>  (280) 
nan

>  <Peripheral>  (280) 
nan

>  <Num_H_Atoms_ProtBoundConf>  (280) 
nan

>  <Num_Resolved_Atoms>  (280) 
nan

>  <Num_Not_Resolved_Atoms>  (280) 
nan

$$$$
CHEMBL1682285
     RDKit          3D

  0  0  0  0  0  0  0  0  0  0999 V3000
M  V30 BEGIN CTAB
M  V30 COUNTS 39 42 0 0 0
M  V30 BEGIN ATOM
M  V30 1 O 5.317596 -1.992947 1.723380 0
M  V30 2 C 4.615107 -2.928771 1.272344 0
M  V30 3 O 5.195188 -4.184504 1.361693 0
M  V30 4 C 3.300568 -2.836421 0.685534 0
M  V30 5 C 2.529124 -3.896785 0.204448 0
M  V30 6 C 1.295467 -3.595584 -0.330023 0
M  V30 7 C 0.790210 -2.321561 -0.413443 0
M  V30 8 C 1.570540 -1.293443 0.068382 0
M  V30 9 C 2.815843 -1.522239 0.617176 0
M  V30 10 N 1.088949 -0.045670 -0.022764 0
M  V30 11 C -0.096430 0.290452 -0.547273 0
M  V30 12 N -0.382764 1.676153 -0.578664 0
M  V30 13 C -0.649221 2.107174 0.771764 0
M  V30 14 C -0.109321 3.346831 1.145887 0
M  V30 15 C -0.276609 3.898225 2.397626 0
M  V30 16 C -1.013991 3.195203 3.329528 0
M  V30 17 C -1.564979 1.975242 3.008403 0
M  V30 18 C -2.390840 1.071157 3.851195 0
M  V30 19 F -2.330555 1.408791 5.196989 0
M  V30 20 F -3.679588 0.942883 3.382649 0
M  V30 21 F -1.807793 -0.195711 3.757393 0
M  V30 22 C -1.376884 1.442630 1.729623 0
M  V30 23 C -0.853497 -0.747451 -1.019005 0
M  V30 24 N -2.046174 -0.494384 -1.574793 0
M  V30 25 C -2.832570 -1.462923 -2.067930 0
M  V30 26 N -2.388239 -2.730586 -1.993772 0
M  V30 27 C -1.200628 -3.085515 -1.453253 0
M  V30 28 C -0.434750 -2.059553 -0.963818 0
M  V30 29 H 5.968893 -4.360439 1.978476 0
M  V30 30 H 2.999064 -4.839657 0.307750 0
M  V30 31 H 0.770073 -4.464414 -0.669821 0
M  V30 32 H 3.348771 -0.655289 0.964675 0
M  V30 33 H -0.436324 2.372774 -1.340663 0
M  V30 34 H 0.483137 3.946014 0.467451 0
M  V30 35 H 0.112884 4.841614 2.755811 0
M  V30 36 H -1.238070 3.486173 4.374510 0
M  V30 37 H -1.755588 0.490140 1.337348 0
M  V30 38 H -3.810397 -1.289683 -2.525113 0
M  V30 39 H -0.939240 -4.128732 -1.443587 0
M  V30 END ATOM
M  V30 BEGIN BOND
M  V30 1 2 1 2
M  V30 2 1 2 3
M  V30 3 1 2 4
M  V30 4 2 4 5
M  V30 5 1 5 6
M  V30 6 2 6 7
M  V30 7 1 7 8
M  V30 8 2 8 9
M  V30 9 1 8 10
M  V30 10 2 10 11
M  V30 11 1 11 12
M  V30 12 1 12 13
M  V30 13 2 13 14
M  V30 14 1 14 15
M  V30 15 2 15 16
M  V30 16 1 16 17
M  V30 17 1 17 18
M  V30 18 1 18 19
M  V30 19 1 18 20
M  V30 20 1 18 21
M  V30 21 2 17 22
M  V30 22 1 11 23
M  V30 23 2 23 24
M  V30 24 1 24 25
M  V30 25 2 25 26
M  V30 26 1 26 27
M  V30 27 2 27 28
M  V30 28 1 9 4
M  V30 29 1 22 13
M  V30 30 1 28 23
M  V30 31 1 28 7
M  V30 32 1 3 29
M  V30 33 1 5 30
M  V30 34 1 6 31
M  V30 35 1 9 32
M  V30 36 1 12 33
M  V30 37 1 14 34
M  V30 38 1 15 35
M  V30 39 1 16 36
M  V30 40 1 22 37
M  V30 41 1 25 38
M  V30 42 1 27 39
M  V30 END BOND
M  V30 END CTAB
M  END
>  <Dataset>  (281) 
ChEMBL_Kinases

>  <Ligand_Instance>  (281) 
nan

>  <PDB_ID>  (281) 
nan

>  <Standardized_SMILES>  (281) 
O=C(O)c1ccc2c(c1)nc(Nc1cccc(C(F)(F)F)c1)c1ncncc12

>  <Name>  (281) 
nan

>  <Pocket>  (281) 
nan

>  <ATP_Site>  (281) 
nan

>  <Peripheral>  (281) 
nan

>  <Num_H_Atoms_ProtBoundConf>  (281) 
nan

>  <Num_Resolved_Atoms>  (281) 
nan

>  <Num_Not_Resolved_Atoms>  (281) 
nan

$$$$
CHEMBL1682286
     RDKit          3D

  0  0  0  0  0  0  0  0  0  0999 V3000
M  V30 BEGIN CTAB
M  V30 COUNTS 39 42 0 0 0
M  V30 BEGIN ATOM
M  V30 1 C 4.093604 -3.535535 2.567949 0
M  V30 2 C 2.690529 -3.210016 2.199913 0
M  V30 3 N 1.703935 -4.121167 2.365809 0
M  V30 4 C 0.434565 -3.789283 2.018930 0
M  V30 5 C 0.138772 -2.548442 1.504684 0
M  V30 6 C 1.150970 -1.633623 1.341924 0
M  V30 7 N 2.410096 -1.994760 1.697897 0
M  V30 8 C 0.950252 -0.359763 0.832108 0
M  V30 9 N 2.036383 0.538044 0.688673 0
M  V30 10 C 2.010806 1.863214 0.190556 0
M  V30 11 C 0.900848 2.541918 -0.257479 0
M  V30 12 C 0.891486 3.821668 -0.735814 0
M  V30 13 C 2.089583 4.503187 -0.778943 0
M  V30 14 C 3.235281 3.876666 -0.344058 0
M  V30 15 Cl 4.757118 4.738331 -0.397332 0
M  V30 16 C 3.168470 2.598648 0.120234 0
M  V30 17 N -0.321592 -0.117711 0.518266 0
M  V30 18 C -1.346881 -0.970308 0.655544 0
M  V30 19 C -2.620745 -0.577105 0.285038 0
M  V30 20 C -3.649075 -1.495532 0.446297 0
M  V30 21 C -5.014712 -1.132459 0.070890 0
M  V30 22 O -5.991709 -1.918996 0.192026 0
M  V30 23 O -5.292568 0.126614 -0.446942 0
M  V30 24 C -3.437168 -2.770400 0.958454 0
M  V30 25 C -2.155890 -3.142130 1.322266 0
M  V30 26 C -1.142224 -2.228061 1.160051 0
M  V30 27 H 4.220113 -4.631362 2.657450 0
M  V30 28 H 4.785174 -3.083783 1.825852 0
M  V30 29 H 4.280419 -3.060607 3.563337 0
M  V30 30 H -0.244056 -4.579089 2.193785 0
M  V30 31 H 2.978421 0.175805 0.989247 0
M  V30 32 H -0.052199 2.059286 -0.245335 0
M  V30 33 H -0.010857 4.310586 -1.076642 0
M  V30 34 H 2.121001 5.515537 -1.150505 0
M  V30 35 H 4.117505 2.154688 0.452522 0
M  V30 36 H -2.786715 0.413620 -0.113196 0
M  V30 37 H -6.170157 0.612852 -0.301731 0
M  V30 38 H -4.283648 -3.451592 1.063322 0
M  V30 39 H -2.058172 -4.139746 1.711065 0
M  V30 END ATOM
M  V30 BEGIN BOND
M  V30 1 1 1 2
M  V30 2 2 2 3
M  V30 3 1 3 4
M  V30 4 2 4 5
M  V30 5 1 5 6
M  V30 6 2 6 7
M  V30 7 1 6 8
M  V30 8 1 8 9
M  V30 9 1 9 10
M  V30 10 2 10 11
M  V30 11 1 11 12
M  V30 12 2 12 13
M  V30 13 1 13 14
M  V30 14 1 14 15
M  V30 15 2 14 16
M  V30 16 2 8 17
M  V30 17 1 17 18
M  V30 18 2 18 19
M  V30 19 1 19 20
M  V30 20 1 20 21
M  V30 21 2 21 22
M  V30 22 1 21 23
M  V30 23 2 20 24
M  V30 24 1 24 25
M  V30 25 2 25 26
M  V30 26 1 7 2
M  V30 27 1 16 10
M  V30 28 1 26 18
M  V30 29 1 26 5
M  V30 30 1 1 27
M  V30 31 1 1 28
M  V30 32 1 1 29
M  V30 33 1 4 30
M  V30 34 1 9 31
M  V30 35 1 11 32
M  V30 36 1 12 33
M  V30 37 1 13 34
M  V30 38 1 16 35
M  V30 39 1 19 36
M  V30 40 1 23 37
M  V30 41 1 24 38
M  V30 42 1 25 39
M  V30 END BOND
M  V30 END CTAB
M  END
>  <Dataset>  (282) 
ChEMBL_Kinases

>  <Ligand_Instance>  (282) 
nan

>  <PDB_ID>  (282) 
nan

>  <Standardized_SMILES>  (282) 
Cc1ncc2c(n1)c(Nc1cccc(Cl)c1)nc1cc(C(=O)O)ccc12

>  <Name>  (282) 
nan

>  <Pocket>  (282) 
nan

>  <ATP_Site>  (282) 
nan

>  <Peripheral>  (282) 
nan

>  <Num_H_Atoms_ProtBoundConf>  (282) 
nan

>  <Num_Resolved_Atoms>  (282) 
nan

>  <Num_Not_Resolved_Atoms>  (282) 
nan

$$$$
CHEMBL1682287
     RDKit          3D

  0  0  0  0  0  0  0  0  0  0999 V3000
M  V30 BEGIN CTAB
M  V30 COUNTS 38 41 0 0 0
M  V30 BEGIN ATOM
M  V30 1 N 1.550169 -4.067657 4.547037 0
M  V30 2 C 0.911203 -3.528338 3.395929 0
M  V30 3 N 0.045447 -4.299400 2.688349 0
M  V30 4 C -0.599051 -3.870976 1.591381 0
M  V30 5 C -0.392514 -2.590126 1.136058 0
M  V30 6 C 0.479923 -1.791405 1.837338 0
M  V30 7 N 1.072567 -2.306649 2.914958 0
M  V30 8 C 0.762372 -0.494169 1.468433 0
M  V30 9 N 1.683556 0.325635 2.176552 0
M  V30 10 C 2.000204 1.689689 1.926892 0
M  V30 11 C 1.083982 2.470525 1.243908 0
M  V30 12 C 1.411522 3.799088 0.980719 0
M  V30 13 C 2.616317 4.397779 1.366920 0
M  V30 14 C 3.431884 3.503661 2.038384 0
M  V30 15 Cl 4.981096 4.190478 2.554106 0
M  V30 16 C 3.221216 2.185596 2.353780 0
M  V30 17 N 0.093830 -0.103987 0.354181 0
M  V30 18 C -0.750865 -0.855375 -0.338312 0
M  V30 19 C -1.354112 -0.302454 -1.469831 0
M  V30 20 C -2.219928 -1.114141 -2.166140 0
M  V30 21 C -2.819698 -0.508491 -3.347751 0
M  V30 22 O -2.531074 0.679632 -3.652678 0
M  V30 23 O -3.711848 -0.999020 -4.285168 0
M  V30 24 C -2.500419 -2.411019 -1.792414 0
M  V30 25 C -1.903039 -2.953403 -0.674306 0
M  V30 26 C -1.041149 -2.150585 0.020328 0
M  V30 27 H 2.586267 -4.061955 4.333245 0
M  V30 28 H 0.782170 -4.294906 5.228257 0
M  V30 29 H -1.242834 -4.605829 1.152690 0
M  V30 30 H 2.177785 -0.149357 2.970266 0
M  V30 31 H 0.114770 2.161913 0.886786 0
M  V30 32 H 0.696272 4.442005 0.435952 0
M  V30 33 H 2.873007 5.413547 1.172265 0
M  V30 34 H 3.949433 1.608911 2.884659 0
M  V30 35 H -1.116372 0.717260 -1.740911 0
M  V30 36 H -3.537849 -1.055553 -5.277524 0
M  V30 37 H -3.185896 -2.925880 -2.422707 0
M  V30 38 H -2.143624 -3.966177 -0.409452 0
M  V30 END ATOM
M  V30 BEGIN BOND
M  V30 1 1 1 2
M  V30 2 2 2 3
M  V30 3 1 3 4
M  V30 4 2 4 5
M  V30 5 1 5 6
M  V30 6 2 6 7
M  V30 7 1 6 8
M  V30 8 1 8 9
M  V30 9 1 9 10
M  V30 10 2 10 11
M  V30 11 1 11 12
M  V30 12 2 12 13
M  V30 13 1 13 14
M  V30 14 1 14 15
M  V30 15 2 14 16
M  V30 16 2 8 17
M  V30 17 1 17 18
M  V30 18 2 18 19
M  V30 19 1 19 20
M  V30 20 1 20 21
M  V30 21 2 21 22
M  V30 22 1 21 23
M  V30 23 2 20 24
M  V30 24 1 24 25
M  V30 25 2 25 26
M  V30 26 1 7 2
M  V30 27 1 16 10
M  V30 28 1 26 18
M  V30 29 1 26 5
M  V30 30 1 1 27
M  V30 31 1 1 28
M  V30 32 1 4 29
M  V30 33 1 9 30
M  V30 34 1 11 31
M  V30 35 1 12 32
M  V30 36 1 13 33
M  V30 37 1 16 34
M  V30 38 1 19 35
M  V30 39 1 23 36
M  V30 40 1 24 37
M  V30 41 1 25 38
M  V30 END BOND
M  V30 END CTAB
M  END
>  <Dataset>  (283) 
ChEMBL_Kinases

>  <Ligand_Instance>  (283) 
nan

>  <PDB_ID>  (283) 
nan

>  <Standardized_SMILES>  (283) 
Nc1ncc2c(n1)c(Nc1cccc(Cl)c1)nc1cc(C(=O)O)ccc12

>  <Name>  (283) 
nan

>  <Pocket>  (283) 
nan

>  <ATP_Site>  (283) 
nan

>  <Peripheral>  (283) 
nan

>  <Num_H_Atoms_ProtBoundConf>  (283) 
nan

>  <Num_Resolved_Atoms>  (283) 
nan

>  <Num_Not_Resolved_Atoms>  (283) 
nan

$$$$
CHEMBL1682288
     RDKit          3D

  0  0  0  0  0  0  0  0  0  0999 V3000
M  V30 BEGIN CTAB
M  V30 COUNTS 41 44 0 0 0
M  V30 BEGIN ATOM
M  V30 1 C 4.774048 -3.004586 1.250682 0
M  V30 2 N 3.743283 -3.261644 0.248418 0
M  V30 3 C 2.390980 -2.814390 0.404141 0
M  V30 4 N 1.548385 -3.658018 1.027280 0
M  V30 5 C 0.252004 -3.342165 1.227527 0
M  V30 6 C -0.193342 -2.123880 0.774849 0
M  V30 7 C 0.666077 -1.253305 0.134699 0
M  V30 8 N 1.956835 -1.601976 -0.048732 0
M  V30 9 C 0.220835 -0.026597 -0.317411 0
M  V30 10 N 1.063653 0.891135 -0.981340 0
M  V30 11 C 1.903710 1.845573 -0.312772 0
M  V30 12 C 2.678426 2.754109 -1.001576 0
M  V30 13 C 3.474757 3.644222 -0.312154 0
M  V30 14 C 3.462260 3.588965 1.065540 0
M  V30 15 C 2.695474 2.688626 1.812179 0
M  V30 16 Cl 2.770814 2.719560 3.562975 0
M  V30 17 C 1.923200 1.826497 1.063209 0
M  V30 18 N -1.072017 0.291591 -0.114701 0
M  V30 19 C -1.947625 -0.528496 0.505974 0
M  V30 20 C -3.270658 -0.188279 0.706373 0
M  V30 21 C -4.164202 -1.024265 1.339190 0
M  V30 22 C -5.556797 -0.647982 1.540505 0
M  V30 23 O -6.103621 0.415997 1.189059 0
M  V30 24 O -6.438157 -1.507663 2.183972 0
M  V30 25 C -3.727006 -2.246535 1.791674 0
M  V30 26 C -2.384131 -2.609486 1.596466 0
M  V30 27 C -1.507648 -1.769962 0.966454 0
M  V30 28 H 5.724167 -3.465313 0.916978 0
M  V30 29 H 4.890964 -1.927975 1.439054 0
M  V30 30 H 4.410177 -3.510447 2.189551 0
M  V30 31 H 3.865359 -3.779830 -0.653309 0
M  V30 32 H -0.321732 -4.072152 1.725622 0
M  V30 33 H 1.089861 0.888140 -2.020890 0
M  V30 34 H 2.661071 2.769271 -2.095970 0
M  V30 35 H 4.097689 4.372466 -0.812005 0
M  V30 36 H 4.098892 4.303908 1.593549 0
M  V30 37 H 1.337461 1.138228 1.673265 0
M  V30 38 H -3.588181 0.782027 0.341676 0
M  V30 39 H -7.272856 -1.204218 2.691446 0
M  V30 40 H -4.441162 -2.888127 2.285343 0
M  V30 41 H -2.158407 -3.559074 1.978292 0
M  V30 END ATOM
M  V30 BEGIN BOND
M  V30 1 1 1 2
M  V30 2 1 2 3
M  V30 3 2 3 4
M  V30 4 1 4 5
M  V30 5 2 5 6
M  V30 6 1 6 7
M  V30 7 2 7 8
M  V30 8 1 7 9
M  V30 9 1 9 10
M  V30 10 1 10 11
M  V30 11 2 11 12
M  V30 12 1 12 13
M  V30 13 2 13 14
M  V30 14 1 14 15
M  V30 15 1 15 16
M  V30 16 2 15 17
M  V30 17 2 9 18
M  V30 18 1 18 19
M  V30 19 2 19 20
M  V30 20 1 20 21
M  V30 21 1 21 22
M  V30 22 2 22 23
M  V30 23 1 22 24
M  V30 24 2 21 25
M  V30 25 1 25 26
M  V30 26 2 26 27
M  V30 27 1 8 3
M  V30 28 1 17 11
M  V30 29 1 27 19
M  V30 30 1 27 6
M  V30 31 1 1 28
M  V30 32 1 1 29
M  V30 33 1 1 30
M  V30 34 1 2 31
M  V30 35 1 5 32
M  V30 36 1 10 33
M  V30 37 1 12 34
M  V30 38 1 13 35
M  V30 39 1 14 36
M  V30 40 1 17 37
M  V30 41 1 20 38
M  V30 42 1 24 39
M  V30 43 1 25 40
M  V30 44 1 26 41
M  V30 END BOND
M  V30 END CTAB
M  END
>  <Dataset>  (284) 
ChEMBL_Kinases

>  <Ligand_Instance>  (284) 
nan

>  <PDB_ID>  (284) 
nan

>  <Standardized_SMILES>  (284) 
CNc1ncc2c(n1)c(Nc1cccc(Cl)c1)nc1cc(C(=O)O)ccc12

>  <Name>  (284) 
nan

>  <Pocket>  (284) 
nan

>  <ATP_Site>  (284) 
nan

>  <Peripheral>  (284) 
nan

>  <Num_H_Atoms_ProtBoundConf>  (284) 
nan

>  <Num_Resolved_Atoms>  (284) 
nan

>  <Num_Not_Resolved_Atoms>  (284) 
nan

$$$$
CHEMBL1682838
     RDKit          3D

  0  0  0  0  0  0  0  0  0  0999 V3000
M  V30 BEGIN CTAB
M  V30 COUNTS 37 38 0 0 0
M  V30 BEGIN ATOM
M  V30 1 C -1.342057 -0.990956 2.329566 0
M  V30 2 C -0.867620 -2.351173 1.944942 0
M  V30 3 N 0.375662 -2.339356 1.149028 0
M  V30 4 C 0.719611 -3.739353 0.853928 0
M  V30 5 C 1.093077 -4.435231 2.152815 0
M  V30 6 C 0.824622 -0.996902 0.929543 0
M  V30 7 C 0.117310 -0.361479 -0.070155 0
M  V30 8 C 0.386692 0.946968 -0.420923 0
M  V30 9 C -0.248563 1.782796 -1.427284 0
M  V30 10 C -1.293862 1.254240 -2.179902 0
M  V30 11 C -1.952486 1.996266 -3.146087 0
M  V30 12 N -1.534493 3.277034 -3.334747 0
M  V30 13 C -0.508607 3.770890 -2.585261 0
M  V30 14 N 0.128847 3.053802 -1.650428 0
M  V30 15 C 1.404878 1.535337 0.308755 0
M  V30 16 C 2.102787 0.890771 1.302753 0
M  V30 17 O 3.014718 1.406258 1.962159 0
M  V30 18 N 1.802260 -0.384500 1.607747 0
M  V30 19 C 2.501885 -1.141649 2.632500 0
M  V30 20 H -2.083236 -0.553593 1.614276 0
M  V30 21 H -0.453775 -0.319938 2.420576 0
M  V30 22 H -1.820483 -1.020889 3.328160 0
M  V30 23 H -1.627968 -2.762551 1.227464 0
M  V30 24 H -0.794189 -3.073975 2.780055 0
M  V30 25 H -0.169814 -4.239790 0.442456 0
M  V30 26 H 1.534995 -3.817770 0.102788 0
M  V30 27 H 2.054453 -4.968584 2.061755 0
M  V30 28 H 0.267954 -5.109432 2.517930 0
M  V30 29 H 1.205183 -3.693334 2.987054 0
M  V30 30 H -0.695938 -0.814039 -0.666441 0
M  V30 31 H -1.676117 0.264173 -2.087318 0
M  V30 32 H -2.777850 1.603789 -3.750247 0
M  V30 33 H -0.138449 4.782922 -2.696782 0
M  V30 34 H 1.720396 2.556956 0.145539 0
M  V30 35 H 3.482879 -0.605564 2.836650 0
M  V30 36 H 2.865782 -2.137801 2.238887 0
M  V30 37 H 1.979166 -1.220767 3.581218 0
M  V30 END ATOM
M  V30 BEGIN BOND
M  V30 1 1 1 2
M  V30 2 1 2 3
M  V30 3 1 3 4
M  V30 4 1 4 5
M  V30 5 1 3 6
M  V30 6 2 6 7
M  V30 7 1 7 8
M  V30 8 1 8 9
M  V30 9 2 9 10
M  V30 10 1 10 11
M  V30 11 2 11 12
M  V30 12 1 12 13
M  V30 13 2 13 14
M  V30 14 2 8 15
M  V30 15 1 15 16
M  V30 16 2 16 17
M  V30 17 1 16 18
M  V30 18 1 18 19
M  V30 19 1 18 6
M  V30 20 1 14 9
M  V30 21 1 1 20
M  V30 22 1 1 21
M  V30 23 1 1 22
M  V30 24 1 2 23
M  V30 25 1 2 24
M  V30 26 1 4 25
M  V30 27 1 4 26
M  V30 28 1 5 27
M  V30 29 1 5 28
M  V30 30 1 5 29
M  V30 31 1 7 30
M  V30 32 1 10 31
M  V30 33 1 11 32
M  V30 34 1 13 33
M  V30 35 1 15 34
M  V30 36 1 19 35
M  V30 37 1 19 36
M  V30 38 1 19 37
M  V30 END BOND
M  V30 END CTAB
M  END
>  <Dataset>  (285) 
ChEMBL_Kinases

>  <Ligand_Instance>  (285) 
nan

>  <PDB_ID>  (285) 
nan

>  <Standardized_SMILES>  (285) 
CCN(CC)c1cc(-c2ccncn2)cc(=O)n1C

>  <Name>  (285) 
nan

>  <Pocket>  (285) 
nan

>  <ATP_Site>  (285) 
nan

>  <Peripheral>  (285) 
nan

>  <Num_H_Atoms_ProtBoundConf>  (285) 
nan

>  <Num_Resolved_Atoms>  (285) 
nan

>  <Num_Not_Resolved_Atoms>  (285) 
nan

$$$$
CHEMBL1682291
     RDKit          3D

  0  0  0  0  0  0  0  0  0  0999 V3000
M  V30 BEGIN CTAB
M  V30 COUNTS 47 50 0 0 0
M  V30 BEGIN ATOM
M  V30 1 C 2.990973 -1.930430 -0.658187 0
M  V30 2 C 3.629851 -2.139659 0.694920 0
M  V30 3 C 3.169668 -3.518975 1.186158 0
M  V30 4 N 3.161700 -1.149241 1.650034 0
M  V30 5 C 1.741679 -1.257974 1.724791 0
M  V30 6 N 1.055466 -2.178210 2.422661 0
M  V30 7 C -0.317673 -2.169685 2.427686 0
M  V30 8 C -0.931492 -1.190768 1.696803 0
M  V30 9 C -0.228709 -0.235787 0.973664 0
M  V30 10 N 1.108788 -0.311345 1.018954 0
M  V30 11 C -0.874672 0.739543 0.240256 0
M  V30 12 N -0.167269 1.748347 -0.481598 0
M  V30 13 C 1.213857 2.037903 -0.415774 0
M  V30 14 C 1.681617 2.335533 0.870410 0
M  V30 15 C 2.986723 2.624973 1.208968 0
M  V30 16 C 3.898272 2.614284 0.159631 0
M  V30 17 C 3.475482 2.324808 -1.131694 0
M  V30 18 Cl 4.627703 2.307374 -2.459979 0
M  V30 19 C 2.158085 2.040084 -1.425095 0
M  V30 20 N -2.206613 0.753481 0.233126 0
M  V30 21 C -2.905884 -0.170473 0.933066 0
M  V30 22 C -4.279675 -0.073105 0.867118 0
M  V30 23 C -4.980842 -1.019369 1.587335 0
M  V30 24 C -6.425489 -0.941918 1.546206 0
M  V30 25 O -7.275569 -1.703727 2.127812 0
M  V30 26 O -7.305377 -0.095131 0.922552 0
M  V30 27 C -4.443260 -2.034153 2.351747 0
M  V30 28 C -3.046435 -2.088949 2.384575 0
M  V30 29 C -2.288048 -1.173930 1.688276 0
M  V30 30 H 1.884281 -1.899658 -0.562842 0
M  V30 31 H 3.420086 -1.092798 -1.235864 0
M  V30 32 H 3.218763 -2.860096 -1.247125 0
M  V30 33 H 4.732379 -2.100525 0.584002 0
M  V30 34 H 2.152697 -3.765095 0.812831 0
M  V30 35 H 3.229628 -3.569069 2.298786 0
M  V30 36 H 3.846317 -4.301558 0.790340 0
M  V30 37 H 3.817030 -0.519630 2.137065 0
M  V30 38 H -0.732450 -2.938672 3.014237 0
M  V30 39 H -0.678642 2.365987 -1.146302 0
M  V30 40 H 1.004058 2.362442 1.738737 0
M  V30 41 H 3.300442 2.844394 2.204925 0
M  V30 42 H 4.927440 2.836240 0.385475 0
M  V30 43 H 1.754931 1.807724 -2.395120 0
M  V30 44 H -4.797770 0.685444 0.298172 0
M  V30 45 H -8.002951 -0.328360 0.236091 0
M  V30 46 H -5.065479 -2.741264 2.888391 0
M  V30 47 H -2.643532 -2.873276 2.975377 0
M  V30 END ATOM
M  V30 BEGIN BOND
M  V30 1 1 1 2
M  V30 2 1 2 3
M  V30 3 1 2 4
M  V30 4 1 4 5
M  V30 5 2 5 6
M  V30 6 1 6 7
M  V30 7 2 7 8
M  V30 8 1 8 9
M  V30 9 2 9 10
M  V30 10 1 9 11
M  V30 11 1 11 12
M  V30 12 1 12 13
M  V30 13 2 13 14
M  V30 14 1 14 15
M  V30 15 2 15 16
M  V30 16 1 16 17
M  V30 17 1 17 18
M  V30 18 2 17 19
M  V30 19 2 11 20
M  V30 20 1 20 21
M  V30 21 2 21 22
M  V30 22 1 22 23
M  V30 23 1 23 24
M  V30 24 2 24 25
M  V30 25 1 24 26
M  V30 26 2 23 27
M  V30 27 1 27 28
M  V30 28 2 28 29
M  V30 29 1 10 5
M  V30 30 1 19 13
M  V30 31 1 29 21
M  V30 32 1 29 8
M  V30 33 1 1 30
M  V30 34 1 1 31
M  V30 35 1 1 32
M  V30 36 1 2 33
M  V30 37 1 3 34
M  V30 38 1 3 35
M  V30 39 1 3 36
M  V30 40 1 4 37
M  V30 41 1 7 38
M  V30 42 1 12 39
M  V30 43 1 14 40
M  V30 44 1 15 41
M  V30 45 1 16 42
M  V30 46 1 19 43
M  V30 47 1 22 44
M  V30 48 1 26 45
M  V30 49 1 27 46
M  V30 50 1 28 47
M  V30 END BOND
M  V30 END CTAB
M  END
>  <Dataset>  (286) 
ChEMBL_Kinases

>  <Ligand_Instance>  (286) 
nan

>  <PDB_ID>  (286) 
nan

>  <Standardized_SMILES>  (286) 
CC(C)Nc1ncc2c(n1)c(Nc1cccc(Cl)c1)nc1cc(C(=O)O)ccc12

>  <Name>  (286) 
nan

>  <Pocket>  (286) 
nan

>  <ATP_Site>  (286) 
nan

>  <Peripheral>  (286) 
nan

>  <Num_H_Atoms_ProtBoundConf>  (286) 
nan

>  <Num_Resolved_Atoms>  (286) 
nan

>  <Num_Not_Resolved_Atoms>  (286) 
nan

$$$$
CHEMBL1682292
     RDKit          3D

  0  0  0  0  0  0  0  0  0  0999 V3000
M  V30 BEGIN CTAB
M  V30 COUNTS 45 49 0 0 0
M  V30 BEGIN ATOM
M  V30 1 O 3.536635 2.517020 -4.892611 0
M  V30 2 C 3.349471 2.459334 -3.649597 0
M  V30 3 O 4.119559 3.355110 -2.918801 0
M  V30 4 C 2.406856 1.533492 -3.029421 0
M  V30 5 C 1.692139 0.689069 -3.823503 0
M  V30 6 C 0.797623 -0.189566 -3.235259 0
M  V30 7 C 0.662848 -0.177772 -1.866731 0
M  V30 8 C 1.385881 0.676318 -1.064804 0
M  V30 9 C 2.276354 1.549012 -1.667876 0
M  V30 10 N 1.228174 0.659459 0.264480 0
M  V30 11 C 0.404299 -0.133419 0.951667 0
M  V30 12 N 0.215892 -0.176201 2.339063 0
M  V30 13 C 0.860597 0.615278 3.320114 0
M  V30 14 C 1.805647 1.586766 3.076386 0
M  V30 15 C 2.429199 2.353215 4.034110 0
M  V30 16 C 2.101651 2.155604 5.358805 0
M  V30 17 C 1.161154 1.195745 5.663303 0
M  V30 18 Cl 0.734902 0.932618 7.333961 0
M  V30 19 C 0.576811 0.465079 4.655157 0
M  V30 20 C -0.310440 -0.980719 0.132229 0
M  V30 21 N -1.193834 -1.849347 0.705095 0
M  V30 22 C -1.936287 -2.713875 -0.007378 0
M  V30 23 N -2.838594 -3.592109 0.657492 0
M  V30 24 C -2.929260 -3.525805 2.096103 0
M  V30 25 C -3.842541 -4.404767 2.857211 0
M  V30 26 C -2.412685 -4.798047 2.785341 0
M  V30 27 N -1.815807 -2.738821 -1.358678 0
M  V30 28 C -0.953448 -1.897644 -1.977976 0
M  V30 29 C -0.199277 -1.017614 -1.237779 0
M  V30 30 H 5.056689 3.660217 -3.192328 0
M  V30 31 H 1.826356 0.708150 -4.912709 0
M  V30 32 H 0.265350 -0.828463 -3.915675 0
M  V30 33 H 2.875512 2.247072 -1.089461 0
M  V30 34 H -0.475807 -0.864762 2.712741 0
M  V30 35 H 2.114711 1.801628 2.079557 0
M  V30 36 H 3.165461 3.104624 3.795599 0
M  V30 37 H 2.541424 2.709779 6.155638 0
M  V30 38 H -0.159086 -0.276450 4.978341 0
M  V30 39 H -3.414246 -4.262729 0.102443 0
M  V30 40 H -2.639238 -2.557473 2.551440 0
M  V30 41 H -4.183963 -4.019069 3.840242 0
M  V30 42 H -4.604559 -5.028373 2.355025 0
M  V30 43 H -2.184476 -5.682114 2.167770 0
M  V30 44 H -1.708431 -4.609642 3.615571 0
M  V30 45 H -0.960381 -2.022810 -3.024152 0
M  V30 END ATOM
M  V30 BEGIN BOND
M  V30 1 2 1 2
M  V30 2 1 2 3
M  V30 3 1 2 4
M  V30 4 2 4 5
M  V30 5 1 5 6
M  V30 6 2 6 7
M  V30 7 1 7 8
M  V30 8 2 8 9
M  V30 9 1 8 10
M  V30 10 2 10 11
M  V30 11 1 11 12
M  V30 12 1 12 13
M  V30 13 2 13 14
M  V30 14 1 14 15
M  V30 15 2 15 16
M  V30 16 1 16 17
M  V30 17 1 17 18
M  V30 18 2 17 19
M  V30 19 1 11 20
M  V30 20 2 20 21
M  V30 21 1 21 22
M  V30 22 1 22 23
M  V30 23 1 23 24
M  V30 24 1 24 25
M  V30 25 1 25 26
M  V30 26 2 22 27
M  V30 27 1 27 28
M  V30 28 2 28 29
M  V30 29 1 9 4
M  V30 30 1 19 13
M  V30 31 1 29 20
M  V30 32 1 29 7
M  V30 33 1 26 24
M  V30 34 1 3 30
M  V30 35 1 5 31
M  V30 36 1 6 32
M  V30 37 1 9 33
M  V30 38 1 12 34
M  V30 39 1 14 35
M  V30 40 1 15 36
M  V30 41 1 16 37
M  V30 42 1 19 38
M  V30 43 1 23 39
M  V30 44 1 24 40
M  V30 45 1 25 41
M  V30 46 1 25 42
M  V30 47 1 26 43
M  V30 48 1 26 44
M  V30 49 1 28 45
M  V30 END BOND
M  V30 END CTAB
M  END
>  <Dataset>  (287) 
ChEMBL_Kinases

>  <Ligand_Instance>  (287) 
nan

>  <PDB_ID>  (287) 
nan

>  <Standardized_SMILES>  (287) 
O=C(O)c1ccc2c(c1)nc(Nc1cccc(Cl)c1)c1nc(NC3CC3)ncc12

>  <Name>  (287) 
nan

>  <Pocket>  (287) 
nan

>  <ATP_Site>  (287) 
nan

>  <Peripheral>  (287) 
nan

>  <Num_H_Atoms_ProtBoundConf>  (287) 
nan

>  <Num_Resolved_Atoms>  (287) 
nan

>  <Num_Not_Resolved_Atoms>  (287) 
nan

$$$$
CHEMBL1682293
     RDKit          3D

  0  0  0  0  0  0  0  0  0  0999 V3000
M  V30 BEGIN CTAB
M  V30 COUNTS 45 49 0 0 0
M  V30 BEGIN ATOM
M  V30 1 O 6.520883 -0.777871 -2.053306 0
M  V30 2 C 6.048878 -1.748028 -1.405613 0
M  V30 3 O 6.929818 -2.804744 -1.211524 0
M  V30 4 C 4.683575 -1.782540 -0.888238 0
M  V30 5 C 4.228632 -2.877104 -0.186201 0
M  V30 6 C 2.933884 -2.905068 0.302208 0
M  V30 7 C 2.142568 -1.812194 0.057958 0
M  V30 8 C 2.580230 -0.707194 -0.642840 0
M  V30 9 C 3.874937 -0.689643 -1.126148 0
M  V30 10 N 1.815274 0.372256 -0.890160 0
M  V30 11 C 0.538089 0.436386 -0.453190 0
M  V30 12 N -0.333325 1.547873 -0.677033 0
M  V30 13 C -0.375934 2.609766 0.268871 0
M  V30 14 C 0.420466 2.552260 1.383198 0
M  V30 15 C 0.425662 3.545248 2.334097 0
M  V30 16 C -0.421553 4.610754 2.102711 0
M  V30 17 C -1.238481 4.703232 0.991464 0
M  V30 18 C -1.220248 3.676230 0.042645 0
M  V30 19 C 0.097552 -0.666681 0.247707 0
M  V30 20 N -1.171383 -0.626582 0.693439 0
M  V30 21 C -1.664897 -1.670395 1.384837 0
M  V30 22 N -3.024962 -1.632331 1.865098 0
M  V30 23 C -3.632918 -2.733858 2.626658 0
M  V30 24 C -5.061756 -2.542771 3.057943 0
M  V30 25 C -4.736164 -3.479651 1.960771 0
M  V30 26 N -0.931205 -2.770239 1.653595 0
M  V30 27 C 0.354569 -2.835318 1.213901 0
M  V30 28 C 0.859001 -1.785225 0.515432 0
M  V30 29 H 7.917232 -2.656124 -0.951666 0
M  V30 30 H 4.927865 -3.713214 -0.033734 0
M  V30 31 H 2.675825 -3.779284 0.824303 0
M  V30 32 H 4.254961 0.149904 -1.676021 0
M  V30 33 H -0.929498 1.564947 -1.536128 0
M  V30 34 H 1.093749 1.712800 1.573990 0
M  V30 35 H 1.020406 3.573285 3.233726 0
M  V30 36 H -0.512291 5.457464 2.773840 0
M  V30 37 H -1.903218 5.546031 0.816366 0
M  V30 38 H -1.841601 3.711773 -0.835650 0
M  V30 39 H -3.609660 -0.782045 1.663827 0
M  V30 40 H -2.984698 -3.345077 3.281869 0
M  V30 41 H -5.421671 -2.944456 4.022151 0
M  V30 42 H -5.502910 -1.561028 2.818795 0
M  V30 43 H -4.870461 -4.551477 2.194314 0
M  V30 44 H -4.970301 -3.228803 0.907837 0
M  V30 45 H 0.843913 -3.734269 1.474047 0
M  V30 END ATOM
M  V30 BEGIN BOND
M  V30 1 2 1 2
M  V30 2 1 2 3
M  V30 3 1 2 4
M  V30 4 2 4 5
M  V30 5 1 5 6
M  V30 6 2 6 7
M  V30 7 1 7 8
M  V30 8 2 8 9
M  V30 9 1 8 10
M  V30 10 2 10 11
M  V30 11 1 11 12
M  V30 12 1 12 13
M  V30 13 2 13 14
M  V30 14 1 14 15
M  V30 15 2 15 16
M  V30 16 1 16 17
M  V30 17 2 17 18
M  V30 18 1 11 19
M  V30 19 2 19 20
M  V30 20 1 20 21
M  V30 21 1 21 22
M  V30 22 1 22 23
M  V30 23 1 23 24
M  V30 24 1 24 25
M  V30 25 2 21 26
M  V30 26 1 26 27
M  V30 27 2 27 28
M  V30 28 1 9 4
M  V30 29 1 18 13
M  V30 30 1 28 19
M  V30 31 1 28 7
M  V30 32 1 25 23
M  V30 33 1 3 29
M  V30 34 1 5 30
M  V30 35 1 6 31
M  V30 36 1 9 32
M  V30 37 1 12 33
M  V30 38 1 14 34
M  V30 39 1 15 35
M  V30 40 1 16 36
M  V30 41 1 17 37
M  V30 42 1 18 38
M  V30 43 1 22 39
M  V30 44 1 23 40
M  V30 45 1 24 41
M  V30 46 1 24 42
M  V30 47 1 25 43
M  V30 48 1 25 44
M  V30 49 1 27 45
M  V30 END BOND
M  V30 END CTAB
M  END
>  <Dataset>  (288) 
ChEMBL_Kinases

>  <Ligand_Instance>  (288) 
nan

>  <PDB_ID>  (288) 
nan

>  <Standardized_SMILES>  (288) 
O=C(O)c1ccc2c(c1)nc(Nc1ccccc1)c1nc(NC3CC3)ncc12

>  <Name>  (288) 
nan

>  <Pocket>  (288) 
nan

>  <ATP_Site>  (288) 
nan

>  <Peripheral>  (288) 
nan

>  <Num_H_Atoms_ProtBoundConf>  (288) 
nan

>  <Num_Resolved_Atoms>  (288) 
nan

>  <Num_Not_Resolved_Atoms>  (288) 
nan

$$$$
CHEMBL1682295
     RDKit          3D

  0  0  0  0  0  0  0  0  0  0999 V3000
M  V30 BEGIN CTAB
M  V30 COUNTS 45 49 0 0 0
M  V30 BEGIN ATOM
M  V30 1 O 3.482078 1.952986 -5.124568 0
M  V30 2 C 3.471823 1.930999 -3.873096 0
M  V30 3 O 4.450648 2.600992 -3.147987 0
M  V30 4 C 2.414239 1.189690 -3.192476 0
M  V30 5 C 1.458679 0.535734 -3.910327 0
M  V30 6 C 0.454989 -0.167666 -3.274203 0
M  V30 7 C 0.454824 -0.184107 -1.898911 0
M  V30 8 C 1.410304 0.469473 -1.154139 0
M  V30 9 C 2.398652 1.162369 -1.801581 0
M  V30 10 N 1.383674 0.435123 0.184308 0
M  V30 11 C 0.474396 -0.204158 0.933421 0
M  V30 12 N 0.427502 -0.253335 2.336898 0
M  V30 13 C 1.301159 0.341333 3.250256 0
M  V30 14 C 2.405283 1.109436 2.953374 0
M  V30 15 C 3.269295 1.697632 3.850582 0
M  V30 16 C 3.014216 1.505678 5.191908 0
M  V30 17 C 1.934143 0.753333 5.567671 0
M  V30 18 F 1.668457 0.554157 6.898166 0
M  V30 19 C 1.119698 0.200158 4.610245 0
M  V30 20 C -0.473392 -0.852186 0.170109 0
M  V30 21 N -1.455833 -1.540932 0.811808 0
M  V30 22 C -2.424338 -2.204621 0.156811 0
M  V30 23 N -3.415194 -2.900510 0.904994 0
M  V30 24 C -3.323534 -2.854251 2.354579 0
M  V30 25 C -4.284401 -3.530987 3.230132 0
M  V30 26 C -2.970311 -4.192139 3.036337 0
M  V30 27 N -2.445982 -2.203550 -1.197384 0
M  V30 28 C -1.495476 -1.536456 -1.880445 0
M  V30 29 C -0.507111 -0.859243 -1.204754 0
M  V30 30 H 5.252888 3.012882 -3.641102 0
M  V30 31 H 1.521073 0.591911 -4.998475 0
M  V30 32 H -0.260194 -0.655943 -3.910358 0
M  V30 33 H 3.144676 1.672564 -1.210661 0
M  V30 34 H -0.361604 -0.805246 2.756474 0
M  V30 35 H 2.660052 1.297627 1.922291 0
M  V30 36 H 4.110832 2.283781 3.560727 0
M  V30 37 H 3.619575 1.915882 5.987655 0
M  V30 38 H 0.272766 -0.390733 4.988073 0
M  V30 39 H -4.179451 -3.424650 0.425161 0
M  V30 40 H -2.772873 -1.968500 2.781896 0
M  V30 41 H -4.465104 -3.071459 4.238112 0
M  V30 42 H -5.210096 -3.947321 2.746951 0
M  V30 43 H -2.849746 -5.069262 2.364164 0
M  V30 44 H -2.234815 -4.160753 3.854138 0
M  V30 45 H -1.617639 -1.608734 -2.926630 0
M  V30 END ATOM
M  V30 BEGIN BOND
M  V30 1 2 1 2
M  V30 2 1 2 3
M  V30 3 1 2 4
M  V30 4 2 4 5
M  V30 5 1 5 6
M  V30 6 2 6 7
M  V30 7 1 7 8
M  V30 8 2 8 9
M  V30 9 1 8 10
M  V30 10 2 10 11
M  V30 11 1 11 12
M  V30 12 1 12 13
M  V30 13 2 13 14
M  V30 14 1 14 15
M  V30 15 2 15 16
M  V30 16 1 16 17
M  V30 17 1 17 18
M  V30 18 2 17 19
M  V30 19 1 11 20
M  V30 20 2 20 21
M  V30 21 1 21 22
M  V30 22 1 22 23
M  V30 23 1 23 24
M  V30 24 1 24 25
M  V30 25 1 25 26
M  V30 26 2 22 27
M  V30 27 1 27 28
M  V30 28 2 28 29
M  V30 29 1 9 4
M  V30 30 1 19 13
M  V30 31 1 29 20
M  V30 32 1 29 7
M  V30 33 1 26 24
M  V30 34 1 3 30
M  V30 35 1 5 31
M  V30 36 1 6 32
M  V30 37 1 9 33
M  V30 38 1 12 34
M  V30 39 1 14 35
M  V30 40 1 15 36
M  V30 41 1 16 37
M  V30 42 1 19 38
M  V30 43 1 23 39
M  V30 44 1 24 40
M  V30 45 1 25 41
M  V30 46 1 25 42
M  V30 47 1 26 43
M  V30 48 1 26 44
M  V30 49 1 28 45
M  V30 END BOND
M  V30 END CTAB
M  END
>  <Dataset>  (289) 
ChEMBL_Kinases

>  <Ligand_Instance>  (289) 
nan

>  <PDB_ID>  (289) 
nan

>  <Standardized_SMILES>  (289) 
O=C(O)c1ccc2c(c1)nc(Nc1cccc(F)c1)c1nc(NC3CC3)ncc12

>  <Name>  (289) 
nan

>  <Pocket>  (289) 
nan

>  <ATP_Site>  (289) 
nan

>  <Peripheral>  (289) 
nan

>  <Num_H_Atoms_ProtBoundConf>  (289) 
nan

>  <Num_Resolved_Atoms>  (289) 
nan

>  <Num_Not_Resolved_Atoms>  (289) 
nan

$$$$
CHEMBL1682296
     RDKit          3D

  0  0  0  0  0  0  0  0  0  0999 V3000
M  V30 BEGIN CTAB
M  V30 COUNTS 47 51 0 0 0
M  V30 BEGIN ATOM
M  V30 1 C 1.089434 -2.232686 5.669091 0
M  V30 2 C 1.603114 -2.412661 4.587803 0
M  V30 3 C 2.191851 -2.618852 3.294189 0
M  V30 4 C 3.135531 -3.611229 3.048271 0
M  V30 5 C 3.647755 -3.735047 1.762627 0
M  V30 6 C 3.257252 -2.913591 0.723094 0
M  V30 7 C 2.329846 -1.930983 0.944440 0
M  V30 8 N 1.850559 -1.031514 -0.046937 0
M  V30 9 C 0.915685 0.018109 0.182762 0
M  V30 10 N 1.349330 1.255224 0.488696 0
M  V30 11 C 0.506539 2.280894 0.716555 0
M  V30 12 C 0.991198 3.530479 1.025269 0
M  V30 13 C 0.141314 4.590613 1.260285 0
M  V30 14 C 0.689115 5.902705 1.584067 0
M  V30 15 O 0.060608 6.956019 1.822214 0
M  V30 16 O 2.055134 6.102040 1.659202 0
M  V30 17 C -1.233077 4.431051 1.192840 0
M  V30 18 C -1.720162 3.170280 0.881305 0
M  V30 19 C -0.857520 2.125296 0.650239 0
M  V30 20 C -1.351750 0.880808 0.341438 0
M  V30 21 C -2.693457 0.672863 0.263849 0
M  V30 22 N -3.145853 -0.556803 -0.039844 0
M  V30 23 C -2.264374 -1.575249 -0.265182 0
M  V30 24 N -2.782134 -2.860307 -0.582057 0
M  V30 25 C -2.033880 -4.046897 -0.849273 0
M  V30 26 C -1.068610 -4.149240 -1.954566 0
M  V30 27 C -2.348679 -4.877612 -2.057329 0
M  V30 28 N -0.935133 -1.383973 -0.191798 0
M  V30 29 C -0.455718 -0.142502 0.115147 0
M  V30 30 C 1.823581 -1.814826 2.232606 0
M  V30 31 H 0.645546 -2.061614 6.637336 0
M  V30 32 H 3.442062 -4.255111 3.859877 0
M  V30 33 H 4.393683 -4.516555 1.559481 0
M  V30 34 H 3.665743 -3.024331 -0.269084 0
M  V30 35 H 2.226364 -1.166598 -1.018215 0
M  V30 36 H 2.064444 3.664308 1.080349 0
M  V30 37 H 2.514169 6.750398 2.302969 0
M  V30 38 H -1.882727 5.294868 1.385319 0
M  V30 39 H -2.793627 3.126431 0.847428 0
M  V30 40 H -3.463815 1.377262 0.416445 0
M  V30 41 H -3.809871 -3.027089 -0.643052 0
M  V30 42 H -1.779822 -4.618977 0.085833 0
M  V30 43 H -0.837780 -3.223181 -2.499218 0
M  V30 44 H -0.143115 -4.768340 -1.792483 0
M  V30 45 H -3.171789 -4.508946 -2.698790 0
M  V30 46 H -2.308309 -5.976397 -2.013065 0
M  V30 47 H 1.081431 -1.032806 2.421462 0
M  V30 END ATOM
M  V30 BEGIN BOND
M  V30 1 3 1 2
M  V30 2 1 2 3
M  V30 3 2 3 4
M  V30 4 1 4 5
M  V30 5 2 5 6
M  V30 6 1 6 7
M  V30 7 1 7 8
M  V30 8 1 8 9
M  V30 9 2 9 10
M  V30 10 1 10 11
M  V30 11 2 11 12
M  V30 12 1 12 13
M  V30 13 1 13 14
M  V30 14 2 14 15
M  V30 15 1 14 16
M  V30 16 2 13 17
M  V30 17 1 17 18
M  V30 18 2 18 19
M  V30 19 1 19 20
M  V30 20 2 20 21
M  V30 21 1 21 22
M  V30 22 2 22 23
M  V30 23 1 23 24
M  V30 24 1 24 25
M  V30 25 1 25 26
M  V30 26 1 26 27
M  V30 27 1 23 28
M  V30 28 2 28 29
M  V30 29 2 7 30
M  V30 30 1 30 3
M  V30 31 1 29 9
M  V30 32 1 19 11
M  V30 33 1 29 20
M  V30 34 1 27 25
M  V30 35 1 1 31
M  V30 36 1 4 32
M  V30 37 1 5 33
M  V30 38 1 6 34
M  V30 39 1 8 35
M  V30 40 1 12 36
M  V30 41 1 16 37
M  V30 42 1 17 38
M  V30 43 1 18 39
M  V30 44 1 21 40
M  V30 45 1 24 41
M  V30 46 1 25 42
M  V30 47 1 26 43
M  V30 48 1 26 44
M  V30 49 1 27 45
M  V30 50 1 27 46
M  V30 51 1 30 47
M  V30 END BOND
M  V30 END CTAB
M  END
>  <Dataset>  (290) 
ChEMBL_Kinases

>  <Ligand_Instance>  (290) 
nan

>  <PDB_ID>  (290) 
nan

>  <Standardized_SMILES>  (290) 
C#Cc1cccc(Nc2nc3cc(C(=O)O)ccc3c3cnc(NC4CC4)nc23)c1

>  <Name>  (290) 
nan

>  <Pocket>  (290) 
nan

>  <ATP_Site>  (290) 
nan

>  <Peripheral>  (290) 
nan

>  <Num_H_Atoms_ProtBoundConf>  (290) 
nan

>  <Num_Resolved_Atoms>  (290) 
nan

>  <Num_Not_Resolved_Atoms>  (290) 
nan

$$$$
CHEMBL1682297
     RDKit          3D

  0  0  0  0  0  0  0  0  0  0999 V3000
M  V30 BEGIN CTAB
M  V30 COUNTS 48 52 0 0 0
M  V30 BEGIN ATOM
M  V30 1 O 6.976631 -1.333811 0.346238 0
M  V30 2 C 6.318325 -2.176274 -0.351511 0
M  V30 3 O 7.134924 -2.942505 -1.170107 0
M  V30 4 C 4.844350 -2.297689 -0.272318 0
M  V30 5 C 4.192029 -3.220683 -1.052135 0
M  V30 6 C 2.796676 -3.282923 -0.922684 0
M  V30 7 C 2.162088 -2.438445 -0.043548 0
M  V30 8 C 2.827397 -1.515203 0.734297 0
M  V30 9 C 4.220489 -1.444628 0.613131 0
M  V30 10 N 2.176707 -0.703583 1.587045 0
M  V30 11 C 0.820427 -0.749703 1.729732 0
M  V30 12 N 0.223825 0.150306 2.652753 0
M  V30 13 C -0.409131 1.404226 2.449634 0
M  V30 14 C -0.805171 2.226004 3.479190 0
M  V30 15 C -1.425129 3.413151 3.154463 0
M  V30 16 C -1.658828 3.799472 1.828584 0
M  V30 17 C -1.244001 2.943190 0.825827 0
M  V30 18 C -1.516087 3.379537 -0.582831 0
M  V30 19 F -1.080503 2.444098 -1.493889 0
M  V30 20 F -0.968150 4.586906 -0.880563 0
M  V30 21 F -2.900545 3.506302 -0.767812 0
M  V30 22 C -0.620454 1.748079 1.130713 0
M  V30 23 C 0.149749 -1.669850 0.955061 0
M  V30 24 N -1.203005 -1.703901 1.101231 0
M  V30 25 C -1.889645 -2.590560 0.353498 0
M  V30 26 N -3.304685 -2.629624 0.489164 0
M  V30 27 C -4.064467 -1.789589 1.359256 0
M  V30 28 C -4.048203 -0.293902 1.234526 0
M  V30 29 C -5.170205 -1.027051 0.626783 0
M  V30 30 N -1.280216 -3.421085 -0.511398 0
M  V30 31 C 0.056541 -3.385649 -0.654246 0
M  V30 32 C 0.803414 -2.507149 0.077259 0
M  V30 33 H 7.945382 -3.458813 -0.790718 0
M  V30 34 H 4.818674 -3.825813 -1.705890 0
M  V30 35 H 2.345267 -4.023672 -1.558359 0
M  V30 36 H 4.774633 -0.739059 1.203376 0
M  V30 37 H 0.329552 -0.290924 3.615254 0
M  V30 38 H -0.615136 1.909994 4.499925 0
M  V30 39 H -1.734011 4.053706 3.985020 0
M  V30 40 H -2.151351 4.743129 1.610670 0
M  V30 41 H -0.303827 1.092104 0.303561 0
M  V30 42 H -3.905356 -3.287628 -0.047109 0
M  V30 43 H -4.414396 -2.192237 2.343085 0
M  V30 44 H -3.238414 0.182319 0.660073 0
M  V30 45 H -4.312059 0.285434 2.158658 0
M  V30 46 H -6.176479 -0.982152 1.046008 0
M  V30 47 H -5.163812 -1.029981 -0.494519 0
M  V30 48 H 0.430210 -4.081082 -1.359654 0
M  V30 END ATOM
M  V30 BEGIN BOND
M  V30 1 2 1 2
M  V30 2 1 2 3
M  V30 3 1 2 4
M  V30 4 2 4 5
M  V30 5 1 5 6
M  V30 6 2 6 7
M  V30 7 1 7 8
M  V30 8 2 8 9
M  V30 9 1 8 10
M  V30 10 2 10 11
M  V30 11 1 11 12
M  V30 12 1 12 13
M  V30 13 2 13 14
M  V30 14 1 14 15
M  V30 15 2 15 16
M  V30 16 1 16 17
M  V30 17 1 17 18
M  V30 18 1 18 19
M  V30 19 1 18 20
M  V30 20 1 18 21
M  V30 21 2 17 22
M  V30 22 1 11 23
M  V30 23 2 23 24
M  V30 24 1 24 25
M  V30 25 1 25 26
M  V30 26 1 26 27
M  V30 27 1 27 28
M  V30 28 1 28 29
M  V30 29 2 25 30
M  V30 30 1 30 31
M  V30 31 2 31 32
M  V30 32 1 9 4
M  V30 33 1 22 13
M  V30 34 1 32 23
M  V30 35 1 32 7
M  V30 36 1 29 27
M  V30 37 1 3 33
M  V30 38 1 5 34
M  V30 39 1 6 35
M  V30 40 1 9 36
M  V30 41 1 12 37
M  V30 42 1 14 38
M  V30 43 1 15 39
M  V30 44 1 16 40
M  V30 45 1 22 41
M  V30 46 1 26 42
M  V30 47 1 27 43
M  V30 48 1 28 44
M  V30 49 1 28 45
M  V30 50 1 29 46
M  V30 51 1 29 47
M  V30 52 1 31 48
M  V30 END BOND
M  V30 END CTAB
M  END
>  <Dataset>  (291) 
ChEMBL_Kinases

>  <Ligand_Instance>  (291) 
nan

>  <PDB_ID>  (291) 
nan

>  <Standardized_SMILES>  (291) 
O=C(O)c1ccc2c(c1)nc(Nc1cccc(C(F)(F)F)c1)c1nc(NC3CC3)ncc12

>  <Name>  (291) 
nan

>  <Pocket>  (291) 
nan

>  <ATP_Site>  (291) 
nan

>  <Peripheral>  (291) 
nan

>  <Num_H_Atoms_ProtBoundConf>  (291) 
nan

>  <Num_Resolved_Atoms>  (291) 
nan

>  <Num_Not_Resolved_Atoms>  (291) 
nan

$$$$
CHEMBL1682301
     RDKit          3D

  0  0  0  0  0  0  0  0  0  0999 V3000
M  V30 BEGIN CTAB
M  V30 COUNTS 48 52 0 0 0
M  V30 BEGIN ATOM
M  V30 1 O 6.798403 -1.642841 2.013674 0
M  V30 2 C 5.927881 -2.386791 1.521689 0
M  V30 3 O 6.441475 -3.683874 1.476874 0
M  V30 4 C 4.580492 -2.195418 1.017371 0
M  V30 5 C 3.801116 -3.218545 0.533140 0
M  V30 6 C 2.538650 -2.928756 0.067261 0
M  V30 7 C 2.003466 -1.659339 0.057527 0
M  V30 8 C 2.789418 -0.638253 0.545373 0
M  V30 9 C 4.051995 -0.909497 1.014790 0
M  V30 10 N 2.271432 0.618636 0.531549 0
M  V30 11 C 1.022317 0.835382 0.049154 0
M  V30 12 N 0.610253 2.209301 0.073375 0
M  V30 13 C 0.376007 2.591435 1.423254 0
M  V30 14 C 1.620182 2.922129 1.975922 0
M  V30 15 C 1.740051 3.338359 3.288257 0
M  V30 16 C 0.588612 3.424805 4.064930 0
M  V30 17 C -0.621575 3.095396 3.508076 0
M  V30 18 C -0.750241 2.680217 2.200551 0
M  V30 19 C 0.264847 -0.203788 -0.429628 0
M  V30 20 N -0.950068 0.112092 -0.895195 0
M  V30 21 C -1.732976 -0.895850 -1.396266 0
M  V30 22 N -3.041827 -0.967783 -1.961193 0
M  V30 23 C -4.035471 -1.434239 -1.058399 0
M  V30 24 C -5.342040 -1.698977 -1.452931 0
M  V30 25 C -6.313378 -2.162253 -0.590721 0
M  V30 26 C -6.035621 -2.389429 0.729042 0
M  V30 27 C -4.755716 -2.147391 1.194261 0
M  V30 28 C -3.821602 -1.687807 0.303798 0
M  V30 29 N -1.231069 -2.138449 -1.384816 0
M  V30 30 C -0.029202 -2.509540 -0.932398 0
M  V30 31 C 0.730373 -1.495646 -0.442755 0
M  V30 32 H 7.069306 -4.075928 2.192842 0
M  V30 33 H 4.279812 -4.180275 0.569966 0
M  V30 34 H 2.051317 -3.823093 -0.277395 0
M  V30 35 H 4.680778 -0.102517 1.406394 0
M  V30 36 H 0.420340 3.030508 -0.542717 0
M  V30 37 H 2.619568 2.914386 1.514444 0
M  V30 38 H 2.636211 3.615418 3.806503 0
M  V30 39 H 0.610605 3.746441 5.110350 0
M  V30 40 H -1.574016 3.133280 4.040355 0
M  V30 41 H -1.612474 2.393130 1.628344 0
M  V30 42 H -3.382983 -0.733307 -2.914778 0
M  V30 43 H -5.556363 -1.518119 -2.499843 0
M  V30 44 H -7.309077 -2.344625 -0.978194 0
M  V30 45 H -6.758499 -2.750585 1.438896 0
M  V30 46 H -4.446260 -2.301871 2.232684 0
M  V30 47 H -2.799780 -1.490340 0.668096 0
M  V30 48 H 0.319358 -3.513002 -0.946785 0
M  V30 END ATOM
M  V30 BEGIN BOND
M  V30 1 2 1 2
M  V30 2 1 2 3
M  V30 3 1 2 4
M  V30 4 2 4 5
M  V30 5 1 5 6
M  V30 6 2 6 7
M  V30 7 1 7 8
M  V30 8 2 8 9
M  V30 9 1 8 10
M  V30 10 2 10 11
M  V30 11 1 11 12
M  V30 12 1 12 13
M  V30 13 2 13 14
M  V30 14 1 14 15
M  V30 15 2 15 16
M  V30 16 1 16 17
M  V30 17 2 17 18
M  V30 18 1 11 19
M  V30 19 2 19 20
M  V30 20 1 20 21
M  V30 21 1 21 22
M  V30 22 1 22 23
M  V30 23 2 23 24
M  V30 24 1 24 25
M  V30 25 2 25 26
M  V30 26 1 26 27
M  V30 27 2 27 28
M  V30 28 2 21 29
M  V30 29 1 29 30
M  V30 30 2 30 31
M  V30 31 1 9 4
M  V30 32 1 18 13
M  V30 33 1 31 19
M  V30 34 1 31 7
M  V30 35 1 28 23
M  V30 36 1 3 32
M  V30 37 1 5 33
M  V30 38 1 6 34
M  V30 39 1 9 35
M  V30 40 1 12 36
M  V30 41 1 14 37
M  V30 42 1 15 38
M  V30 43 1 16 39
M  V30 44 1 17 40
M  V30 45 1 18 41
M  V30 46 1 22 42
M  V30 47 1 24 43
M  V30 48 1 25 44
M  V30 49 1 26 45
M  V30 50 1 27 46
M  V30 51 1 28 47
M  V30 52 1 30 48
M  V30 END BOND
M  V30 END CTAB
M  END
>  <Dataset>  (292) 
ChEMBL_Kinases

>  <Ligand_Instance>  (292) 
nan

>  <PDB_ID>  (292) 
nan

>  <Standardized_SMILES>  (292) 
O=C(O)c1ccc2c(c1)nc(Nc1ccccc1)c1nc(Nc3ccccc3)ncc12

>  <Name>  (292) 
nan

>  <Pocket>  (292) 
nan

>  <ATP_Site>  (292) 
nan

>  <Peripheral>  (292) 
nan

>  <Num_H_Atoms_ProtBoundConf>  (292) 
nan

>  <Num_Resolved_Atoms>  (292) 
nan

>  <Num_Not_Resolved_Atoms>  (292) 
nan

$$$$
CHEMBL1682552
     RDKit          3D

  0  0  0  0  0  0  0  0  0  0999 V3000
M  V30 BEGIN CTAB
M  V30 COUNTS 45 49 0 0 0
M  V30 BEGIN ATOM
M  V30 1 C 1.015001 -5.933921 1.782033 0
M  V30 2 C 2.388713 -5.842046 1.812879 0
M  V30 3 N 2.954407 -4.659832 1.571510 0
M  V30 4 C 2.319253 -3.519858 1.294723 0
M  V30 5 N 2.717371 -2.267423 1.031136 0
M  V30 6 C 1.601752 -1.506272 0.819904 0
M  V30 7 C 1.933106 -0.121160 0.537808 0
M  V30 8 C 1.558499 0.662234 -0.530447 0
M  V30 9 C 1.869690 1.981916 -0.738330 0
M  V30 10 C 2.634544 2.581811 0.218234 0
M  V30 11 N 3.116709 3.837890 0.333698 0
M  V30 12 N 3.815358 3.968868 1.438584 0
M  V30 13 C 3.825358 2.787998 2.110944 0
M  V30 14 C 3.083111 1.923803 1.339604 0
M  V30 15 C 2.715472 0.607207 1.451394 0
M  V30 16 C 0.521641 -2.345811 0.967895 0
M  V30 17 N -0.809550 -1.888063 0.862532 0
M  V30 18 C -1.798894 -0.916778 0.667214 0
M  V30 19 C -1.536045 0.274581 1.586107 0
M  V30 20 C -2.763053 1.168050 1.512704 0
M  V30 21 C -2.794670 1.662944 0.060115 0
M  V30 22 C -3.193428 0.499180 -0.797521 0
M  V30 23 C -2.089572 -0.541282 -0.743344 0
M  V30 24 N 0.986956 -3.550892 1.251946 0
M  V30 25 C 0.384445 -4.752522 1.496237 0
M  V30 26 H 0.452801 -6.837567 1.961672 0
M  V30 27 H 2.973725 -6.726537 2.031076 0
M  V30 28 H 0.972129 0.154361 -1.278754 0
M  V30 29 H 1.503905 2.474953 -1.628729 0
M  V30 30 H 2.938187 4.586213 -0.382588 0
M  V30 31 H 4.286540 2.493164 3.051927 0
M  V30 32 H 3.072868 0.086428 2.342728 0
M  V30 33 H -1.418110 -2.754660 0.984711 0
M  V30 34 H -2.806926 -1.293633 1.064360 0
M  V30 35 H -0.692080 0.854190 1.203263 0
M  V30 36 H -1.342972 -0.111109 2.585725 0
M  V30 37 H -3.647767 0.576271 1.760403 0
M  V30 38 H -2.609303 2.015073 2.205578 0
M  V30 39 H -1.770480 1.992232 -0.169142 0
M  V30 40 H -3.516055 2.496524 0.007140 0
M  V30 41 H -4.144335 0.080425 -0.381057 0
M  V30 42 H -3.340364 0.842035 -1.831517 0
M  V30 43 H -1.282745 -0.203590 -1.366575 0
M  V30 44 H -2.540157 -1.454257 -1.233172 0
M  V30 45 H -0.716202 -4.754142 1.455540 0
M  V30 END ATOM
M  V30 BEGIN BOND
M  V30 1 1 1 2
M  V30 2 2 2 3
M  V30 3 1 3 4
M  V30 4 2 4 5
M  V30 5 1 5 6
M  V30 6 1 6 7
M  V30 7 2 7 8
M  V30 8 1 8 9
M  V30 9 2 9 10
M  V30 10 1 10 11
M  V30 11 1 11 12
M  V30 12 2 12 13
M  V30 13 1 13 14
M  V30 14 2 14 15
M  V30 15 2 6 16
M  V30 16 1 16 17
M  V30 17 1 17 18
M  V30 18 1 18 19
M  V30 19 1 19 20
M  V30 20 1 20 21
M  V30 21 1 21 22
M  V30 22 1 22 23
M  V30 23 1 16 24
M  V30 24 1 24 25
M  V30 25 2 25 1
M  V30 26 1 24 4
M  V30 27 1 15 7
M  V30 28 1 23 18
M  V30 29 1 14 10
M  V30 30 1 1 26
M  V30 31 1 2 27
M  V30 32 1 8 28
M  V30 33 1 9 29
M  V30 34 1 11 30
M  V30 35 1 13 31
M  V30 36 1 15 32
M  V30 37 1 17 33
M  V30 38 1 18 34
M  V30 39 1 19 35
M  V30 40 1 19 36
M  V30 41 1 20 37
M  V30 42 1 20 38
M  V30 43 1 21 39
M  V30 44 1 21 40
M  V30 45 1 22 41
M  V30 46 1 22 42
M  V30 47 1 23 43
M  V30 48 1 23 44
M  V30 49 1 25 45
M  V30 END BOND
M  V30 END CTAB
M  END
>  <Dataset>  (293) 
ChEMBL_Kinases

>  <Ligand_Instance>  (293) 
nan

>  <PDB_ID>  (293) 
nan

>  <Standardized_SMILES>  (293) 
c1cnc2nc(-c3ccc4[nH]ncc4c3)c(NC3CCCCC3)n2c1

>  <Name>  (293) 
nan

>  <Pocket>  (293) 
nan

>  <ATP_Site>  (293) 
nan

>  <Peripheral>  (293) 
nan

>  <Num_H_Atoms_ProtBoundConf>  (293) 
nan

>  <Num_Resolved_Atoms>  (293) 
nan

>  <Num_Not_Resolved_Atoms>  (293) 
nan

$$$$
CHEMBL1682290
     RDKit          3D

  0  0  0  0  0  0  0  0  0  0999 V3000
M  V30 BEGIN CTAB
M  V30 COUNTS 44 47 0 0 0
M  V30 BEGIN ATOM
M  V30 1 C -2.416433 3.000224 3.905160 0
M  V30 2 C -1.941372 1.742956 3.256922 0
M  V30 3 N -0.499242 1.516726 3.409337 0
M  V30 4 C -0.079865 0.308093 2.787214 0
M  V30 5 N -0.068760 -0.839003 3.465852 0
M  V30 6 C 0.329897 -2.016610 2.891640 0
M  V30 7 C 0.710229 -1.935182 1.592927 0
M  V30 8 C 0.711289 -0.767910 0.861239 0
M  V30 9 N 0.306379 0.340539 1.500237 0
M  V30 10 C 1.099308 -0.660309 -0.452713 0
M  V30 11 N 1.091067 0.525882 -1.222435 0
M  V30 12 C 0.642703 1.844178 -1.071570 0
M  V30 13 C 1.412752 2.964311 -1.368897 0
M  V30 14 C 1.007574 4.271006 -1.253448 0
M  V30 15 C -0.275407 4.475973 -0.802835 0
M  V30 16 C -1.086569 3.410912 -0.492711 0
M  V30 17 Cl -2.707493 3.825602 0.074361 0
M  V30 18 C -0.648568 2.100922 -0.619782 0
M  V30 19 N 1.500865 -1.780933 -1.041497 0
M  V30 20 C 1.518219 -2.939245 -0.374604 0
M  V30 21 C 1.958364 -4.057393 -1.085302 0
M  V30 22 C 1.990132 -5.270040 -0.427331 0
M  V30 23 C 2.432793 -6.495178 -1.081270 0
M  V30 24 O 2.513530 -7.654044 -0.610693 0
M  V30 25 O 2.852009 -6.522010 -2.415323 0
M  V30 26 C 1.599129 -5.402713 0.909346 0
M  V30 27 C 1.166670 -4.278053 1.591560 0
M  V30 28 C 1.131532 -3.072621 0.948703 0
M  V30 29 H -1.765194 3.224764 4.776131 0
M  V30 30 H -3.454512 2.796970 4.302118 0
M  V30 31 H -2.441471 3.831890 3.176212 0
M  V30 32 H -2.427122 0.856846 3.755191 0
M  V30 33 H -2.210486 1.686030 2.187341 0
M  V30 34 H 0.088606 2.225176 3.937856 0
M  V30 35 H 0.299293 -2.862016 3.519958 0
M  V30 36 H 1.520175 0.495607 -2.194516 0
M  V30 37 H 2.425294 2.733769 -1.723136 0
M  V30 38 H 1.722264 5.042767 -1.522927 0
M  V30 39 H -0.616148 5.506545 -0.703429 0
M  V30 40 H -1.390097 1.366453 -0.355689 0
M  V30 41 H 2.283799 -4.086438 -2.109960 0
M  V30 42 H 2.590672 -7.286150 -3.050662 0
M  V30 43 H 1.638157 -6.382450 1.398841 0
M  V30 44 H 0.883922 -4.456664 2.610170 0
M  V30 END ATOM
M  V30 BEGIN BOND
M  V30 1 1 1 2
M  V30 2 1 2 3
M  V30 3 1 3 4
M  V30 4 2 4 5
M  V30 5 1 5 6
M  V30 6 2 6 7
M  V30 7 1 7 8
M  V30 8 2 8 9
M  V30 9 1 8 10
M  V30 10 1 10 11
M  V30 11 1 11 12
M  V30 12 2 12 13
M  V30 13 1 13 14
M  V30 14 2 14 15
M  V30 15 1 15 16
M  V30 16 1 16 17
M  V30 17 2 16 18
M  V30 18 2 10 19
M  V30 19 1 19 20
M  V30 20 2 20 21
M  V30 21 1 21 22
M  V30 22 1 22 23
M  V30 23 2 23 24
M  V30 24 1 23 25
M  V30 25 2 22 26
M  V30 26 1 26 27
M  V30 27 2 27 28
M  V30 28 1 9 4
M  V30 29 1 18 12
M  V30 30 1 28 20
M  V30 31 1 28 7
M  V30 32 1 1 29
M  V30 33 1 1 30
M  V30 34 1 1 31
M  V30 35 1 2 32
M  V30 36 1 2 33
M  V30 37 1 3 34
M  V30 38 1 6 35
M  V30 39 1 11 36
M  V30 40 1 13 37
M  V30 41 1 14 38
M  V30 42 1 15 39
M  V30 43 1 18 40
M  V30 44 1 21 41
M  V30 45 1 25 42
M  V30 46 1 26 43
M  V30 47 1 27 44
M  V30 END BOND
M  V30 END CTAB
M  END
>  <Dataset>  (294) 
ChEMBL_Kinases

>  <Ligand_Instance>  (294) 
nan

>  <PDB_ID>  (294) 
nan

>  <Standardized_SMILES>  (294) 
CCNc1ncc2c(n1)c(Nc1cccc(Cl)c1)nc1cc(C(=O)O)ccc12

>  <Name>  (294) 
nan

>  <Pocket>  (294) 
nan

>  <ATP_Site>  (294) 
nan

>  <Peripheral>  (294) 
nan

>  <Num_H_Atoms_ProtBoundConf>  (294) 
nan

>  <Num_Resolved_Atoms>  (294) 
nan

>  <Num_Not_Resolved_Atoms>  (294) 
nan

$$$$
CHEMBL1669558
     RDKit          3D

  0  0  0  0  0  0  0  0  0  0999 V3000
M  V30 BEGIN CTAB
M  V30 COUNTS 68 73 0 0 0
M  V30 BEGIN ATOM
M  V30 1 C 3.344103 -4.764424 5.682983 0
M  V30 2 N 3.295649 -3.640917 4.765735 0
M  V30 3 C 2.248287 -2.749215 5.245200 0
M  V30 4 C 2.093420 -1.560319 4.298545 0
M  V30 5 N 3.407826 -1.028985 3.991135 0
M  V30 6 C 3.576294 -0.089557 2.934598 0
M  V30 7 C 2.455180 0.291978 2.223708 0
M  V30 8 C 2.602059 1.211864 1.184926 0
M  V30 9 C 1.361672 1.553219 0.492818 0
M  V30 10 O 0.301138 2.090579 0.918392 0
M  V30 11 N 1.293322 1.245098 -0.900117 0
M  V30 12 C 0.074130 1.588719 -1.546704 0
M  V30 13 C -0.145466 2.828874 -2.147336 0
M  V30 14 C -1.364033 3.118441 -2.771413 0
M  V30 15 C -2.397312 2.200001 -2.822280 0
M  V30 16 C -2.140821 0.988649 -2.218288 0
M  V30 17 C -0.966408 0.673142 -1.601805 0
M  V30 18 C -3.213399 0.030194 -2.271524 0
M  V30 19 C -4.325013 0.506425 -2.930317 0
M  V30 20 C -5.231859 -0.562554 -2.867306 0
M  V30 21 C -6.611699 -0.764951 -3.358036 0
M  V30 22 N -7.172473 0.363681 -4.056119 0
M  V30 23 O -7.388683 -1.745403 -3.277532 0
M  V30 24 N -4.629145 -1.578823 -2.197903 0
M  V30 25 N -3.399121 -1.200181 -1.842037 0
M  V30 26 C -2.532071 -2.038440 -1.136029 0
M  V30 27 C -1.722870 -2.847615 -1.945767 0
M  V30 28 C -0.820886 -3.739333 -1.392763 0
M  V30 29 C -0.692331 -3.857308 -0.017964 0
M  V30 30 O 0.220199 -4.759621 0.519227 0
M  V30 31 C -1.484904 -3.064687 0.785869 0
M  V30 32 C -2.390417 -2.169310 0.254223 0
M  V30 33 C -4.669227 1.769957 -3.596167 0
M  V30 34 C -3.545242 2.760609 -3.525964 0
M  V30 35 C 3.861975 1.705494 0.907308 0
M  V30 36 Cl 3.973414 2.845542 -0.396827 0
M  V30 37 C 4.949373 1.278441 1.663344 0
M  V30 38 N 4.791190 0.390824 2.661785 0
M  V30 39 C 4.506284 -1.497192 4.799257 0
M  V30 40 C 4.581114 -3.011095 4.729850 0
M  V30 41 H 4.092405 -4.498169 6.465928 0
M  V30 42 H 3.629865 -5.698534 5.129474 0
M  V30 43 H 2.341374 -4.903543 6.140287 0
M  V30 44 H 1.293043 -3.299852 5.226285 0
M  V30 45 H 2.462385 -2.337840 6.236054 0
M  V30 46 H 1.448491 -0.825945 4.814887 0
M  V30 47 H 1.582687 -1.953158 3.402158 0
M  V30 48 H 1.493093 -0.127906 2.485825 0
M  V30 49 H 2.062473 0.797521 -1.448811 0
M  V30 50 H 0.696004 3.518758 -2.082078 0
M  V30 51 H -1.341440 4.122929 -3.174811 0
M  V30 52 H -0.800865 -0.262896 -1.148545 0
M  V30 53 H -7.730469 1.255316 -4.123025 0
M  V30 54 H -7.249617 0.826321 -4.986008 0
M  V30 55 H -1.757012 -2.821476 -3.043491 0
M  V30 56 H -0.202148 -4.358175 -2.031155 0
M  V30 57 H 1.006590 -5.068089 -0.035429 0
M  V30 58 H -1.424875 -3.116756 1.862604 0
M  V30 59 H -3.042224 -1.518145 0.822025 0
M  V30 60 H -4.813388 1.566798 -4.704867 0
M  V30 61 H -5.620272 2.202267 -3.203948 0
M  V30 62 H -3.285644 3.181855 -4.525476 0
M  V30 63 H -3.946085 3.652783 -2.947866 0
M  V30 64 H 5.927542 1.695928 1.407850 0
M  V30 65 H 4.418157 -1.214263 5.862353 0
M  V30 66 H 5.490294 -1.128381 4.444540 0
M  V30 67 H 5.184317 -3.316135 3.834010 0
M  V30 68 H 5.174849 -3.323882 5.617296 0
M  V30 END ATOM
M  V30 BEGIN BOND
M  V30 1 1 1 2
M  V30 2 1 2 3
M  V30 3 1 3 4
M  V30 4 1 4 5
M  V30 5 1 5 6
M  V30 6 2 6 7
M  V30 7 1 7 8
M  V30 8 1 8 9
M  V30 9 2 9 10
M  V30 10 1 9 11
M  V30 11 1 11 12
M  V30 12 2 12 13
M  V30 13 1 13 14
M  V30 14 2 14 15
M  V30 15 1 15 16
M  V30 16 2 16 17
M  V30 17 1 16 18
M  V30 18 2 18 19
M  V30 19 1 19 20
M  V30 20 1 20 21
M  V30 21 1 21 22
M  V30 22 2 21 23
M  V30 23 2 20 24
M  V30 24 1 24 25
M  V30 25 1 25 26
M  V30 26 2 26 27
M  V30 27 1 27 28
M  V30 28 2 28 29
M  V30 29 1 29 30
M  V30 30 1 29 31
M  V30 31 2 31 32
M  V30 32 1 19 33
M  V30 33 1 33 34
M  V30 34 2 8 35
M  V30 35 1 35 36
M  V30 36 1 35 37
M  V30 37 2 37 38
M  V30 38 1 5 39
M  V30 39 1 39 40
M  V30 40 1 40 2
M  V30 41 1 38 6
M  V30 42 1 17 12
M  V30 43 1 25 18
M  V30 44 1 32 26
M  V30 45 1 34 15
M  V30 46 1 1 41
M  V30 47 1 1 42
M  V30 48 1 1 43
M  V30 49 1 3 44
M  V30 50 1 3 45
M  V30 51 1 4 46
M  V30 52 1 4 47
M  V30 53 1 7 48
M  V30 54 1 11 49
M  V30 55 1 13 50
M  V30 56 1 14 51
M  V30 57 1 17 52
M  V30 58 1 22 53
M  V30 59 1 22 54
M  V30 60 1 27 55
M  V30 61 1 28 56
M  V30 62 1 30 57
M  V30 63 1 31 58
M  V30 64 1 32 59
M  V30 65 1 33 60
M  V30 66 1 33 61
M  V30 67 1 34 62
M  V30 68 1 34 63
M  V30 69 1 37 64
M  V30 70 1 39 65
M  V30 71 1 39 66
M  V30 72 1 40 67
M  V30 73 1 40 68
M  V30 END BOND
M  V30 END CTAB
M  END
>  <Dataset>  (295) 
ChEMBL_Kinases

>  <Ligand_Instance>  (295) 
nan

>  <PDB_ID>  (295) 
nan

>  <Standardized_SMILES>  (295) 
CN1CCN(c2cc(C(=O)Nc3ccc4c(c3)-c3c(c(C(N)=O)nn3-c3ccc(O)cc3)CC4)c(Cl)cn2)CC1

>  <Name>  (295) 
nan

>  <Pocket>  (295) 
nan

>  <ATP_Site>  (295) 
nan

>  <Peripheral>  (295) 
nan

>  <Num_H_Atoms_ProtBoundConf>  (295) 
nan

>  <Num_Resolved_Atoms>  (295) 
nan

>  <Num_Not_Resolved_Atoms>  (295) 
nan

$$$$
CHEMBL1669557
     RDKit          3D

  0  0  0  0  0  0  0  0  0  0999 V3000
M  V30 BEGIN CTAB
M  V30 COUNTS 67 72 0 0 0
M  V30 BEGIN ATOM
M  V30 1 C 6.096710 -1.899947 5.014326 0
M  V30 2 N 6.082723 -0.528996 5.463811 0
M  V30 3 C 4.795542 -0.045715 5.815202 0
M  V30 4 C 3.932307 0.341246 4.638730 0
M  V30 5 N 4.693475 0.713517 3.485918 0
M  V30 6 C 4.128493 0.697409 2.175399 0
M  V30 7 C 2.798792 0.373967 1.958341 0
M  V30 8 C 2.296606 0.371668 0.649911 0
M  V30 9 C 0.861782 -0.001023 0.668209 0
M  V30 10 O 0.607774 -1.133229 1.154090 0
M  V30 11 N -0.063737 0.964943 0.134597 0
M  V30 12 C -1.409265 0.502531 0.208540 0
M  V30 13 C -2.090922 0.850032 1.385025 0
M  V30 14 C -3.406261 0.497697 1.660255 0
M  V30 15 C -4.088273 -0.246568 0.707605 0
M  V30 16 C -3.416189 -0.583676 -0.441068 0
M  V30 17 C -2.115550 -0.238780 -0.720836 0
M  V30 18 C -4.177491 -1.374754 -1.392892 0
M  V30 19 C -5.479738 -1.767147 -1.171207 0
M  V30 20 C -5.931235 -2.493365 -2.252687 0
M  V30 21 C -7.250870 -3.122313 -2.488006 0
M  V30 22 N -7.396823 -3.839988 -3.734390 0
M  V30 23 O -8.078584 -2.930028 -1.531094 0
M  V30 24 N -4.858592 -2.507946 -3.097207 0
M  V30 25 N -3.841742 -1.857009 -2.594863 0
M  V30 26 C -2.664332 -1.802964 -3.385152 0
M  V30 27 C -1.719948 -2.824944 -3.235650 0
M  V30 28 C -0.595232 -2.728228 -4.042217 0
M  V30 29 C -0.376399 -1.716502 -4.943320 0
M  V30 30 F 0.736468 -1.663494 -5.712611 0
M  V30 31 C -1.358628 -0.777509 -5.005734 0
M  V30 32 F -1.194408 0.258231 -5.888162 0
M  V30 33 C -2.523515 -0.731609 -4.279808 0
M  V30 34 C -6.201524 -1.429399 0.065346 0
M  V30 35 C -5.470828 -0.586423 1.037980 0
M  V30 36 C 3.099883 0.684910 -0.425409 0
M  V30 37 Cl 2.294059 0.625240 -1.962267 0
M  V30 38 C 4.417335 1.001247 -0.167846 0
M  V30 39 N 4.871942 0.995566 1.096257 0
M  V30 40 C 6.075844 1.123538 3.630713 0
M  V30 41 C 6.851500 0.350178 4.637338 0
M  V30 42 H 6.668018 -2.497927 5.752672 0
M  V30 43 H 5.065744 -2.273336 5.001900 0
M  V30 44 H 6.518131 -2.012974 3.993784 0
M  V30 45 H 4.300102 -0.819786 6.454004 0
M  V30 46 H 4.908660 0.854556 6.452012 0
M  V30 47 H 3.151435 1.078800 4.915208 0
M  V30 48 H 3.375006 -0.605745 4.376890 0
M  V30 49 H 2.247445 0.143419 2.857907 0
M  V30 50 H 0.303092 1.864368 -0.238072 0
M  V30 51 H -1.580357 1.439757 2.163554 0
M  V30 52 H -3.854198 0.806948 2.593146 0
M  V30 53 H -1.572972 -0.481931 -1.593745 0
M  V30 54 H -7.605934 -3.018513 -4.373892 0
M  V30 55 H -7.192038 -4.701143 -3.143831 0
M  V30 56 H -1.912371 -3.610494 -2.521042 0
M  V30 57 H 0.126102 -3.534872 -3.908369 0
M  V30 58 H -3.276771 0.018538 -4.350587 0
M  V30 59 H -6.386707 -2.421379 0.579191 0
M  V30 60 H -7.238683 -1.083098 -0.185031 0
M  V30 61 H -5.571198 -0.973643 2.095333 0
M  V30 62 H -6.026915 0.397517 1.091947 0
M  V30 63 H 4.997737 1.236613 -1.044254 0
M  V30 64 H 6.589547 1.171888 2.629237 0
M  V30 65 H 6.019019 2.197040 3.967520 0
M  V30 66 H 7.612283 -0.242228 4.101207 0
M  V30 67 H 7.415433 1.047044 5.322921 0
M  V30 END ATOM
M  V30 BEGIN BOND
M  V30 1 1 1 2
M  V30 2 1 2 3
M  V30 3 1 3 4
M  V30 4 1 4 5
M  V30 5 1 5 6
M  V30 6 2 6 7
M  V30 7 1 7 8
M  V30 8 1 8 9
M  V30 9 2 9 10
M  V30 10 1 9 11
M  V30 11 1 11 12
M  V30 12 2 12 13
M  V30 13 1 13 14
M  V30 14 2 14 15
M  V30 15 1 15 16
M  V30 16 2 16 17
M  V30 17 1 16 18
M  V30 18 2 18 19
M  V30 19 1 19 20
M  V30 20 1 20 21
M  V30 21 1 21 22
M  V30 22 2 21 23
M  V30 23 2 20 24
M  V30 24 1 24 25
M  V30 25 1 25 26
M  V30 26 2 26 27
M  V30 27 1 27 28
M  V30 28 2 28 29
M  V30 29 1 29 30
M  V30 30 1 29 31
M  V30 31 1 31 32
M  V30 32 2 31 33
M  V30 33 1 19 34
M  V30 34 1 34 35
M  V30 35 2 8 36
M  V30 36 1 36 37
M  V30 37 1 36 38
M  V30 38 2 38 39
M  V30 39 1 5 40
M  V30 40 1 40 41
M  V30 41 1 41 2
M  V30 42 1 39 6
M  V30 43 1 17 12
M  V30 44 1 25 18
M  V30 45 1 33 26
M  V30 46 1 35 15
M  V30 47 1 1 42
M  V30 48 1 1 43
M  V30 49 1 1 44
M  V30 50 1 3 45
M  V30 51 1 3 46
M  V30 52 1 4 47
M  V30 53 1 4 48
M  V30 54 1 7 49
M  V30 55 1 11 50
M  V30 56 1 13 51
M  V30 57 1 14 52
M  V30 58 1 17 53
M  V30 59 1 22 54
M  V30 60 1 22 55
M  V30 61 1 27 56
M  V30 62 1 28 57
M  V30 63 1 33 58
M  V30 64 1 34 59
M  V30 65 1 34 60
M  V30 66 1 35 61
M  V30 67 1 35 62
M  V30 68 1 38 63
M  V30 69 1 40 64
M  V30 70 1 40 65
M  V30 71 1 41 66
M  V30 72 1 41 67
M  V30 END BOND
M  V30 END CTAB
M  END
>  <Dataset>  (296) 
ChEMBL_Kinases

>  <Ligand_Instance>  (296) 
nan

>  <PDB_ID>  (296) 
nan

>  <Standardized_SMILES>  (296) 
CN1CCN(c2cc(C(=O)Nc3ccc4c(c3)-c3c(c(C(N)=O)nn3-c3ccc(F)c(F)c3)CC4)c(Cl)cn2)CC1

>  <Name>  (296) 
nan

>  <Pocket>  (296) 
nan

>  <ATP_Site>  (296) 
nan

>  <Peripheral>  (296) 
nan

>  <Num_H_Atoms_ProtBoundConf>  (296) 
nan

>  <Num_Resolved_Atoms>  (296) 
nan

>  <Num_Not_Resolved_Atoms>  (296) 
nan

$$$$
CHEMBL1669556
     RDKit          3D

  0  0  0  0  0  0  0  0  0  0999 V3000
M  V30 BEGIN CTAB
M  V30 COUNTS 67 72 0 0 0
M  V30 BEGIN ATOM
M  V30 1 C 4.601083 -4.345764 5.013435 0
M  V30 2 N 4.277574 -4.020254 3.636806 0
M  V30 3 C 3.053992 -3.289154 3.539697 0
M  V30 4 C 2.983409 -2.338760 2.366046 0
M  V30 5 N 4.116574 -1.433354 2.347880 0
M  V30 6 C 4.097081 -0.192769 1.649534 0
M  V30 7 C 3.000086 0.188022 0.924327 0
M  V30 8 C 3.011464 1.415148 0.250187 0
M  V30 9 C 1.746086 1.649394 -0.474417 0
M  V30 10 O 1.981116 1.715646 -1.702347 0
M  V30 11 N 0.552267 1.754554 0.275938 0
M  V30 12 C -0.758653 1.969349 -0.150191 0
M  V30 13 C -1.353128 3.226481 -0.312152 0
M  V30 14 C -2.681067 3.357267 -0.744499 0
M  V30 15 C -3.474011 2.258415 -1.033593 0
M  V30 16 C -2.842876 1.045402 -0.858387 0
M  V30 17 C -1.566757 0.873849 -0.444174 0
M  V30 18 C -3.675964 -0.110852 -1.158935 0
M  V30 19 C -4.943486 0.243690 -1.562819 0
M  V30 20 C -5.565579 -0.981919 -1.797581 0
M  V30 21 C -6.914196 -1.384392 -2.247818 0
M  V30 22 N -7.912534 -0.429435 -2.548328 0
M  V30 23 O -7.375488 -2.537364 -2.428434 0
M  V30 24 N -4.685021 -1.969685 -1.536270 0
M  V30 25 N -3.524981 -1.425807 -1.143940 0
M  V30 26 C -2.391752 -2.167617 -0.793752 0
M  V30 27 C -2.104116 -2.627566 0.499867 0
M  V30 28 C -0.953629 -3.373171 0.741599 0
M  V30 29 C -0.093328 -3.662168 -0.288174 0
M  V30 30 C -0.313145 -3.241442 -1.588661 0
M  V30 31 F 0.510519 -3.506235 -2.628247 0
M  V30 32 C -1.475443 -2.494422 -1.804906 0
M  V30 33 C -5.655178 1.510846 -1.760160 0
M  V30 34 C -4.794369 2.700569 -1.457138 0
M  V30 35 C 4.128723 2.219223 0.328699 0
M  V30 36 Cl 3.998025 3.714465 -0.560570 0
M  V30 37 C 5.198670 1.779966 1.073463 0
M  V30 38 N 5.174955 0.599674 1.715916 0
M  V30 39 C 5.292062 -1.857353 3.085559 0
M  V30 40 C 5.417160 -3.381441 3.027646 0
M  V30 41 H 5.652577 -4.123429 5.218907 0
M  V30 42 H 4.386331 -5.388711 5.283114 0
M  V30 43 H 3.939060 -3.705076 5.655457 0
M  V30 44 H 2.230289 -4.033288 3.395751 0
M  V30 45 H 2.794560 -2.722347 4.449881 0
M  V30 46 H 2.070289 -1.716431 2.548263 0
M  V30 47 H 2.889750 -2.906911 1.425289 0
M  V30 48 H 2.169432 -0.506145 0.918606 0
M  V30 49 H 0.613092 1.663653 1.316955 0
M  V30 50 H -0.694220 4.057739 -0.074064 0
M  V30 51 H -2.939391 4.418299 -0.801533 0
M  V30 52 H -1.152016 -0.079428 -0.333067 0
M  V30 53 H -8.198402 -0.201570 -1.563550 0
M  V30 54 H -8.265366 -0.058098 -3.448398 0
M  V30 55 H -2.826082 -2.365665 1.276634 0
M  V30 56 H -0.771152 -3.708313 1.757785 0
M  V30 57 H 0.804613 -4.245242 -0.093889 0
M  V30 58 H -1.648968 -2.166095 -2.814430 0
M  V30 59 H -6.589501 1.528938 -1.150658 0
M  V30 60 H -5.927250 1.608442 -2.859067 0
M  V30 61 H -5.265564 3.227241 -0.568019 0
M  V30 62 H -4.766532 3.432427 -2.297856 0
M  V30 63 H 6.045433 2.460950 1.093333 0
M  V30 64 H 5.251881 -1.562906 4.147206 0
M  V30 65 H 6.241486 -1.485068 2.620117 0
M  V30 66 H 6.320901 -3.658822 3.579502 0
M  V30 67 H 5.559365 -3.715396 1.971401 0
M  V30 END ATOM
M  V30 BEGIN BOND
M  V30 1 1 1 2
M  V30 2 1 2 3
M  V30 3 1 3 4
M  V30 4 1 4 5
M  V30 5 1 5 6
M  V30 6 2 6 7
M  V30 7 1 7 8
M  V30 8 1 8 9
M  V30 9 2 9 10
M  V30 10 1 9 11
M  V30 11 1 11 12
M  V30 12 2 12 13
M  V30 13 1 13 14
M  V30 14 2 14 15
M  V30 15 1 15 16
M  V30 16 2 16 17
M  V30 17 1 16 18
M  V30 18 2 18 19
M  V30 19 1 19 20
M  V30 20 1 20 21
M  V30 21 1 21 22
M  V30 22 2 21 23
M  V30 23 2 20 24
M  V30 24 1 24 25
M  V30 25 1 25 26
M  V30 26 2 26 27
M  V30 27 1 27 28
M  V30 28 2 28 29
M  V30 29 1 29 30
M  V30 30 1 30 31
M  V30 31 2 30 32
M  V30 32 1 19 33
M  V30 33 1 33 34
M  V30 34 2 8 35
M  V30 35 1 35 36
M  V30 36 1 35 37
M  V30 37 2 37 38
M  V30 38 1 5 39
M  V30 39 1 39 40
M  V30 40 1 40 2
M  V30 41 1 38 6
M  V30 42 1 17 12
M  V30 43 1 25 18
M  V30 44 1 32 26
M  V30 45 1 34 15
M  V30 46 1 1 41
M  V30 47 1 1 42
M  V30 48 1 1 43
M  V30 49 1 3 44
M  V30 50 1 3 45
M  V30 51 1 4 46
M  V30 52 1 4 47
M  V30 53 1 7 48
M  V30 54 1 11 49
M  V30 55 1 13 50
M  V30 56 1 14 51
M  V30 57 1 17 52
M  V30 58 1 22 53
M  V30 59 1 22 54
M  V30 60 1 27 55
M  V30 61 1 28 56
M  V30 62 1 29 57
M  V30 63 1 32 58
M  V30 64 1 33 59
M  V30 65 1 33 60
M  V30 66 1 34 61
M  V30 67 1 34 62
M  V30 68 1 37 63
M  V30 69 1 39 64
M  V30 70 1 39 65
M  V30 71 1 40 66
M  V30 72 1 40 67
M  V30 END BOND
M  V30 END CTAB
M  END
>  <Dataset>  (297) 
ChEMBL_Kinases

>  <Ligand_Instance>  (297) 
nan

>  <PDB_ID>  (297) 
nan

>  <Standardized_SMILES>  (297) 
CN1CCN(c2cc(C(=O)Nc3ccc4c(c3)-c3c(c(C(N)=O)nn3-c3cccc(F)c3)CC4)c(Cl)cn2)CC1

>  <Name>  (297) 
nan

>  <Pocket>  (297) 
nan

>  <ATP_Site>  (297) 
nan

>  <Peripheral>  (297) 
nan

>  <Num_H_Atoms_ProtBoundConf>  (297) 
nan

>  <Num_Resolved_Atoms>  (297) 
nan

>  <Num_Not_Resolved_Atoms>  (297) 
nan

$$$$
CHEMBL1669555
     RDKit          3D

  0  0  0  0  0  0  0  0  0  0999 V3000
M  V30 BEGIN CTAB
M  V30 COUNTS 91 97 0 0 0
M  V30 BEGIN ATOM
M  V30 1 C -0.455560 -7.475765 -3.460384 0
M  V30 2 N 0.554595 -6.801568 -2.707832 0
M  V30 3 C 1.150506 -7.685282 -1.760976 0
M  V30 4 C 1.485325 -6.084104 -3.545232 0
M  V30 5 C 0.753939 -4.902941 -4.201054 0
M  V30 6 C 0.241300 -4.015304 -3.108459 0
M  V30 7 N -0.473785 -2.856628 -3.545848 0
M  V30 8 C -1.815599 -2.780762 -3.762564 0
M  V30 9 C -2.144472 -1.492370 -4.180199 0
M  V30 10 C -3.541226 -1.020173 -4.513524 0
M  V30 11 N -4.182692 -0.506777 -3.316390 0
M  V30 12 C -5.511518 -0.046508 -3.668284 0
M  V30 13 C -6.272460 0.494114 -2.468163 0
M  V30 14 N -5.553036 0.121887 -1.265668 0
M  V30 15 C -5.093471 0.878190 -0.154664 0
M  V30 16 C -3.936438 0.402048 0.479683 0
M  V30 17 C -3.389662 1.047329 1.596665 0
M  V30 18 C -2.166156 0.366570 2.093056 0
M  V30 19 O -1.982994 -0.514531 2.970535 0
M  V30 20 N -1.085675 0.894455 1.365074 0
M  V30 21 C 0.317103 0.694242 1.318504 0
M  V30 22 C 0.880132 -0.273548 0.478558 0
M  V30 23 C 2.258426 -0.504421 0.406371 0
M  V30 24 C 3.116770 0.245612 1.190490 0
M  V30 25 C 2.577329 1.201552 2.021965 0
M  V30 26 C 1.227229 1.426507 2.091618 0
M  V30 27 C 3.508773 1.957151 2.835769 0
M  V30 28 C 4.847191 1.661991 2.716547 0
M  V30 29 C 5.468735 2.527479 3.586087 0
M  V30 30 C 6.873854 2.723319 3.925211 0
M  V30 31 N 7.840651 1.903104 3.258223 0
M  V30 32 O 7.472233 3.494257 4.718003 0
M  V30 33 N 4.494238 3.283980 4.172634 0
M  V30 34 N 3.315005 2.941139 3.721555 0
M  V30 35 C 2.145777 3.595038 4.189494 0
M  V30 36 C 1.372322 3.206481 5.292343 0
M  V30 37 C 0.268259 3.944444 5.637334 0
M  V30 38 C -0.087653 5.061677 4.912222 0
M  V30 39 F -1.198712 5.684981 5.372548 0
M  V30 40 C 0.652445 5.460071 3.831597 0
M  V30 41 C 1.783748 4.731241 3.452341 0
M  V30 42 C 5.478491 0.638835 1.854874 0
M  V30 43 C 4.524161 -0.108333 0.991405 0
M  V30 44 C -4.021957 2.177205 2.067083 0
M  V30 45 Cl -3.244972 2.885267 3.459552 0
M  V30 46 C -5.148431 2.606608 1.416725 0
M  V30 47 N -5.675990 1.992441 0.346213 0
M  V30 48 C -5.330184 -1.327386 -1.322207 0
M  V30 49 C -4.325717 -1.644867 -2.414066 0
M  V30 50 C -0.933709 -0.817369 -4.198448 0
M  V30 51 N 0.034539 -1.662770 -3.815102 0
M  V30 52 H -0.643330 -8.469080 -3.029368 0
M  V30 53 H -1.399309 -6.893587 -3.391081 0
M  V30 54 H -0.173776 -7.527624 -4.542851 0
M  V30 55 H 0.538877 -7.600793 -0.815508 0
M  V30 56 H 1.088982 -8.758020 -2.032604 0
M  V30 57 H 2.176632 -7.381490 -1.442797 0
M  V30 58 H 1.925218 -6.767191 -4.273827 0
M  V30 59 H 2.296549 -5.678717 -2.916015 0
M  V30 60 H -0.038326 -5.248768 -4.875811 0
M  V30 61 H 1.509443 -4.381332 -4.804099 0
M  V30 62 H -0.457410 -4.618022 -2.480720 0
M  V30 63 H 1.100238 -3.786839 -2.452747 0
M  V30 64 H -2.540274 -3.583855 -3.637225 0
M  V30 65 H -4.107180 -1.879696 -4.937926 0
M  V30 66 H -3.484006 -0.259005 -5.322025 0
M  V30 67 H -6.073797 -0.908540 -4.065105 0
M  V30 68 H -5.463795 0.770930 -4.413875 0
M  V30 69 H -6.444843 1.586783 -2.530235 0
M  V30 70 H -7.262683 0.002383 -2.420885 0
M  V30 71 H -3.455961 -0.498858 0.071883 0
M  V30 72 H -1.052348 1.636995 0.602102 0
M  V30 73 H 0.183355 -0.846083 -0.123691 0
M  V30 74 H 2.547951 -1.285641 -0.289167 0
M  V30 75 H 0.761625 2.159086 2.720864 0
M  V30 76 H 8.715483 1.908625 2.678400 0
M  V30 77 H 8.485442 1.185817 2.808027 0
M  V30 78 H 1.774163 2.308695 5.764232 0
M  V30 79 H -0.232777 3.521170 6.513785 0
M  V30 80 H 0.340393 6.340343 3.290433 0
M  V30 81 H 2.369108 5.059917 2.584498 0
M  V30 82 H 6.287341 1.069614 1.220384 0
M  V30 83 H 5.988641 -0.127871 2.517203 0
M  V30 84 H 4.678944 -1.228312 1.062003 0
M  V30 85 H 4.800313 0.096836 -0.086921 0
M  V30 86 H -5.591429 3.497584 1.839366 0
M  V30 87 H -6.317897 -1.799630 -1.503245 0
M  V30 88 H -4.975709 -1.708544 -0.360281 0
M  V30 89 H -3.351763 -1.972957 -2.011733 0
M  V30 90 H -4.740252 -2.478678 -3.013263 0
M  V30 91 H -0.879922 0.241538 -4.495171 0
M  V30 END ATOM
M  V30 BEGIN BOND
M  V30 1 1 1 2
M  V30 2 1 2 3
M  V30 3 1 2 4
M  V30 4 1 4 5
M  V30 5 1 5 6
M  V30 6 1 6 7
M  V30 7 1 7 8
M  V30 8 2 8 9
M  V30 9 1 9 10
M  V30 10 1 10 11
M  V30 11 1 11 12
M  V30 12 1 12 13
M  V30 13 1 13 14
M  V30 14 1 14 15
M  V30 15 2 15 16
M  V30 16 1 16 17
M  V30 17 1 17 18
M  V30 18 2 18 19
M  V30 19 1 18 20
M  V30 20 1 20 21
M  V30 21 2 21 22
M  V30 22 1 22 23
M  V30 23 2 23 24
M  V30 24 1 24 25
M  V30 25 2 25 26
M  V30 26 1 25 27
M  V30 27 2 27 28
M  V30 28 1 28 29
M  V30 29 1 29 30
M  V30 30 1 30 31
M  V30 31 2 30 32
M  V30 32 2 29 33
M  V30 33 1 33 34
M  V30 34 1 34 35
M  V30 35 2 35 36
M  V30 36 1 36 37
M  V30 37 2 37 38
M  V30 38 1 38 39
M  V30 39 1 38 40
M  V30 40 2 40 41
M  V30 41 1 28 42
M  V30 42 1 42 43
M  V30 43 2 17 44
M  V30 44 1 44 45
M  V30 45 1 44 46
M  V30 46 2 46 47
M  V30 47 1 14 48
M  V30 48 1 48 49
M  V30 49 1 9 50
M  V30 50 2 50 51
M  V30 51 1 51 7
M  V30 52 1 49 11
M  V30 53 1 47 15
M  V30 54 1 26 21
M  V30 55 1 34 27
M  V30 56 1 41 35
M  V30 57 1 43 24
M  V30 58 1 1 52
M  V30 59 1 1 53
M  V30 60 1 1 54
M  V30 61 1 3 55
M  V30 62 1 3 56
M  V30 63 1 3 57
M  V30 64 1 4 58
M  V30 65 1 4 59
M  V30 66 1 5 60
M  V30 67 1 5 61
M  V30 68 1 6 62
M  V30 69 1 6 63
M  V30 70 1 8 64
M  V30 71 1 10 65
M  V30 72 1 10 66
M  V30 73 1 12 67
M  V30 74 1 12 68
M  V30 75 1 13 69
M  V30 76 1 13 70
M  V30 77 1 16 71
M  V30 78 1 20 72
M  V30 79 1 22 73
M  V30 80 1 23 74
M  V30 81 1 26 75
M  V30 82 1 31 76
M  V30 83 1 31 77
M  V30 84 1 36 78
M  V30 85 1 37 79
M  V30 86 1 40 80
M  V30 87 1 41 81
M  V30 88 1 42 82
M  V30 89 1 42 83
M  V30 90 1 43 84
M  V30 91 1 43 85
M  V30 92 1 46 86
M  V30 93 1 48 87
M  V30 94 1 48 88
M  V30 95 1 49 89
M  V30 96 1 49 90
M  V30 97 1 50 91
M  V30 END BOND
M  V30 END CTAB
M  END
>  <Dataset>  (298) 
ChEMBL_Kinases

>  <Ligand_Instance>  (298) 
nan

>  <PDB_ID>  (298) 
nan

>  <Standardized_SMILES>  (298) 
CN(C)CCCn1cc(CN2CCN(c3cc(C(=O)Nc4ccc5c(c4)-c4c(c(C(N)=O)nn4-c4ccc(F)cc4)CC5)c(Cl)cn3)CC2)cn1

>  <Name>  (298) 
nan

>  <Pocket>  (298) 
nan

>  <ATP_Site>  (298) 
nan

>  <Peripheral>  (298) 
nan

>  <Num_H_Atoms_ProtBoundConf>  (298) 
nan

>  <Num_Resolved_Atoms>  (298) 
nan

>  <Num_Not_Resolved_Atoms>  (298) 
nan

$$$$
CHEMBL1669554
     RDKit          3D

  0  0  0  0  0  0  0  0  0  0999 V3000
M  V30 BEGIN CTAB
M  V30 COUNTS 80 86 0 0 0
M  V30 BEGIN ATOM
M  V30 1 C 4.040960 -3.722568 4.808275 0
M  V30 2 C 4.319429 -2.975260 3.529153 0
M  V30 3 C 4.111775 -3.840037 2.309586 0
M  V30 4 N 3.042314 -3.289914 1.459014 0
M  V30 5 C 3.111553 -3.138702 0.044942 0
M  V30 6 C 2.098204 -2.507775 -0.681933 0
M  V30 7 C 2.256317 -2.412867 -2.070400 0
M  V30 8 C 1.105739 -1.735819 -2.638904 0
M  V30 9 O 1.204346 -0.491159 -2.431197 0
M  V30 10 N -0.008800 -2.226032 -3.326024 0
M  V30 11 C -1.040529 -1.364592 -3.794552 0
M  V30 12 C -1.081576 -0.938312 -5.116951 0
M  V30 13 C -2.018313 -0.088626 -5.669665 0
M  V30 14 C -3.018162 0.385096 -4.809251 0
M  V30 15 C -3.014735 -0.009905 -3.487276 0
M  V30 16 C -2.050783 -0.863003 -2.997046 0
M  V30 17 C -4.060874 0.552290 -2.655974 0
M  V30 18 C -4.975730 1.426760 -3.225142 0
M  V30 19 C -5.797400 1.760705 -2.195945 0
M  V30 20 C -6.926155 2.655446 -2.252884 0
M  V30 21 N -7.849675 3.085857 -1.276438 0
M  V30 22 O -7.337024 3.267094 -3.251347 0
M  V30 23 N -5.389977 1.121789 -1.085485 0
M  V30 24 N -4.322630 0.377430 -1.362030 0
M  V30 25 C -3.704522 -0.381806 -0.334129 0
M  V30 26 C -2.723125 0.404789 0.289469 0
M  V30 27 C -1.959437 -0.085306 1.346943 0
M  V30 28 C -2.174757 -1.356479 1.778033 0
M  V30 29 F -1.490958 -1.937368 2.794282 0
M  V30 30 C -3.130113 -2.133242 1.174525 0
M  V30 31 C -3.913523 -1.688886 0.122430 0
M  V30 32 C -5.004320 1.869583 -4.622319 0
M  V30 33 C -3.980777 1.272214 -5.509806 0
M  V30 34 C 3.399155 -2.949944 -2.604319 0
M  V30 35 Cl 3.444766 -2.747858 -4.349276 0
M  V30 36 C 4.389869 -3.568988 -1.878731 0
M  V30 37 N 4.217854 -3.652950 -0.515992 0
M  V30 38 C 1.931058 -2.940720 2.326487 0
M  V30 39 C 2.395566 -1.605833 2.939224 0
M  V30 40 N 3.717678 -1.690612 3.438282 0
M  V30 41 C 4.028801 -0.826306 4.520997 0
M  V30 42 C 3.879530 0.622159 4.191421 0
M  V30 43 C 4.842653 1.476726 3.682895 0
M  V30 44 N 4.349163 2.719169 3.506040 0
M  V30 45 N 3.096973 2.704446 3.883725 0
M  V30 46 C 2.171724 3.827566 3.869955 0
M  V30 47 C 2.786772 1.459363 4.299841 0
M  V30 48 H 4.964880 -4.046888 5.343099 0
M  V30 49 H 3.479575 -3.095798 5.551115 0
M  V30 50 H 3.487777 -4.680572 4.594745 0
M  V30 51 H 5.434502 -2.784865 3.543398 0
M  V30 52 H 3.694050 -4.819550 2.682739 0
M  V30 53 H 5.014811 -4.053665 1.737950 0
M  V30 54 H 1.287421 -2.156015 -0.084067 0
M  V30 55 H 0.015828 -3.281341 -3.446488 0
M  V30 56 H -0.279581 -1.340030 -5.749045 0
M  V30 57 H -1.934377 0.159295 -6.714057 0
M  V30 58 H -2.035470 -1.182102 -1.973402 0
M  V30 59 H -8.686273 2.636871 -0.825967 0
M  V30 60 H -7.909705 3.990040 -0.761807 0
M  V30 61 H -2.457231 1.438456 0.035004 0
M  V30 62 H -1.193208 0.515747 1.840966 0
M  V30 63 H -3.380562 -3.162993 1.442171 0
M  V30 64 H -4.693464 -2.156273 -0.454176 0
M  V30 65 H -4.969117 2.993446 -4.707314 0
M  V30 66 H -6.026878 1.624533 -5.035567 0
M  V30 67 H -3.416622 2.064538 -6.047921 0
M  V30 68 H -4.489071 0.604291 -6.269657 0
M  V30 69 H 5.230586 -3.949137 -2.427948 0
M  V30 70 H 1.726906 -3.697608 3.110443 0
M  V30 71 H 0.984606 -2.770269 1.816015 0
M  V30 72 H 1.625036 -1.264287 3.632577 0
M  V30 73 H 2.428275 -0.928057 2.039393 0
M  V30 74 H 5.044578 -1.071353 4.891537 0
M  V30 75 H 3.318533 -1.094016 5.354082 0
M  V30 76 H 5.877244 1.186017 3.452432 0
M  V30 77 H 1.118559 3.477494 3.946876 0
M  V30 78 H 2.275315 4.362436 2.910841 0
M  V30 79 H 2.456541 4.509446 4.683970 0
M  V30 80 H 1.809644 1.126051 4.679372 0
M  V30 END ATOM
M  V30 BEGIN BOND
M  V30 1 1 1 2
M  V30 2 1 2 3
M  V30 3 1 3 4
M  V30 4 1 4 5
M  V30 5 2 5 6
M  V30 6 1 6 7
M  V30 7 1 7 8
M  V30 8 2 8 9
M  V30 9 1 8 10
M  V30 10 1 10 11
M  V30 11 2 11 12
M  V30 12 1 12 13
M  V30 13 2 13 14
M  V30 14 1 14 15
M  V30 15 2 15 16
M  V30 16 1 15 17
M  V30 17 2 17 18
M  V30 18 1 18 19
M  V30 19 1 19 20
M  V30 20 1 20 21
M  V30 21 2 20 22
M  V30 22 2 19 23
M  V30 23 1 23 24
M  V30 24 1 24 25
M  V30 25 2 25 26
M  V30 26 1 26 27
M  V30 27 2 27 28
M  V30 28 1 28 29
M  V30 29 1 28 30
M  V30 30 2 30 31
M  V30 31 1 18 32
M  V30 32 1 32 33
M  V30 33 2 7 34
M  V30 34 1 34 35
M  V30 35 1 34 36
M  V30 36 2 36 37
M  V30 37 1 4 38
M  V30 38 1 38 39
M  V30 39 1 39 40
M  V30 40 1 40 41
M  V30 41 1 41 42
M  V30 42 1 42 43
M  V30 43 2 43 44
M  V30 44 1 44 45
M  V30 45 1 45 46
M  V30 46 1 45 47
M  V30 47 1 40 2
M  V30 48 2 47 42
M  V30 49 1 37 5
M  V30 50 1 16 11
M  V30 51 1 24 17
M  V30 52 1 31 25
M  V30 53 1 33 14
M  V30 54 1 1 48
M  V30 55 1 1 49
M  V30 56 1 1 50
M  V30 57 1 2 51
M  V30 58 1 3 52
M  V30 59 1 3 53
M  V30 60 1 6 54
M  V30 61 1 10 55
M  V30 62 1 12 56
M  V30 63 1 13 57
M  V30 64 1 16 58
M  V30 65 1 21 59
M  V30 66 1 21 60
M  V30 67 1 26 61
M  V30 68 1 27 62
M  V30 69 1 30 63
M  V30 70 1 31 64
M  V30 71 1 32 65
M  V30 72 1 32 66
M  V30 73 1 33 67
M  V30 74 1 33 68
M  V30 75 1 36 69
M  V30 76 1 38 70
M  V30 77 1 38 71
M  V30 78 1 39 72
M  V30 79 1 39 73
M  V30 80 1 41 74
M  V30 81 1 41 75
M  V30 82 1 43 76
M  V30 83 1 46 77
M  V30 84 1 46 78
M  V30 85 1 46 79
M  V30 86 1 47 80
M  V30 END BOND
M  V30 END CTAB
M  END
>  <Dataset>  (299) 
ChEMBL_Kinases

>  <Ligand_Instance>  (299) 
nan

>  <PDB_ID>  (299) 
nan

>  <Standardized_SMILES>  (299) 
CC1CN(c2cc(C(=O)Nc3ccc4c(c3)-c3c(c(C(N)=O)nn3-c3ccc(F)cc3)CC4)c(Cl)cn2)CCN1Cc1cnn(C)c1

>  <Name>  (299) 
nan

>  <Pocket>  (299) 
nan

>  <ATP_Site>  (299) 
nan

>  <Peripheral>  (299) 
nan

>  <Num_H_Atoms_ProtBoundConf>  (299) 
nan

>  <Num_Resolved_Atoms>  (299) 
nan

>  <Num_Not_Resolved_Atoms>  (299) 
nan

$$$$
CHEMBL1669553
     RDKit          3D

  0  0  0  0  0  0  0  0  0  0999 V3000
M  V30 BEGIN CTAB
M  V30 COUNTS 70 75 0 0 0
M  V30 BEGIN ATOM
M  V30 1 C 1.458401 -3.639400 3.406911 0
M  V30 2 C 2.006404 -2.429052 2.740404 0
M  V30 3 C 2.226869 -1.256305 3.399968 0
M  V30 4 C 2.741772 -0.123200 2.775143 0
M  V30 5 C 3.044913 -0.195544 1.409116 0
M  V30 6 N 3.572636 1.031550 0.929868 0
M  V30 7 N 4.875545 1.212738 0.996541 0
M  V30 8 C 5.217583 2.437362 0.501056 0
M  V30 9 C 6.594674 2.910772 0.447888 0
M  V30 10 N 6.805121 4.223407 -0.093009 0
M  V30 11 O 7.505766 2.161832 0.868834 0
M  V30 12 C 4.035061 3.028326 0.110980 0
M  V30 13 C 3.032667 2.131882 0.389617 0
M  V30 14 C 1.648379 2.457336 0.094310 0
M  V30 15 C 0.631053 1.575001 0.363762 0
M  V30 16 C -0.673781 1.909826 0.072713 0
M  V30 17 N -1.702974 0.979355 0.352608 0
M  V30 18 C -3.099747 1.072521 0.184040 0
M  V30 19 O -3.579519 2.114728 -0.278581 0
M  V30 20 C -4.044459 0.019768 0.516878 0
M  V30 21 C -3.878302 -1.118625 -0.282050 0
M  V30 22 C -4.697887 -2.211712 -0.095612 0
M  V30 23 N -4.568168 -3.399836 -0.901709 0
M  V30 24 C -3.727044 -3.625746 -2.040632 0
M  V30 25 C -2.707573 -4.718758 -1.764032 0
M  V30 26 N -3.051622 -5.366886 -0.487783 0
M  V30 27 C -2.156020 -6.503656 -0.382713 0
M  V30 28 C -4.426825 -5.788285 -0.615053 0
M  V30 29 C -5.322834 -4.582093 -0.627646 0
M  V30 30 N -5.662145 -2.222025 0.837976 0
M  V30 31 C -5.835401 -1.135442 1.614617 0
M  V30 32 C -5.041644 -0.018397 1.466327 0
M  V30 33 Cl -5.161542 1.456179 2.408086 0
M  V30 34 C -0.867045 3.151644 -0.487957 0
M  V30 35 C 0.143606 4.055633 -0.767763 0
M  V30 36 C 1.461820 3.703221 -0.467596 0
M  V30 37 C 2.473529 4.712175 -0.794944 0
M  V30 38 C 3.883095 4.355081 -0.485506 0
M  V30 39 C 2.825823 -1.390257 0.712530 0
M  V30 40 C 2.312576 -2.473882 1.397484 0
M  V30 41 H 1.876286 -4.583900 2.956936 0
M  V30 42 H 1.771082 -3.686411 4.486860 0
M  V30 43 H 0.342848 -3.676939 3.392017 0
M  V30 44 H 1.976705 -1.237800 4.463316 0
M  V30 45 H 2.868106 0.741533 3.408969 0
M  V30 46 H 6.957654 4.786262 -0.981131 0
M  V30 47 H 6.848770 5.073598 0.538580 0
M  V30 48 H 0.799774 0.607851 0.801812 0
M  V30 49 H -1.443400 0.033343 0.757532 0
M  V30 50 H -3.135696 -1.205553 -1.052442 0
M  V30 51 H -3.169246 -2.738002 -2.377177 0
M  V30 52 H -4.390667 -3.906158 -2.895320 0
M  V30 53 H -1.693736 -4.317109 -1.710680 0
M  V30 54 H -2.745830 -5.475324 -2.567669 0
M  V30 55 H -1.120526 -6.116635 -0.296572 0
M  V30 56 H -2.190589 -7.138672 -1.305971 0
M  V30 57 H -2.427040 -7.117561 0.479766 0
M  V30 58 H -4.543982 -6.323332 -1.597579 0
M  V30 59 H -4.689024 -6.488314 0.218052 0
M  V30 60 H -6.121587 -4.749664 -1.385890 0
M  V30 61 H -5.835182 -4.554031 0.362785 0
M  V30 62 H -6.594735 -1.073148 2.386581 0
M  V30 63 H -1.859444 3.484354 -0.744535 0
M  V30 64 H -0.094293 5.031359 -1.218725 0
M  V30 65 H 2.148635 5.678456 -0.358448 0
M  V30 66 H 2.392171 4.872941 -1.910115 0
M  V30 67 H 4.248209 5.115863 0.266582 0
M  V30 68 H 4.545891 4.512975 -1.369737 0
M  V30 69 H 3.094046 -1.325571 -0.328431 0
M  V30 70 H 2.173807 -3.359967 0.774071 0
M  V30 END ATOM
M  V30 BEGIN BOND
M  V30 1 1 1 2
M  V30 2 2 2 3
M  V30 3 1 3 4
M  V30 4 2 4 5
M  V30 5 1 5 6
M  V30 6 1 6 7
M  V30 7 2 7 8
M  V30 8 1 8 9
M  V30 9 1 9 10
M  V30 10 2 9 11
M  V30 11 1 8 12
M  V30 12 2 12 13
M  V30 13 1 13 14
M  V30 14 2 14 15
M  V30 15 1 15 16
M  V30 16 1 16 17
M  V30 17 1 17 18
M  V30 18 2 18 19
M  V30 19 1 18 20
M  V30 20 2 20 21
M  V30 21 1 21 22
M  V30 22 1 22 23
M  V30 23 1 23 24
M  V30 24 1 24 25
M  V30 25 1 25 26
M  V30 26 1 26 27
M  V30 27 1 26 28
M  V30 28 1 28 29
M  V30 29 2 22 30
M  V30 30 1 30 31
M  V30 31 2 31 32
M  V30 32 1 32 33
M  V30 33 2 16 34
M  V30 34 1 34 35
M  V30 35 2 35 36
M  V30 36 1 36 37
M  V30 37 1 37 38
M  V30 38 1 5 39
M  V30 39 2 39 40
M  V30 40 1 40 2
M  V30 41 1 13 6
M  V30 42 1 36 14
M  V30 43 1 38 12
M  V30 44 1 32 20
M  V30 45 1 29 23
M  V30 46 1 1 41
M  V30 47 1 1 42
M  V30 48 1 1 43
M  V30 49 1 3 44
M  V30 50 1 4 45
M  V30 51 1 10 46
M  V30 52 1 10 47
M  V30 53 1 15 48
M  V30 54 1 17 49
M  V30 55 1 21 50
M  V30 56 1 24 51
M  V30 57 1 24 52
M  V30 58 1 25 53
M  V30 59 1 25 54
M  V30 60 1 27 55
M  V30 61 1 27 56
M  V30 62 1 27 57
M  V30 63 1 28 58
M  V30 64 1 28 59
M  V30 65 1 29 60
M  V30 66 1 29 61
M  V30 67 1 31 62
M  V30 68 1 34 63
M  V30 69 1 35 64
M  V30 70 1 37 65
M  V30 71 1 37 66
M  V30 72 1 38 67
M  V30 73 1 38 68
M  V30 74 1 39 69
M  V30 75 1 40 70
M  V30 END BOND
M  V30 END CTAB
M  END
>  <Dataset>  (300) 
ChEMBL_Kinases

>  <Ligand_Instance>  (300) 
nan

>  <PDB_ID>  (300) 
nan

>  <Standardized_SMILES>  (300) 
Cc1ccc(-n2nc(C(N)=O)c3c2-c2cc(NC(=O)c4cc(N5CCN(C)CC5)ncc4Cl)ccc2CC3)cc1

>  <Name>  (300) 
nan

>  <Pocket>  (300) 
nan

>  <ATP_Site>  (300) 
nan

>  <Peripheral>  (300) 
nan

>  <Num_H_Atoms_ProtBoundConf>  (300) 
nan

>  <Num_Resolved_Atoms>  (300) 
nan

>  <Num_Not_Resolved_Atoms>  (300) 
nan

$$$$
CHEMBL1669552
     RDKit          3D

  0  0  0  0  0  0  0  0  0  0999 V3000
M  V30 BEGIN CTAB
M  V30 COUNTS 77 83 0 0 0
M  V30 BEGIN ATOM
M  V30 1 C 0.937288 -6.622644 1.600707 0
M  V30 2 N 1.982349 -6.520969 0.620711 0
M  V30 3 C 2.868541 -5.490470 0.658401 0
M  V30 4 C 3.748233 -5.649125 -0.391406 0
M  V30 5 C 4.918914 -4.880327 -0.885134 0
M  V30 6 N 4.431576 -3.907300 -1.840322 0
M  V30 7 C 5.433512 -3.098487 -2.409927 0
M  V30 8 C 5.098944 -1.713544 -2.814964 0
M  V30 9 N 3.774956 -1.255809 -2.452574 0
M  V30 10 C 3.487157 0.106992 -2.077156 0
M  V30 11 C 2.266557 0.606942 -1.697992 0
M  V30 12 C 2.163564 1.954795 -1.369060 0
M  V30 13 C 0.788903 2.341417 -0.983510 0
M  V30 14 O -0.223678 2.236205 -1.728544 0
M  V30 15 N 0.550637 2.879708 0.326590 0
M  V30 16 C -0.860552 3.171347 0.448890 0
M  V30 17 C -1.367184 4.400950 0.087034 0
M  V30 18 C -2.712092 4.681637 0.202310 0
M  V30 19 C -3.588537 3.726889 0.687484 0
M  V30 20 C -3.059626 2.502792 1.043719 0
M  V30 21 C -1.740873 2.199426 0.941058 0
M  V30 22 C -4.006616 1.518363 1.548485 0
M  V30 23 C -5.345644 1.843727 1.643809 0
M  V30 24 C -5.964381 0.722333 2.149717 0
M  V30 25 C -7.374947 0.425064 2.482709 0
M  V30 26 N -8.318647 1.478187 2.250000 0
M  V30 27 O -7.764833 -0.694119 2.951667 0
M  V30 28 N -4.991215 -0.207053 2.332195 0
M  V30 29 N -3.809962 0.269424 1.970796 0
M  V30 30 C -2.679980 -0.559071 2.094854 0
M  V30 31 C -2.106009 -1.462414 1.186349 0
M  V30 32 C -0.985738 -2.177803 1.548587 0
M  V30 33 C -0.381715 -2.056062 2.778333 0
M  V30 34 F 0.718401 -2.798567 3.052003 0
M  V30 35 C -0.938079 -1.162308 3.696941 0
M  V30 36 C -2.059213 -0.439979 3.347093 0
M  V30 37 C -5.948155 3.124362 1.273507 0
M  V30 38 C -4.992720 4.141376 0.765259 0
M  V30 39 C 3.220787 2.815124 -1.403435 0
M  V30 40 Cl 2.976449 4.474839 -0.974850 0
M  V30 41 C 4.425486 2.255539 -1.792376 0
M  V30 42 N 4.531704 0.953363 -2.111732 0
M  V30 43 C 2.773128 -2.304717 -2.509880 0
M  V30 44 C 3.215434 -3.293376 -1.431791 0
M  V30 45 C 3.354897 -6.808490 -1.053550 0
M  V30 46 N 2.285324 -7.294383 -0.401980 0
M  V30 47 H 0.185604 -7.396848 1.281869 0
M  V30 48 H 0.403362 -5.688476 1.787948 0
M  V30 49 H 1.325719 -6.976089 2.598571 0
M  V30 50 H 2.999486 -4.629056 1.314231 0
M  V30 51 H 5.682078 -5.537907 -1.316043 0
M  V30 52 H 5.330146 -4.341917 0.015648 0
M  V30 53 H 5.901135 -3.678938 -3.246926 0
M  V30 54 H 6.269912 -3.021813 -1.655327 0
M  V30 55 H 5.881181 -0.969314 -2.547886 0
M  V30 56 H 5.099567 -1.696117 -3.946755 0
M  V30 57 H 1.452550 -0.087969 -1.679401 0
M  V30 58 H 1.336772 3.010358 1.031701 0
M  V30 59 H -0.665121 5.150941 -0.296688 0
M  V30 60 H -3.052897 5.682168 -0.104456 0
M  V30 61 H -1.281884 1.286145 1.195818 0
M  V30 62 H -8.644860 2.402499 2.608481 0
M  V30 63 H -8.802925 1.081037 1.396647 0
M  V30 64 H -2.656450 -1.479504 0.255908 0
M  V30 65 H -0.613354 -2.850403 0.781442 0
M  V30 66 H -0.455932 -1.072896 4.660018 0
M  V30 67 H -2.404343 0.227500 4.146057 0
M  V30 68 H -6.766062 2.944685 0.519932 0
M  V30 69 H -6.481763 3.518044 2.180247 0
M  V30 70 H -5.351808 4.529939 -0.221308 0
M  V30 71 H -5.024051 5.057858 1.425642 0
M  V30 72 H 5.290533 2.918699 -1.830071 0
M  V30 73 H 1.745958 -1.966903 -2.400197 0
M  V30 74 H 2.846128 -2.815673 -3.494114 0
M  V30 75 H 3.443091 -2.647770 -0.540829 0
M  V30 76 H 2.391157 -3.987081 -1.255005 0
M  V30 77 H 3.746468 -7.311975 -1.918504 0
M  V30 END ATOM
M  V30 BEGIN BOND
M  V30 1 1 1 2
M  V30 2 1 2 3
M  V30 3 2 3 4
M  V30 4 1 4 5
M  V30 5 1 5 6
M  V30 6 1 6 7
M  V30 7 1 7 8
M  V30 8 1 8 9
M  V30 9 1 9 10
M  V30 10 2 10 11
M  V30 11 1 11 12
M  V30 12 1 12 13
M  V30 13 2 13 14
M  V30 14 1 13 15
M  V30 15 1 15 16
M  V30 16 2 16 17
M  V30 17 1 17 18
M  V30 18 2 18 19
M  V30 19 1 19 20
M  V30 20 2 20 21
M  V30 21 1 20 22
M  V30 22 2 22 23
M  V30 23 1 23 24
M  V30 24 1 24 25
M  V30 25 1 25 26
M  V30 26 2 25 27
M  V30 27 2 24 28
M  V30 28 1 28 29
M  V30 29 1 29 30
M  V30 30 2 30 31
M  V30 31 1 31 32
M  V30 32 2 32 33
M  V30 33 1 33 34
M  V30 34 1 33 35
M  V30 35 2 35 36
M  V30 36 1 23 37
M  V30 37 1 37 38
M  V30 38 2 12 39
M  V30 39 1 39 40
M  V30 40 1 39 41
M  V30 41 2 41 42
M  V30 42 1 9 43
M  V30 43 1 43 44
M  V30 44 1 4 45
M  V30 45 2 45 46
M  V30 46 1 46 2
M  V30 47 1 44 6
M  V30 48 1 42 10
M  V30 49 1 21 16
M  V30 50 1 29 22
M  V30 51 1 36 30
M  V30 52 1 38 19
M  V30 53 1 1 47
M  V30 54 1 1 48
M  V30 55 1 1 49
M  V30 56 1 3 50
M  V30 57 1 5 51
M  V30 58 1 5 52
M  V30 59 1 7 53
M  V30 60 1 7 54
M  V30 61 1 8 55
M  V30 62 1 8 56
M  V30 63 1 11 57
M  V30 64 1 15 58
M  V30 65 1 17 59
M  V30 66 1 18 60
M  V30 67 1 21 61
M  V30 68 1 26 62
M  V30 69 1 26 63
M  V30 70 1 31 64
M  V30 71 1 32 65
M  V30 72 1 35 66
M  V30 73 1 36 67
M  V30 74 1 37 68
M  V30 75 1 37 69
M  V30 76 1 38 70
M  V30 77 1 38 71
M  V30 78 1 41 72
M  V30 79 1 43 73
M  V30 80 1 43 74
M  V30 81 1 44 75
M  V30 82 1 44 76
M  V30 83 1 45 77
M  V30 END BOND
M  V30 END CTAB
M  END
>  <Dataset>  (301) 
ChEMBL_Kinases

>  <Ligand_Instance>  (301) 
nan

>  <PDB_ID>  (301) 
nan

>  <Standardized_SMILES>  (301) 
Cn1cc(CN2CCN(c3cc(C(=O)Nc4ccc5c(c4)-c4c(c(C(N)=O)nn4-c4ccc(F)cc4)CC5)c(Cl)cn3)CC2)cn1

>  <Name>  (301) 
nan

>  <Pocket>  (301) 
nan

>  <ATP_Site>  (301) 
nan

>  <Peripheral>  (301) 
nan

>  <Num_H_Atoms_ProtBoundConf>  (301) 
nan

>  <Num_Resolved_Atoms>  (301) 
nan

>  <Num_Not_Resolved_Atoms>  (301) 
nan

$$$$
CHEMBL1669551
     RDKit          3D

  0  0  0  0  0  0  0  0  0  0999 V3000
M  V30 BEGIN CTAB
M  V30 COUNTS 68 73 0 0 0
M  V30 BEGIN ATOM
M  V30 1 C 3.961660 -4.803466 5.856203 0
M  V30 2 N 3.732152 -4.200596 4.558206 0
M  V30 3 C 2.568461 -3.387696 4.524437 0
M  V30 4 C 2.786068 -1.912628 4.480851 0
M  V30 5 N 3.845234 -1.477810 3.611875 0
M  V30 6 C 3.825310 -0.516093 2.563268 0
M  V30 7 C 2.654953 0.112194 2.195534 0
M  V30 8 C 2.692303 1.058673 1.162024 0
M  V30 9 C 1.360047 1.637956 0.896592 0
M  V30 10 O 0.510646 2.246610 1.598139 0
M  V30 11 N 1.061533 1.407261 -0.479958 0
M  V30 12 C -0.106735 1.770939 -1.237263 0
M  V30 13 C -0.205279 2.997155 -1.880663 0
M  V30 14 C -1.332305 3.323334 -2.602627 0
M  V30 15 C -2.400989 2.457218 -2.718180 0
M  V30 16 C -2.291889 1.245873 -2.076898 0
M  V30 17 C -1.188368 0.893785 -1.353810 0
M  V30 18 C -3.394333 0.336485 -2.195469 0
M  V30 19 C -4.453873 0.780852 -2.947068 0
M  V30 20 C -5.379480 -0.259066 -2.916814 0
M  V30 21 C -6.714929 -0.482270 -3.486756 0
M  V30 22 N -7.265737 0.575630 -4.270483 0
M  V30 23 O -7.503913 -1.476513 -3.412257 0
M  V30 24 N -4.834829 -1.241515 -2.167101 0
M  V30 25 N -3.623140 -0.874761 -1.728977 0
M  V30 26 C -2.847466 -1.743092 -0.918737 0
M  V30 27 C -2.008099 -2.611444 -1.633112 0
M  V30 28 C -1.188589 -3.531332 -0.992701 0
M  V30 29 C -1.186245 -3.607902 0.383280 0
M  V30 30 C -2.008089 -2.757433 1.084408 0
M  V30 31 O -2.053620 -2.780542 2.467765 0
M  V30 32 C -2.832368 -1.834765 0.482190 0
M  V30 33 C -4.666544 2.038652 -3.659597 0
M  V30 34 C -3.511429 2.995917 -3.530610 0
M  V30 35 C 3.901348 1.350703 0.524918 0
M  V30 36 Cl 3.784881 2.538789 -0.725038 0
M  V30 37 C 5.019467 0.670310 0.962185 0
M  V30 38 N 4.964987 -0.234893 1.955040 0
M  V30 39 C 5.056131 -2.198567 3.955494 0
M  V30 40 C 4.909477 -3.682567 3.955347 0
M  V30 41 H 4.675868 -4.143089 6.404307 0
M  V30 42 H 4.303834 -5.833869 5.734299 0
M  V30 43 H 3.000055 -4.772428 6.408829 0
M  V30 44 H 1.933983 -3.713210 3.655710 0
M  V30 45 H 1.960531 -3.641619 5.429947 0
M  V30 46 H 3.110542 -1.592579 5.518400 0
M  V30 47 H 1.819308 -1.418510 4.337583 0
M  V30 48 H 1.772185 -0.169585 2.734224 0
M  V30 49 H 1.620279 0.927601 -1.238748 0
M  V30 50 H 0.652511 3.678225 -1.781076 0
M  V30 51 H -1.285002 4.304036 -3.054238 0
M  V30 52 H -1.059875 -0.020303 -0.847859 0
M  V30 53 H -8.174815 0.977187 -3.943662 0
M  V30 54 H -7.445883 1.303530 -4.988559 0
M  V30 55 H -1.976489 -2.587213 -2.730605 0
M  V30 56 H -0.555656 -4.181858 -1.606880 0
M  V30 57 H -0.560572 -4.314595 0.912383 0
M  V30 58 H -1.316793 -3.280377 2.971799 0
M  V30 59 H -3.500694 -1.138419 0.964795 0
M  V30 60 H -4.852907 1.868615 -4.754517 0
M  V30 61 H -5.592968 2.511206 -3.262299 0
M  V30 62 H -3.162074 3.338304 -4.530968 0
M  V30 63 H -3.923639 3.940114 -3.062295 0
M  V30 64 H 5.912809 0.943982 0.430653 0
M  V30 65 H 5.506190 -1.807456 4.894109 0
M  V30 66 H 5.817852 -1.964718 3.149708 0
M  V30 67 H 5.091656 -4.135904 2.942257 0
M  V30 68 H 5.776133 -4.081319 4.563833 0
M  V30 END ATOM
M  V30 BEGIN BOND
M  V30 1 1 1 2
M  V30 2 1 2 3
M  V30 3 1 3 4
M  V30 4 1 4 5
M  V30 5 1 5 6
M  V30 6 2 6 7
M  V30 7 1 7 8
M  V30 8 1 8 9
M  V30 9 2 9 10
M  V30 10 1 9 11
M  V30 11 1 11 12
M  V30 12 2 12 13
M  V30 13 1 13 14
M  V30 14 2 14 15
M  V30 15 1 15 16
M  V30 16 2 16 17
M  V30 17 1 16 18
M  V30 18 2 18 19
M  V30 19 1 19 20
M  V30 20 1 20 21
M  V30 21 1 21 22
M  V30 22 2 21 23
M  V30 23 2 20 24
M  V30 24 1 24 25
M  V30 25 1 25 26
M  V30 26 2 26 27
M  V30 27 1 27 28
M  V30 28 2 28 29
M  V30 29 1 29 30
M  V30 30 1 30 31
M  V30 31 2 30 32
M  V30 32 1 19 33
M  V30 33 1 33 34
M  V30 34 2 8 35
M  V30 35 1 35 36
M  V30 36 1 35 37
M  V30 37 2 37 38
M  V30 38 1 5 39
M  V30 39 1 39 40
M  V30 40 1 40 2
M  V30 41 1 38 6
M  V30 42 1 17 12
M  V30 43 1 25 18
M  V30 44 1 32 26
M  V30 45 1 34 15
M  V30 46 1 1 41
M  V30 47 1 1 42
M  V30 48 1 1 43
M  V30 49 1 3 44
M  V30 50 1 3 45
M  V30 51 1 4 46
M  V30 52 1 4 47
M  V30 53 1 7 48
M  V30 54 1 11 49
M  V30 55 1 13 50
M  V30 56 1 14 51
M  V30 57 1 17 52
M  V30 58 1 22 53
M  V30 59 1 22 54
M  V30 60 1 27 55
M  V30 61 1 28 56
M  V30 62 1 29 57
M  V30 63 1 31 58
M  V30 64 1 32 59
M  V30 65 1 33 60
M  V30 66 1 33 61
M  V30 67 1 34 62
M  V30 68 1 34 63
M  V30 69 1 37 64
M  V30 70 1 39 65
M  V30 71 1 39 66
M  V30 72 1 40 67
M  V30 73 1 40 68
M  V30 END BOND
M  V30 END CTAB
M  END
>  <Dataset>  (302) 
ChEMBL_Kinases

>  <Ligand_Instance>  (302) 
nan

>  <PDB_ID>  (302) 
nan

>  <Standardized_SMILES>  (302) 
CN1CCN(c2cc(C(=O)Nc3ccc4c(c3)-c3c(c(C(N)=O)nn3-c3cccc(O)c3)CC4)c(Cl)cn2)CC1

>  <Name>  (302) 
nan

>  <Pocket>  (302) 
nan

>  <ATP_Site>  (302) 
nan

>  <Peripheral>  (302) 
nan

>  <Num_H_Atoms_ProtBoundConf>  (302) 
nan

>  <Num_Resolved_Atoms>  (302) 
nan

>  <Num_Not_Resolved_Atoms>  (302) 
nan

$$$$
CHEMBL1667965
     RDKit          3D

  0  0  0  0  0  0  0  0  0  0999 V3000
M  V30 BEGIN CTAB
M  V30 COUNTS 46 49 0 0 0
M  V30 BEGIN ATOM
M  V30 1 C 1.148269 -5.131259 1.486230 0
M  V30 2 C 2.180025 -4.942881 0.574933 0
M  V30 3 C 1.828067 -4.204100 -0.534634 0
M  V30 4 C 0.585599 -3.669437 -0.784141 0
M  V30 5 C 0.303960 -2.880431 -2.022705 0
M  V30 6 N 0.536098 -1.506249 -1.891805 0
M  V30 7 C 0.299852 -0.673946 -2.996507 0
M  V30 8 C 0.074572 0.775842 -2.681737 0
M  V30 9 C 1.026519 1.231052 -1.590955 0
M  V30 10 C 0.672963 0.374727 -0.368494 0 CFG=2
M  V30 11 O 1.218264 0.882938 0.801290 0
M  V30 12 C 0.589208 1.346511 1.917634 0
M  V30 13 C 1.497398 1.773215 2.884269 0
M  V30 14 C 1.075169 2.287208 4.110675 0
M  V30 15 C -0.282185 2.362705 4.343799 0
M  V30 16 C -0.802106 2.854969 5.523106 0
M  V30 17 N -2.123433 2.928690 5.750545 0
M  V30 18 C -3.039068 2.525057 4.838296 0
M  V30 19 C -2.563619 2.024977 3.642491 0
M  V30 20 C -1.206731 1.948394 3.406908 0
M  V30 21 C -0.762870 1.444390 2.203106 0
M  V30 22 C 1.089599 -1.011947 -0.710039 0
M  V30 23 C -0.398318 -3.898529 0.172595 0
M  V30 24 C -0.121574 -4.630643 1.312389 0
M  V30 25 H 1.330390 -5.701363 2.392538 0
M  V30 26 H 3.175018 -5.336786 0.714199 0
M  V30 27 H 2.641741 -4.051959 -1.259686 0
M  V30 28 H -0.706450 -3.114196 -2.387257 0
M  V30 29 H 1.020597 -3.300259 -2.788424 0
M  V30 30 H -0.594686 -1.055155 -3.536617 0
M  V30 31 H 1.146898 -0.736635 -3.710394 0
M  V30 32 H 0.215438 1.434892 -3.552481 0
M  V30 33 H -0.951879 0.955694 -2.302288 0
M  V30 34 H 2.039270 0.939649 -1.915760 0
M  V30 35 H 0.905260 2.298646 -1.390585 0
M  V30 36 H -0.438478 0.393275 -0.267583 0
M  V30 37 H 2.585343 1.759598 2.807623 0
M  V30 38 H 1.736412 2.627276 4.883825 0
M  V30 39 H -0.069663 3.184709 6.268980 0
M  V30 40 H -4.097772 2.589295 5.032040 0
M  V30 41 H -3.248463 1.681240 2.861724 0
M  V30 42 H -1.391150 1.097591 1.412982 0
M  V30 43 H 0.823702 -1.693505 0.123601 0
M  V30 44 H 2.208313 -0.978224 -0.859042 0
M  V30 45 H -1.368076 -3.461274 -0.057302 0
M  V30 46 H -0.899125 -4.790230 2.030557 0
M  V30 END ATOM
M  V30 BEGIN BOND
M  V30 1 2 1 2
M  V30 2 1 2 3
M  V30 3 2 3 4
M  V30 4 1 4 5
M  V30 5 1 5 6
M  V30 6 1 6 7
M  V30 7 1 7 8
M  V30 8 1 8 9
M  V30 9 1 9 10
M  V30 10 1 10 11
M  V30 11 1 11 12
M  V30 12 2 12 13
M  V30 13 1 13 14
M  V30 14 2 14 15
M  V30 15 1 15 16
M  V30 16 2 16 17
M  V30 17 1 17 18
M  V30 18 2 18 19
M  V30 19 1 19 20
M  V30 20 2 20 21
M  V30 21 1 10 22
M  V30 22 1 4 23
M  V30 23 2 23 24
M  V30 24 1 24 1
M  V30 25 1 22 6
M  V30 26 1 21 12
M  V30 27 1 20 15
M  V30 28 1 1 25
M  V30 29 1 2 26
M  V30 30 1 3 27
M  V30 31 1 5 28
M  V30 32 1 5 29
M  V30 33 1 7 30
M  V30 34 1 7 31
M  V30 35 1 8 32
M  V30 36 1 8 33
M  V30 37 1 9 34
M  V30 38 1 9 35
M  V30 39 1 10 36 CFG=1
M  V30 40 1 13 37
M  V30 41 1 14 38
M  V30 42 1 16 39
M  V30 43 1 18 40
M  V30 44 1 19 41
M  V30 45 1 21 42
M  V30 46 1 22 43
M  V30 47 1 22 44
M  V30 48 1 23 45
M  V30 49 1 24 46
M  V30 END BOND
M  V30 END CTAB
M  END
>  <Dataset>  (303) 
ChEMBL_Kinases

>  <Ligand_Instance>  (303) 
nan

>  <PDB_ID>  (303) 
nan

>  <Standardized_SMILES>  (303) 
c1ccc(CN2CCC[C@H](Oc3ccc4cnccc4c3)C2)cc1

>  <Name>  (303) 
nan

>  <Pocket>  (303) 
nan

>  <ATP_Site>  (303) 
nan

>  <Peripheral>  (303) 
nan

>  <Num_H_Atoms_ProtBoundConf>  (303) 
nan

>  <Num_Resolved_Atoms>  (303) 
nan

>  <Num_Not_Resolved_Atoms>  (303) 
nan

$$$$
CHEMBL166031
     RDKit          3D

  0  0  0  0  0  0  0  0  0  0999 V3000
M  V30 BEGIN CTAB
M  V30 COUNTS 46 48 0 0 0
M  V30 BEGIN ATOM
M  V30 1 C -0.707747 -4.778418 0.118641 0
M  V30 2 C 0.204503 -5.398958 -0.918475 0
M  V30 3 C 0.855382 -6.621827 -0.334315 0
M  V30 4 C -0.684042 -5.758346 -2.111491 0
M  V30 5 C 1.198134 -4.370887 -1.332505 0
M  V30 6 C 1.267841 -3.078574 -0.849260 0
M  V30 7 C 2.311295 -2.414080 -1.458338 0
M  V30 8 N 2.781600 -1.078085 -1.297702 0
M  V30 9 C 2.190691 -0.146138 -0.403541 0
M  V30 10 O 1.216727 -0.464814 0.291571 0
M  V30 11 N 2.696754 1.189332 -0.273557 0
M  V30 12 C 2.028012 2.043952 0.654366 0
M  V30 13 C 2.282270 2.239198 2.000544 0
M  V30 14 C 1.506632 3.117187 2.706955 0
M  V30 15 C 0.483228 3.811174 2.122002 0
M  V30 16 O -0.302821 4.704049 2.848026 0
M  V30 17 C -1.460216 4.214068 3.475483 0
M  V30 18 C -1.515160 3.703041 4.776466 0
M  V30 19 C -2.733328 3.262811 5.240161 0
M  V30 20 N -3.850935 3.302344 4.509948 0
M  V30 21 C -3.823028 3.790829 3.252540 0
M  V30 22 C -2.619752 4.255028 2.718023 0
M  V30 23 C 0.208572 3.637192 0.788439 0
M  V30 24 C 0.983548 2.748276 0.044499 0
M  V30 25 N 2.834937 -3.332380 -2.289545 0
M  V30 26 O 2.178923 -4.451323 -2.201008 0
M  V30 27 H -0.179287 -4.355992 0.974538 0
M  V30 28 H -1.288048 -3.973220 -0.411769 0
M  V30 29 H -1.483483 -5.527863 0.416049 0
M  V30 30 H 0.022687 -7.358212 -0.174856 0
M  V30 31 H 1.628554 -7.058333 -0.963062 0
M  V30 32 H 1.250522 -6.386014 0.661554 0
M  V30 33 H -0.951371 -4.760111 -2.565012 0
M  V30 34 H -1.597066 -6.247712 -1.774545 0
M  V30 35 H -0.120794 -6.312990 -2.882409 0
M  V30 36 H 0.607612 -2.668884 -0.115343 0
M  V30 37 H 3.596400 -0.749883 -1.853353 0
M  V30 38 H 3.526289 1.427394 -0.879588 0
M  V30 39 H 3.105281 1.647821 2.362249 0
M  V30 40 H 1.744341 3.237516 3.762329 0
M  V30 41 H -0.564369 3.721990 5.260647 0
M  V30 42 H -2.684619 2.884655 6.253029 0
M  V30 43 H -4.749817 3.799579 2.709634 0
M  V30 44 H -2.602880 4.649135 1.700374 0
M  V30 45 H -0.603559 4.191126 0.334752 0
M  V30 46 H 0.699882 2.668878 -1.005244 0
M  V30 END ATOM
M  V30 BEGIN BOND
M  V30 1 1 1 2
M  V30 2 1 2 3
M  V30 3 1 2 4
M  V30 4 1 2 5
M  V30 5 2 5 6
M  V30 6 1 6 7
M  V30 7 1 7 8
M  V30 8 1 8 9
M  V30 9 2 9 10
M  V30 10 1 9 11
M  V30 11 1 11 12
M  V30 12 2 12 13
M  V30 13 1 13 14
M  V30 14 2 14 15
M  V30 15 1 15 16
M  V30 16 1 16 17
M  V30 17 2 17 18
M  V30 18 1 18 19
M  V30 19 2 19 20
M  V30 20 1 20 21
M  V30 21 2 21 22
M  V30 22 1 15 23
M  V30 23 2 23 24
M  V30 24 2 7 25
M  V30 25 1 25 26
M  V30 26 1 26 5
M  V30 27 1 24 12
M  V30 28 1 22 17
M  V30 29 1 1 27
M  V30 30 1 1 28
M  V30 31 1 1 29
M  V30 32 1 3 30
M  V30 33 1 3 31
M  V30 34 1 3 32
M  V30 35 1 4 33
M  V30 36 1 4 34
M  V30 37 1 4 35
M  V30 38 1 6 36
M  V30 39 1 8 37
M  V30 40 1 11 38
M  V30 41 1 13 39
M  V30 42 1 14 40
M  V30 43 1 18 41
M  V30 44 1 19 42
M  V30 45 1 21 43
M  V30 46 1 22 44
M  V30 47 1 23 45
M  V30 48 1 24 46
M  V30 END BOND
M  V30 END CTAB
M  END
>  <Dataset>  (304) 
ChEMBL_Kinases

>  <Ligand_Instance>  (304) 
nan

>  <PDB_ID>  (304) 
nan

>  <Standardized_SMILES>  (304) 
CC(C)(C)c1cc(NC(=O)Nc2ccc(Oc3ccncc3)cc2)no1

>  <Name>  (304) 
nan

>  <Pocket>  (304) 
nan

>  <ATP_Site>  (304) 
nan

>  <Peripheral>  (304) 
nan

>  <Num_H_Atoms_ProtBoundConf>  (304) 
nan

>  <Num_Resolved_Atoms>  (304) 
nan

>  <Num_Not_Resolved_Atoms>  (304) 
nan

$$$$
CHEMBL1652742
     RDKit          3D

  0  0  0  0  0  0  0  0  0  0999 V3000
M  V30 BEGIN CTAB
M  V30 COUNTS 39 43 0 0 0
M  V30 BEGIN ATOM
M  V30 1 Cl 4.941797 -4.474476 4.419354 0
M  V30 2 C 3.654664 -3.475504 3.804550 0
M  V30 3 C 2.801599 -2.888792 4.705312 0
M  V30 4 C 1.771852 -2.091813 4.245250 0
M  V30 5 C 1.641430 -1.916027 2.879735 0
M  V30 6 C 2.468959 -2.481104 1.938425 0
M  V30 7 N 2.283066 -2.262205 0.534140 0
M  V30 8 C 1.148585 -1.443043 0.225689 0
M  V30 9 N 1.211225 -0.082239 0.169049 0
M  V30 10 C 0.089991 0.635360 -0.132813 0
M  V30 11 C 0.267140 2.006222 -0.162450 0
M  V30 12 C -0.881560 2.722831 -0.470152 0
M  V30 13 C -0.802578 4.193150 -0.526256 0
M  V30 14 N 0.290607 4.945059 -0.305155 0
M  V30 15 N -0.005730 6.227498 -0.439623 0
M  V30 16 N -1.272572 6.300827 -0.743258 0
M  V30 17 N -1.776121 5.070042 -0.800923 0
M  V30 18 C -2.101339 2.130457 -0.726204 0
M  V30 19 C -2.194556 0.744814 -0.675911 0
M  V30 20 C -1.093788 -0.023846 -0.377073 0
M  V30 21 C -1.180670 -1.393191 -0.326060 0
M  V30 22 C -2.376145 -2.020515 -0.575006 0
M  V30 23 N -2.452457 -3.352448 -0.522958 0
M  V30 24 C -1.371709 -4.096698 -0.229111 0
M  V30 25 C -0.138983 -3.485229 0.028941 0
M  V30 26 C -0.043098 -2.109390 -0.020614 0
M  V30 27 C 3.476859 -3.264937 2.452107 0
M  V30 28 H 2.903289 -3.025728 5.766552 0
M  V30 29 H 1.088465 -1.619908 4.956532 0
M  V30 30 H 0.810873 -1.276618 2.567725 0
M  V30 31 H 2.998209 -2.726245 -0.095125 0
M  V30 32 H 1.226485 2.466158 0.039634 0
M  V30 33 H -2.774644 4.843453 -1.026073 0
M  V30 34 H -2.955409 2.784871 -0.961347 0
M  V30 35 H -3.179167 0.370901 -0.888117 0
M  V30 36 H -3.303878 -1.541725 -0.818675 0
M  V30 37 H -1.487212 -5.191931 -0.200617 0
M  V30 38 H 0.726534 -4.088058 0.266557 0
M  V30 39 H 4.176952 -3.750776 1.770084 0
M  V30 END ATOM
M  V30 BEGIN BOND
M  V30 1 1 1 2
M  V30 2 2 2 3
M  V30 3 1 3 4
M  V30 4 2 4 5
M  V30 5 1 5 6
M  V30 6 1 6 7
M  V30 7 1 7 8
M  V30 8 2 8 9
M  V30 9 1 9 10
M  V30 10 2 10 11
M  V30 11 1 11 12
M  V30 12 1 12 13
M  V30 13 2 13 14
M  V30 14 1 14 15
M  V30 15 2 15 16
M  V30 16 1 16 17
M  V30 17 2 12 18
M  V30 18 1 18 19
M  V30 19 2 19 20
M  V30 20 1 20 21
M  V30 21 2 21 22
M  V30 22 1 22 23
M  V30 23 2 23 24
M  V30 24 1 24 25
M  V30 25 2 25 26
M  V30 26 2 6 27
M  V30 27 1 27 2
M  V30 28 1 26 8
M  V30 29 1 20 10
M  V30 30 1 26 21
M  V30 31 1 17 13
M  V30 32 1 3 28
M  V30 33 1 4 29
M  V30 34 1 5 30
M  V30 35 1 7 31
M  V30 36 1 11 32
M  V30 37 1 17 33
M  V30 38 1 18 34
M  V30 39 1 19 35
M  V30 40 1 22 36
M  V30 41 1 24 37
M  V30 42 1 25 38
M  V30 43 1 27 39
M  V30 END BOND
M  V30 END CTAB
M  END
>  <Dataset>  (305) 
ChEMBL_Kinases

>  <Ligand_Instance>  (305) 
nan

>  <PDB_ID>  (305) 
nan

>  <Standardized_SMILES>  (305) 
Clc1cccc(Nc2nc3cc(-c4nnn[nH]4)ccc3c3cnccc23)c1

>  <Name>  (305) 
nan

>  <Pocket>  (305) 
nan

>  <ATP_Site>  (305) 
nan

>  <Peripheral>  (305) 
nan

>  <Num_H_Atoms_ProtBoundConf>  (305) 
nan

>  <Num_Resolved_Atoms>  (305) 
nan

>  <Num_Not_Resolved_Atoms>  (305) 
nan

$$$$
CHEMBL1652737
     RDKit          3D

  0  0  0  0  0  0  0  0  0  0999 V3000
M  V30 BEGIN CTAB
M  V30 COUNTS 39 42 0 0 0
M  V30 BEGIN ATOM
M  V30 1 C 2.029055 -7.588753 0.127245 0
M  V30 2 C 2.003076 -6.385636 0.173718 0
M  V30 3 C 1.986343 -4.937820 0.250537 0
M  V30 4 C 3.141755 -4.159801 0.377532 0
M  V30 5 C 3.028760 -2.770539 0.446837 0
M  V30 6 C 1.746512 -2.216701 0.384433 0
M  V30 7 C 0.624243 -3.005487 0.259513 0
M  V30 8 N -0.618711 -2.315395 0.210794 0
M  V30 9 C -0.630650 -0.914780 0.467888 0
M  V30 10 N -0.346427 0.066077 -0.403988 0
M  V30 11 C -0.403266 1.356342 -0.037212 0
M  V30 12 C -0.103094 2.348967 -0.961036 0
M  V30 13 C -0.151332 3.675959 -0.619284 0
M  V30 14 C 0.162265 4.720109 -1.585875 0
M  V30 15 O 0.493889 4.445561 -2.765127 0
M  V30 16 O 0.132166 6.065766 -1.325775 0
M  V30 17 C -0.507971 4.023623 0.675612 0
M  V30 18 C -0.802781 3.002076 1.576844 0
M  V30 19 C -0.767116 1.661301 1.279031 0
M  V30 20 C -1.062024 0.693842 2.189722 0
M  V30 21 C -1.416747 1.066692 3.466418 0
M  V30 22 N -1.705526 0.083575 4.338225 0
M  V30 23 C -1.659460 -1.218838 4.008266 0
M  V30 24 C -1.302421 -1.572032 2.725386 0
M  V30 25 C -0.989225 -0.619632 1.765553 0
M  V30 26 C 0.723680 -4.376081 0.190512 0
M  V30 27 H 2.068749 -8.648199 0.078179 0
M  V30 28 H 4.082480 -4.668486 0.415005 0
M  V30 29 H 3.935777 -2.156055 0.544403 0
M  V30 30 H 1.739207 -1.118346 0.445115 0
M  V30 31 H -1.470734 -2.894675 -0.014353 0
M  V30 32 H 0.169456 2.014000 -1.958734 0
M  V30 33 H 0.893138 6.698476 -1.580015 0
M  V30 34 H -0.537287 5.069878 0.914991 0
M  V30 35 H -1.063076 3.393020 2.542379 0
M  V30 36 H -1.488670 2.064829 3.849629 0
M  V30 37 H -1.908561 -1.958574 4.766648 0
M  V30 38 H -1.258056 -2.603289 2.432925 0
M  V30 39 H -0.180453 -4.961781 0.094170 0
M  V30 END ATOM
M  V30 BEGIN BOND
M  V30 1 3 1 2
M  V30 2 1 2 3
M  V30 3 2 3 4
M  V30 4 1 4 5
M  V30 5 2 5 6
M  V30 6 1 6 7
M  V30 7 1 7 8
M  V30 8 1 8 9
M  V30 9 2 9 10
M  V30 10 1 10 11
M  V30 11 2 11 12
M  V30 12 1 12 13
M  V30 13 1 13 14
M  V30 14 2 14 15
M  V30 15 1 14 16
M  V30 16 2 13 17
M  V30 17 1 17 18
M  V30 18 2 18 19
M  V30 19 1 19 20
M  V30 20 2 20 21
M  V30 21 1 21 22
M  V30 22 2 22 23
M  V30 23 1 23 24
M  V30 24 2 24 25
M  V30 25 2 7 26
M  V30 26 1 26 3
M  V30 27 1 25 9
M  V30 28 1 19 11
M  V30 29 1 25 20
M  V30 30 1 1 27
M  V30 31 1 4 28
M  V30 32 1 5 29
M  V30 33 1 6 30
M  V30 34 1 8 31
M  V30 35 1 12 32
M  V30 36 1 16 33
M  V30 37 1 17 34
M  V30 38 1 18 35
M  V30 39 1 21 36
M  V30 40 1 23 37
M  V30 41 1 24 38
M  V30 42 1 26 39
M  V30 END BOND
M  V30 END CTAB
M  END
>  <Dataset>  (306) 
ChEMBL_Kinases

>  <Ligand_Instance>  (306) 
nan

>  <PDB_ID>  (306) 
nan

>  <Standardized_SMILES>  (306) 
C#Cc1cccc(Nc2nc3cc(C(=O)O)ccc3c3cnccc23)c1

>  <Name>  (306) 
nan

>  <Pocket>  (306) 
nan

>  <ATP_Site>  (306) 
nan

>  <Peripheral>  (306) 
nan

>  <Num_H_Atoms_ProtBoundConf>  (306) 
nan

>  <Num_Resolved_Atoms>  (306) 
nan

>  <Num_Not_Resolved_Atoms>  (306) 
nan

$$$$
CHEMBL1652716
     RDKit          3D

  0  0  0  0  0  0  0  0  0  0999 V3000
M  V30 BEGIN CTAB
M  V30 COUNTS 35 37 0 0 0
M  V30 BEGIN ATOM
M  V30 1 O 1.565791 -4.393363 4.623850 0
M  V30 2 C 0.661315 -3.879619 3.908691 0
M  V30 3 O -0.677552 -4.196497 4.087834 0
M  V30 4 C 1.076770 -2.934761 2.880526 0
M  V30 5 C 2.406089 -2.626582 2.710068 0
M  V30 6 C 2.850928 -1.730173 1.741612 0
M  V30 7 C 1.878959 -1.156553 0.948313 0
M  V30 8 C 0.547890 -1.466072 1.120070 0
M  V30 9 C 0.116920 -2.353416 2.080031 0
M  V30 10 N -0.221819 -0.804688 0.253857 0
M  V30 11 C 0.159830 0.056912 -0.683356 0
M  V30 12 N -0.938994 0.566886 -1.423677 0
M  V30 13 C -2.340342 0.246596 -1.247907 0
M  V30 14 C -2.846805 0.626653 0.141827 0
M  V30 15 C -2.660442 2.104531 0.319969 0
M  V30 16 O -1.287514 2.359275 0.189017 0
M  V30 17 C 1.494522 0.357734 -0.844620 0
M  V30 18 C 1.883600 1.235343 -1.799199 0
M  V30 19 C 3.385547 1.384053 -1.762590 0
M  V30 20 S 3.944394 0.242974 -0.374360 0
M  V30 21 C 2.356057 -0.280496 0.007675 0
M  V30 22 H -0.982337 -4.803711 4.856828 0
M  V30 23 H 3.146863 -3.098073 3.354090 0
M  V30 24 H 3.912376 -1.499827 1.623576 0
M  V30 25 H -0.945236 -2.539727 2.147375 0
M  V30 26 H -0.719926 1.263493 -2.196698 0
M  V30 27 H -2.959518 0.631898 -2.057481 0
M  V30 28 H -2.481544 -0.875499 -1.282884 0
M  V30 29 H -3.942223 0.388461 0.166275 0
M  V30 30 H -2.359120 -0.003018 0.891187 0
M  V30 31 H -3.232926 2.587002 -0.519115 0
M  V30 32 H -3.068871 2.422102 1.285577 0
M  V30 33 H -1.177395 3.329884 -0.018175 0
M  V30 34 H 1.402154 1.826515 -2.544926 0
M  V30 35 H 3.946723 2.140309 -2.553970 0
M  V30 END ATOM
M  V30 BEGIN BOND
M  V30 1 2 1 2
M  V30 2 1 2 3
M  V30 3 1 2 4
M  V30 4 2 4 5
M  V30 5 1 5 6
M  V30 6 2 6 7
M  V30 7 1 7 8
M  V30 8 2 8 9
M  V30 9 1 8 10
M  V30 10 2 10 11
M  V30 11 1 11 12
M  V30 12 1 12 13
M  V30 13 1 13 14
M  V30 14 1 14 15
M  V30 15 1 15 16
M  V30 16 1 11 17
M  V30 17 1 17 18
M  V30 18 2 18 19
M  V30 19 1 19 20
M  V30 20 1 20 21
M  V30 21 1 9 4
M  V30 22 2 21 17
M  V30 23 1 21 7
M  V30 24 1 3 22
M  V30 25 1 5 23
M  V30 26 1 6 24
M  V30 27 1 9 25
M  V30 28 1 12 26
M  V30 29 1 13 27
M  V30 30 1 13 28
M  V30 31 1 14 29
M  V30 32 1 14 30
M  V30 33 1 15 31
M  V30 34 1 15 32
M  V30 35 1 16 33
M  V30 36 1 18 34
M  V30 37 1 19 35
M  V30 END BOND
M  V30 END CTAB
M  END
>  <Dataset>  (307) 
ChEMBL_Kinases

>  <Ligand_Instance>  (307) 
nan

>  <PDB_ID>  (307) 
nan

>  <Standardized_SMILES>  (307) 
O=C(O)c1ccc2c(c1)nc(NCCCO)c1ccsc12

>  <Name>  (307) 
nan

>  <Pocket>  (307) 
nan

>  <ATP_Site>  (307) 
nan

>  <Peripheral>  (307) 
nan

>  <Num_H_Atoms_ProtBoundConf>  (307) 
nan

>  <Num_Resolved_Atoms>  (307) 
nan

>  <Num_Not_Resolved_Atoms>  (307) 
nan

$$$$
CHEMBL1652715
     RDKit          3D

  0  0  0  0  0  0  0  0  0  0999 V3000
M  V30 BEGIN CTAB
M  V30 COUNTS 34 36 0 0 0
M  V30 BEGIN ATOM
M  V30 1 O 2.941591 -3.811234 4.031866 0
M  V30 2 C 2.436951 -4.334597 3.030507 0
M  V30 3 O 2.690999 -5.703839 3.034201 0
M  V30 4 C 1.672220 -3.727681 1.942145 0
M  V30 5 C 1.198652 -4.515138 0.911576 0
M  V30 6 C 0.477419 -3.931348 -0.111390 0
M  V30 7 C 0.252045 -2.561791 -0.067159 0
M  V30 8 C 0.743570 -1.813763 0.981248 0
M  V30 9 C 1.462998 -2.345684 2.017104 0
M  V30 10 N 0.434412 -0.521396 0.862189 0
M  V30 11 C -0.258621 0.070028 -0.111447 0
M  V30 12 O -0.441886 1.442679 0.003908 0
M  V30 13 C 0.064176 2.183653 1.074355 0
M  V30 14 C -0.301121 3.639522 0.911939 0
M  V30 15 C -1.815581 3.790889 0.874895 0
M  V30 16 O -2.182938 5.129220 0.724857 0
M  V30 17 C -0.747027 -0.687317 -1.157514 0
M  V30 18 C -1.465459 -0.177921 -2.198640 0
M  V30 19 C -1.874561 -1.137276 -3.174482 0
M  V30 20 S -1.173433 -2.764117 -2.504733 0
M  V30 21 C -0.470572 -2.028473 -1.107909 0
M  V30 22 H 2.750834 -6.277208 3.865625 0
M  V30 23 H 1.383031 -5.583318 0.891409 0
M  V30 24 H 0.111492 -4.549359 -0.910637 0
M  V30 25 H 1.814876 -1.717348 2.796085 0
M  V30 26 H -0.255844 1.843142 2.058621 0
M  V30 27 H 1.171004 2.088766 1.027296 0
M  V30 28 H 0.042345 4.195056 1.811007 0
M  V30 29 H 0.160966 4.119771 0.031523 0
M  V30 30 H -2.260040 3.462863 1.832927 0
M  V30 31 H -2.176311 3.245934 -0.010950 0
M  V30 32 H -2.142857 5.545665 1.610138 0
M  V30 33 H -1.774790 0.832301 -2.404474 0
M  V30 34 H -2.470148 -0.944165 -4.107843 0
M  V30 END ATOM
M  V30 BEGIN BOND
M  V30 1 2 1 2
M  V30 2 1 2 3
M  V30 3 1 2 4
M  V30 4 2 4 5
M  V30 5 1 5 6
M  V30 6 2 6 7
M  V30 7 1 7 8
M  V30 8 2 8 9
M  V30 9 1 8 10
M  V30 10 2 10 11
M  V30 11 1 11 12
M  V30 12 1 12 13
M  V30 13 1 13 14
M  V30 14 1 14 15
M  V30 15 1 15 16
M  V30 16 1 11 17
M  V30 17 1 17 18
M  V30 18 2 18 19
M  V30 19 1 19 20
M  V30 20 1 20 21
M  V30 21 1 9 4
M  V30 22 2 21 17
M  V30 23 1 21 7
M  V30 24 1 3 22
M  V30 25 1 5 23
M  V30 26 1 6 24
M  V30 27 1 9 25
M  V30 28 1 13 26
M  V30 29 1 13 27
M  V30 30 1 14 28
M  V30 31 1 14 29
M  V30 32 1 15 30
M  V30 33 1 15 31
M  V30 34 1 16 32
M  V30 35 1 18 33
M  V30 36 1 19 34
M  V30 END BOND
M  V30 END CTAB
M  END
>  <Dataset>  (308) 
ChEMBL_Kinases

>  <Ligand_Instance>  (308) 
nan

>  <PDB_ID>  (308) 
nan

>  <Standardized_SMILES>  (308) 
O=C(O)c1ccc2c(c1)nc(OCCCO)c1ccsc12

>  <Name>  (308) 
nan

>  <Pocket>  (308) 
nan

>  <ATP_Site>  (308) 
nan

>  <Peripheral>  (308) 
nan

>  <Num_H_Atoms_ProtBoundConf>  (308) 
nan

>  <Num_Resolved_Atoms>  (308) 
nan

>  <Num_Not_Resolved_Atoms>  (308) 
nan

$$$$
CHEMBL1652714
     RDKit          3D

  0  0  0  0  0  0  0  0  0  0999 V3000
M  V30 BEGIN CTAB
M  V30 COUNTS 34 36 0 0 0
M  V30 BEGIN ATOM
M  V30 1 O 0.115586 -2.861050 4.209985 0
M  V30 2 C 1.153686 -2.723766 3.519301 0
M  V30 3 O 2.212057 -3.500484 3.972007 0
M  V30 4 C 1.307824 -1.861586 2.354376 0
M  V30 5 C 2.534676 -1.825996 1.697946 0
M  V30 6 C 2.696383 -1.006283 0.583368 0
M  V30 7 C 1.598323 -0.276747 0.209688 0
M  V30 8 C 1.733616 0.555592 -0.877935 0
M  V30 9 S 3.137017 0.876875 -1.968123 0
M  V30 10 C 2.259037 2.096508 -3.024544 0
M  V30 11 C 1.029149 2.142847 -2.470455 0
M  V30 12 C 0.701781 1.390744 -1.387535 0
M  V30 13 C -0.486649 1.306118 -0.695004 0
M  V30 14 O -1.473007 2.022348 -1.082955 0
M  V30 15 N -0.614172 0.476499 0.383743 0
M  V30 16 C -1.930895 0.525232 0.982231 0
M  V30 17 C -2.957368 -0.333717 0.357846 0
M  V30 18 C -2.770995 -1.795855 0.313628 0
M  V30 19 O -2.703799 -2.448093 1.533919 0
M  V30 20 C 0.377234 -0.299228 0.845008 0
M  V30 21 C 0.249132 -1.100728 1.921852 0
M  V30 22 H 2.323464 -3.782285 4.945780 0
M  V30 23 H 3.403143 -2.422838 2.017896 0
M  V30 24 H 3.647845 -0.975403 0.070753 0
M  V30 25 H 2.767999 2.533237 -3.811734 0
M  V30 26 H 0.367885 2.827373 -2.979689 0
M  V30 27 H -1.842928 0.323258 2.060737 0
M  V30 28 H -2.329039 1.584737 0.915738 0
M  V30 29 H -3.277087 0.065623 -0.660063 0
M  V30 30 H -3.909759 -0.159952 0.961018 0
M  V30 31 H -1.860500 -2.120690 -0.242538 0
M  V30 32 H -3.640925 -2.289839 -0.217336 0
M  V30 33 H -3.169672 -3.330041 1.547067 0
M  V30 34 H -0.650648 -1.155891 2.472267 0
M  V30 END ATOM
M  V30 BEGIN BOND
M  V30 1 2 1 2
M  V30 2 1 2 3
M  V30 3 1 2 4
M  V30 4 2 4 5
M  V30 5 1 5 6
M  V30 6 2 6 7
M  V30 7 1 7 8
M  V30 8 1 8 9
M  V30 9 1 9 10
M  V30 10 2 10 11
M  V30 11 1 11 12
M  V30 12 1 12 13
M  V30 13 2 13 14
M  V30 14 1 13 15
M  V30 15 1 15 16
M  V30 16 1 16 17
M  V30 17 1 17 18
M  V30 18 1 18 19
M  V30 19 1 15 20
M  V30 20 2 20 21
M  V30 21 1 21 4
M  V30 22 1 20 7
M  V30 23 2 12 8
M  V30 24 1 3 22
M  V30 25 1 5 23
M  V30 26 1 6 24
M  V30 27 1 10 25
M  V30 28 1 11 26
M  V30 29 1 16 27
M  V30 30 1 16 28
M  V30 31 1 17 29
M  V30 32 1 17 30
M  V30 33 1 18 31
M  V30 34 1 18 32
M  V30 35 1 19 33
M  V30 36 1 21 34
M  V30 END BOND
M  V30 END CTAB
M  END
>  <Dataset>  (309) 
ChEMBL_Kinases

>  <Ligand_Instance>  (309) 
nan

>  <PDB_ID>  (309) 
nan

>  <Standardized_SMILES>  (309) 
O=C(O)c1ccc2c3sccc3c(=O)n(CCCO)c2c1

>  <Name>  (309) 
nan

>  <Pocket>  (309) 
nan

>  <ATP_Site>  (309) 
nan

>  <Peripheral>  (309) 
nan

>  <Num_H_Atoms_ProtBoundConf>  (309) 
nan

>  <Num_Resolved_Atoms>  (309) 
nan

>  <Num_Not_Resolved_Atoms>  (309) 
nan

$$$$
CHEMBL1672571
     RDKit          3D

  0  0  0  0  0  0  0  0  0  0999 V3000
M  V30 BEGIN CTAB
M  V30 COUNTS 25 27 0 0 0
M  V30 BEGIN ATOM
M  V30 1 O -2.351612 -1.580443 3.360691 0
M  V30 2 C -1.194387 -1.680302 2.865627 0
M  V30 3 N -0.277165 -2.717789 3.295996 0
M  V30 4 C 0.679919 -3.347101 2.437560 0
M  V30 5 C 1.906192 -2.604602 2.113311 0
M  V30 6 S 1.869766 -0.865239 1.888704 0
M  V30 7 C 0.308982 -0.196734 1.284553 0
M  V30 8 C -0.848065 -0.651653 1.808449 0
M  V30 9 S -2.140965 0.256386 0.958929 0
M  V30 10 C -1.012221 1.177431 -0.036311 0
M  V30 11 C -1.274600 2.159373 -1.017438 0
M  V30 12 C -0.225384 2.759439 -1.683056 0
M  V30 13 C 1.005996 2.320742 -1.305562 0
M  V30 14 O 2.081738 2.931830 -1.983810 0
M  V30 15 C 1.222836 1.361184 -0.344638 0
M  V30 16 C 0.184910 0.744765 0.336939 0
M  V30 17 H -0.458407 -2.902680 4.326717 0
M  V30 18 H 0.226272 -3.745720 1.498151 0
M  V30 19 H 0.991751 -4.291242 2.980587 0
M  V30 20 H 2.706572 -2.846649 2.873843 0
M  V30 21 H 2.332406 -3.064462 1.169491 0
M  V30 22 H -2.303468 2.408547 -1.213865 0
M  V30 23 H -0.511277 3.495954 -2.414087 0
M  V30 24 H 2.875056 2.334160 -2.191919 0
M  V30 25 H 2.290603 1.140169 -0.178898 0
M  V30 END ATOM
M  V30 BEGIN BOND
M  V30 1 2 1 2
M  V30 2 1 2 3
M  V30 3 1 3 4
M  V30 4 1 4 5
M  V30 5 1 5 6
M  V30 6 1 6 7
M  V30 7 2 7 8
M  V30 8 1 8 9
M  V30 9 1 9 10
M  V30 10 2 10 11
M  V30 11 1 11 12
M  V30 12 2 12 13
M  V30 13 1 13 14
M  V30 14 1 13 15
M  V30 15 2 15 16
M  V30 16 1 8 2
M  V30 17 1 16 10
M  V30 18 1 16 7
M  V30 19 1 3 17
M  V30 20 1 4 18
M  V30 21 1 4 19
M  V30 22 1 5 20
M  V30 23 1 5 21
M  V30 24 1 11 22
M  V30 25 1 12 23
M  V30 26 1 14 24
M  V30 27 1 15 25
M  V30 END BOND
M  V30 END CTAB
M  END
>  <Dataset>  (310) 
ChEMBL_Kinases

>  <Ligand_Instance>  (310) 
nan

>  <PDB_ID>  (310) 
nan

>  <Standardized_SMILES>  (310) 
O=C1NCCSc2c1sc1ccc(O)cc21

>  <Name>  (310) 
nan

>  <Pocket>  (310) 
nan

>  <ATP_Site>  (310) 
nan

>  <Peripheral>  (310) 
nan

>  <Num_H_Atoms_ProtBoundConf>  (310) 
nan

>  <Num_Resolved_Atoms>  (310) 
nan

>  <Num_Not_Resolved_Atoms>  (310) 
nan

$$$$
CHEMBL1650542
     RDKit          3D

  0  0  0  0  0  0  0  0  0  0999 V3000
M  V30 BEGIN CTAB
M  V30 COUNTS 47 51 0 0 0
M  V30 BEGIN ATOM
M  V30 1 C 3.947446 -3.427390 2.339219 0
M  V30 2 C 2.944941 -2.902504 1.375600 0
M  V30 3 C 3.274647 -2.008620 0.380952 0
M  V30 4 N 2.451625 -1.478275 -0.529245 0
M  V30 5 C 2.640727 -0.615359 -1.534109 0
M  V30 6 C 3.827678 0.065077 -2.001255 0
M  V30 7 C 5.155144 0.153237 -1.691953 0
M  V30 8 N 5.805474 0.994527 -2.528946 0
M  V30 9 N 4.943785 1.482073 -3.404255 0
M  V30 10 C 3.761391 0.934272 -3.098643 0
M  V30 11 C 1.364014 -0.508099 -2.068799 0
M  V30 12 N 0.509228 -1.279497 -1.386807 0
M  V30 13 C 1.174909 -1.891903 -0.422322 0
M  V30 14 C 0.745266 -2.782935 0.536924 0
M  V30 15 N -0.625240 -3.152346 0.568261 0
M  V30 16 C -1.630414 -2.604747 1.336295 0
M  V30 17 C -1.585161 -1.609980 2.278068 0
M  V30 18 C -2.778184 -1.312292 2.847630 0
M  V30 19 C -3.077025 -0.299669 3.897540 0
M  V30 20 N -3.398121 0.984373 3.393191 0
M  V30 21 C -2.344259 1.605939 2.624542 0
M  V30 22 C -3.052045 2.676763 1.788031 0
M  V30 23 C -4.355501 1.973646 1.468986 0
M  V30 24 C -4.628588 1.104708 2.682921 0
M  V30 25 N -3.988911 -2.033375 2.445996 0
M  V30 26 S -3.298072 -3.174275 1.188642 0
M  V30 27 N 1.632653 -3.278492 1.424775 0
M  V30 28 H 4.950121 -3.405215 1.911619 0
M  V30 29 H 3.913239 -2.746173 3.230360 0
M  V30 30 H 3.606784 -4.423165 2.667335 0
M  V30 31 H 4.311451 -1.733887 0.367994 0
M  V30 32 H 5.604776 -0.381986 -0.887988 0
M  V30 33 H 5.204653 2.152699 -4.152634 0
M  V30 34 H 2.902235 1.212850 -3.715229 0
M  V30 35 H 1.023587 0.084939 -2.907478 0
M  V30 36 H -0.738114 -3.933521 -0.112198 0
M  V30 37 H -0.714534 -1.064723 2.593041 0
M  V30 38 H -3.854166 -0.607730 4.614369 0
M  V30 39 H -2.148890 -0.171094 4.533854 0
M  V30 40 H -1.846890 0.954754 1.906581 0
M  V30 41 H -1.576587 2.067708 3.280537 0
M  V30 42 H -3.197186 3.591474 2.386010 0
M  V30 43 H -2.506347 2.862681 0.842612 0
M  V30 44 H -4.247416 1.349461 0.562954 0
M  V30 45 H -5.117737 2.754320 1.303603 0
M  V30 46 H -5.303341 1.729569 3.332368 0
M  V30 47 H -5.092957 0.147913 2.452651 0
M  V30 END ATOM
M  V30 BEGIN BOND
M  V30 1 1 1 2
M  V30 2 2 2 3
M  V30 3 1 3 4
M  V30 4 1 4 5
M  V30 5 1 5 6
M  V30 6 1 6 7
M  V30 7 2 7 8
M  V30 8 1 8 9
M  V30 9 1 9 10
M  V30 10 2 5 11
M  V30 11 1 11 12
M  V30 12 2 12 13
M  V30 13 1 13 14
M  V30 14 1 14 15
M  V30 15 1 15 16
M  V30 16 2 16 17
M  V30 17 1 17 18
M  V30 18 1 18 19
M  V30 19 1 19 20
M  V30 20 1 20 21
M  V30 21 1 21 22
M  V30 22 1 22 23
M  V30 23 1 23 24
M  V30 24 2 18 25
M  V30 25 1 25 26
M  V30 26 2 14 27
M  V30 27 1 27 2
M  V30 28 1 13 4
M  V30 29 1 26 16
M  V30 30 2 10 6
M  V30 31 1 24 20
M  V30 32 1 1 28
M  V30 33 1 1 29
M  V30 34 1 1 30
M  V30 35 1 3 31
M  V30 36 1 7 32
M  V30 37 1 9 33
M  V30 38 1 10 34
M  V30 39 1 11 35
M  V30 40 1 15 36
M  V30 41 1 17 37
M  V30 42 1 19 38
M  V30 43 1 19 39
M  V30 44 1 21 40
M  V30 45 1 21 41
M  V30 46 1 22 42
M  V30 47 1 22 43
M  V30 48 1 23 44
M  V30 49 1 23 45
M  V30 50 1 24 46
M  V30 51 1 24 47
M  V30 END BOND
M  V30 END CTAB
M  END
>  <Dataset>  (311) 
ChEMBL_Kinases

>  <Ligand_Instance>  (311) 
nan

>  <PDB_ID>  (311) 
nan

>  <Standardized_SMILES>  (311) 
Cc1cn2c(-c3cn[nH]c3)cnc2c(Nc2cc(CN3CCCC3)ns2)n1

>  <Name>  (311) 
nan

>  <Pocket>  (311) 
nan

>  <ATP_Site>  (311) 
nan

>  <Peripheral>  (311) 
nan

>  <Num_H_Atoms_ProtBoundConf>  (311) 
nan

>  <Num_Resolved_Atoms>  (311) 
nan

>  <Num_Not_Resolved_Atoms>  (311) 
nan

$$$$
CHEMBL1650543
     RDKit          3D

  0  0  0  0  0  0  0  0  0  0999 V3000
M  V30 BEGIN CTAB
M  V30 COUNTS 47 51 0 0 0
M  V30 BEGIN ATOM
M  V30 1 C 5.390810 -1.375225 3.403047 0
M  V30 2 C 4.259502 -0.730927 2.642322 0
M  V30 3 C 4.345999 -0.476737 1.297375 0
M  V30 4 N 3.364940 0.087000 0.619385 0
M  V30 5 C 3.270437 0.406818 -0.673732 0
M  V30 6 C 4.162469 0.273267 -1.799807 0
M  V30 7 C 5.434502 -0.259992 -1.891276 0
M  V30 8 N 5.845798 -0.139139 -3.137301 0
M  V30 9 N 5.004793 0.418060 -3.927745 0
M  V30 10 C 3.938702 0.686415 -3.110452 0
M  V30 11 C 2.024566 0.970346 -0.827602 0
M  V30 12 N 1.398013 0.979032 0.362917 0
M  V30 13 C 2.197707 0.443242 1.264305 0
M  V30 14 C 2.095762 0.189590 2.640072 0
M  V30 15 N 0.892000 0.551452 3.359295 0
M  V30 16 C -0.106355 -0.469068 3.003795 0
M  V30 17 C -1.088194 -0.114464 2.013884 0
M  V30 18 C -1.963419 -1.127051 1.734972 0
M  V30 19 C -3.063840 -1.005440 0.765815 0
M  V30 20 N -4.325072 -0.615398 1.290353 0
M  V30 21 C -4.980522 -1.521696 2.161672 0
M  V30 22 C -6.448219 -1.355323 1.856831 0
M  V30 23 C -6.415281 -1.079690 0.342419 0 CFG=2
M  V30 24 F -6.062222 -2.262910 -0.282501 0
M  V30 25 C -5.243706 -0.100233 0.323809 0
M  V30 26 N -1.934119 -2.439075 2.357739 0
M  V30 27 S -0.465441 -2.130212 3.457964 0
M  V30 28 N 3.140080 -0.398179 3.304385 0
M  V30 29 H 5.415054 -0.988663 4.444013 0
M  V30 30 H 6.342060 -1.220793 2.864392 0
M  V30 31 H 5.160287 -2.482753 3.396202 0
M  V30 32 H 5.261837 -0.762201 0.847688 0
M  V30 33 H 6.087967 -0.714016 -1.188487 0
M  V30 34 H 4.927290 0.695430 -4.938775 0
M  V30 35 H 3.011439 1.165330 -3.439989 0
M  V30 36 H 1.498552 1.375481 -1.687079 0
M  V30 37 H 0.676482 1.325957 4.002608 0
M  V30 38 H -1.151613 0.834854 1.522159 0
M  V30 39 H -3.223770 -1.950307 0.177256 0
M  V30 40 H -2.801520 -0.247955 -0.028062 0
M  V30 41 H -4.758280 -2.593318 1.956891 0
M  V30 42 H -4.837960 -1.337937 3.249949 0
M  V30 43 H -7.063508 -2.234433 2.026627 0
M  V30 44 H -6.857594 -0.441659 2.356552 0
M  V30 45 H -7.354372 -0.665142 -0.022327 0
M  V30 46 H -4.763887 0.007946 -0.643551 0
M  V30 47 H -5.648065 0.885445 0.673588 0
M  V30 END ATOM
M  V30 BEGIN BOND
M  V30 1 1 1 2
M  V30 2 2 2 3
M  V30 3 1 3 4
M  V30 4 1 4 5
M  V30 5 1 5 6
M  V30 6 1 6 7
M  V30 7 2 7 8
M  V30 8 1 8 9
M  V30 9 1 9 10
M  V30 10 2 5 11
M  V30 11 1 11 12
M  V30 12 2 12 13
M  V30 13 1 13 14
M  V30 14 1 14 15
M  V30 15 1 15 16
M  V30 16 2 16 17
M  V30 17 1 17 18
M  V30 18 1 18 19
M  V30 19 1 19 20
M  V30 20 1 20 21
M  V30 21 1 21 22
M  V30 22 1 22 23
M  V30 23 1 23 24
M  V30 24 1 23 25
M  V30 25 2 18 26
M  V30 26 1 26 27
M  V30 27 2 14 28
M  V30 28 1 28 2
M  V30 29 1 13 4
M  V30 30 1 27 16
M  V30 31 2 10 6
M  V30 32 1 25 20
M  V30 33 1 1 29
M  V30 34 1 1 30
M  V30 35 1 1 31
M  V30 36 1 3 32
M  V30 37 1 7 33
M  V30 38 1 9 34
M  V30 39 1 10 35
M  V30 40 1 11 36
M  V30 41 1 15 37
M  V30 42 1 17 38
M  V30 43 1 19 39
M  V30 44 1 19 40
M  V30 45 1 21 41
M  V30 46 1 21 42
M  V30 47 1 22 43
M  V30 48 1 22 44
M  V30 49 1 23 45 CFG=3
M  V30 50 1 25 46
M  V30 51 1 25 47
M  V30 END BOND
M  V30 END CTAB
M  END
>  <Dataset>  (312) 
ChEMBL_Kinases

>  <Ligand_Instance>  (312) 
nan

>  <PDB_ID>  (312) 
nan

>  <Standardized_SMILES>  (312) 
Cc1cn2c(-c3cn[nH]c3)cnc2c(Nc2cc(CN3CC[C@H](F)C3)ns2)n1

>  <Name>  (312) 
nan

>  <Pocket>  (312) 
nan

>  <ATP_Site>  (312) 
nan

>  <Peripheral>  (312) 
nan

>  <Num_H_Atoms_ProtBoundConf>  (312) 
nan

>  <Num_Resolved_Atoms>  (312) 
nan

>  <Num_Not_Resolved_Atoms>  (312) 
nan

$$$$
CHEMBL1650544
     RDKit          3D

  0  0  0  0  0  0  0  0  0  0999 V3000
M  V30 BEGIN CTAB
M  V30 COUNTS 47 51 0 0 0
M  V30 BEGIN ATOM
M  V30 1 C -0.142011 -3.346987 -0.718169 0
M  V30 2 C 0.944464 -2.482804 -0.192848 0
M  V30 3 C 1.954488 -1.917702 -0.933046 0
M  V30 4 N 2.913724 -1.138372 -0.429529 0
M  V30 5 C 3.954061 -0.522693 -0.987825 0
M  V30 6 C 4.442006 -0.474364 -2.346810 0
M  V30 7 C 4.045472 -0.991088 -3.555545 0
M  V30 8 N 4.893062 -0.638667 -4.534720 0
M  V30 9 N 5.865793 0.108628 -4.032551 0
M  V30 10 C 5.592727 0.204447 -2.725845 0
M  V30 11 C 4.542709 0.106814 0.090780 0
M  V30 12 N 3.858269 -0.145807 1.215605 0
M  V30 13 C 2.820704 -0.937303 0.893059 0
M  V30 14 C 1.855713 -1.453413 1.720994 0
M  V30 15 N 1.787350 -1.215449 3.119583 0
M  V30 16 C 0.695809 -0.388488 3.574162 0
M  V30 17 C -0.301905 0.183341 2.798110 0
M  V30 18 C -1.207474 0.902381 3.508376 0
M  V30 19 C -2.426105 1.631116 2.995376 0
M  V30 20 N -3.533002 0.738626 3.054578 0
M  V30 21 C -3.446529 -0.417335 2.241036 0
M  V30 22 C -4.827002 -0.727549 1.714417 0
M  V30 23 C -5.754878 0.199706 2.470070 0 CFG=1
M  V30 24 F -6.362177 -0.466973 3.519040 0
M  V30 25 C -4.832051 1.297956 2.959994 0
M  V30 26 N -1.101252 1.045327 5.017599 0
M  V30 27 S 0.435935 0.031317 5.274236 0
M  V30 28 N 0.919498 -2.230535 1.149102 0
M  V30 29 H -1.069333 -3.191076 -0.099745 0
M  V30 30 H 0.132091 -4.416773 -0.774302 0
M  V30 31 H -0.402306 -2.946948 -1.741144 0
M  V30 32 H 1.927178 -2.145709 -1.971003 0
M  V30 33 H 3.184788 -1.594538 -3.740430 0
M  V30 34 H 6.668868 0.532857 -4.538958 0
M  V30 35 H 6.233352 0.770394 -2.058716 0
M  V30 36 H 5.432655 0.744312 0.159262 0
M  V30 37 H 2.463992 -1.590535 3.812892 0
M  V30 38 H -0.415234 0.110998 1.740202 0
M  V30 39 H -2.163272 1.861048 1.914402 0
M  V30 40 H -2.523310 2.552748 3.550415 0
M  V30 41 H -2.754261 -0.255716 1.363204 0
M  V30 42 H -3.040241 -1.257354 2.836520 0
M  V30 43 H -5.070592 -1.774811 1.992575 0
M  V30 44 H -4.913978 -0.606144 0.624467 0
M  V30 45 H -6.562156 0.575292 1.810358 0
M  V30 46 H -4.942065 2.215270 2.376866 0
M  V30 47 H -5.183485 1.518282 4.005499 0
M  V30 END ATOM
M  V30 BEGIN BOND
M  V30 1 1 1 2
M  V30 2 2 2 3
M  V30 3 1 3 4
M  V30 4 1 4 5
M  V30 5 1 5 6
M  V30 6 1 6 7
M  V30 7 2 7 8
M  V30 8 1 8 9
M  V30 9 1 9 10
M  V30 10 2 5 11
M  V30 11 1 11 12
M  V30 12 2 12 13
M  V30 13 1 13 14
M  V30 14 1 14 15
M  V30 15 1 15 16
M  V30 16 2 16 17
M  V30 17 1 17 18
M  V30 18 1 18 19
M  V30 19 1 19 20
M  V30 20 1 20 21
M  V30 21 1 21 22
M  V30 22 1 22 23
M  V30 23 1 23 24
M  V30 24 1 23 25
M  V30 25 2 18 26
M  V30 26 1 26 27
M  V30 27 2 14 28
M  V30 28 1 28 2
M  V30 29 1 13 4
M  V30 30 1 27 16
M  V30 31 2 10 6
M  V30 32 1 25 20
M  V30 33 1 1 29
M  V30 34 1 1 30
M  V30 35 1 1 31
M  V30 36 1 3 32
M  V30 37 1 7 33
M  V30 38 1 9 34
M  V30 39 1 10 35
M  V30 40 1 11 36
M  V30 41 1 15 37
M  V30 42 1 17 38
M  V30 43 1 19 39
M  V30 44 1 19 40
M  V30 45 1 21 41
M  V30 46 1 21 42
M  V30 47 1 22 43
M  V30 48 1 22 44
M  V30 49 1 23 45 CFG=3
M  V30 50 1 25 46
M  V30 51 1 25 47
M  V30 END BOND
M  V30 END CTAB
M  END
>  <Dataset>  (313) 
ChEMBL_Kinases

>  <Ligand_Instance>  (313) 
nan

>  <PDB_ID>  (313) 
nan

>  <Standardized_SMILES>  (313) 
Cc1cn2c(-c3cn[nH]c3)cnc2c(Nc2cc(CN3CC[C@@H](F)C3)ns2)n1

>  <Name>  (313) 
nan

>  <Pocket>  (313) 
nan

>  <ATP_Site>  (313) 
nan

>  <Peripheral>  (313) 
nan

>  <Num_H_Atoms_ProtBoundConf>  (313) 
nan

>  <Num_Resolved_Atoms>  (313) 
nan

>  <Num_Not_Resolved_Atoms>  (313) 
nan

$$$$
CHEMBL1650545
     RDKit          3D

  0  0  0  0  0  0  0  0  0  0999 V3000
M  V30 BEGIN CTAB
M  V30 COUNTS 47 51 0 0 0
M  V30 BEGIN ATOM
M  V30 1 C -2.374163 2.632336 1.105418 0
M  V30 2 C -0.973023 2.157426 1.217649 0
M  V30 3 C -0.000797 2.068950 0.254032 0
M  V30 4 N 1.230762 1.624614 0.465519 0
M  V30 5 C 2.274212 1.484552 -0.366049 0
M  V30 6 C 2.444975 1.764836 -1.774591 0
M  V30 7 C 1.694102 2.231908 -2.832128 0
M  V30 8 N 2.385622 2.331656 -3.957533 0
M  V30 9 N 3.621084 1.938640 -3.706915 0
M  V30 10 C 3.679203 1.598128 -2.418188 0
M  V30 11 C 3.264390 0.972542 0.478764 0
M  V30 12 N 2.765437 0.846610 1.710750 0
M  V30 13 C 1.492561 1.248331 1.722868 0
M  V30 14 C 0.575454 1.300130 2.764712 0
M  V30 15 N 1.059015 0.829668 4.044842 0
M  V30 16 C 0.913930 -0.638563 3.848116 0
M  V30 17 C -0.095214 -1.361769 3.315684 0
M  V30 18 C 0.164217 -2.692752 3.251414 0
M  V30 19 C -0.758144 -3.715604 2.694973 0
M  V30 20 N -0.566466 -3.886420 1.260698 0
M  V30 21 C -0.816734 -2.623727 0.544861 0
M  V30 22 C -2.311561 -2.431813 0.628993 0
M  V30 23 C -2.894979 -3.823636 0.741304 0
M  V30 24 F -3.734185 -3.955691 1.845230 0
M  V30 25 F -3.694933 -4.128582 -0.372166 0
M  V30 26 C -1.690925 -4.722536 0.808005 0
M  V30 27 N 1.478309 -3.254158 3.750261 0
M  V30 28 S 2.190852 -1.625196 4.275396 0
M  V30 29 N -0.656777 1.761740 2.483107 0
M  V30 30 H -3.012317 1.723479 1.258473 0
M  V30 31 H -2.597190 3.000117 0.083902 0
M  V30 32 H -2.603448 3.431039 1.814204 0
M  V30 33 H -0.313100 2.396005 -0.712458 0
M  V30 34 H 0.657093 2.485694 -2.741069 0
M  V30 35 H 4.379714 1.913515 -4.416438 0
M  V30 36 H 4.619197 1.233028 -1.983659 0
M  V30 37 H 4.282386 0.716571 0.200719 0
M  V30 38 H 1.413964 1.250782 4.910470 0
M  V30 39 H -1.014994 -0.923526 2.982742 0
M  V30 40 H -0.671516 -4.707792 3.161011 0
M  V30 41 H -1.797410 -3.361672 2.836939 0
M  V30 42 H -0.566607 -2.791215 -0.536224 0
M  V30 43 H -0.224257 -1.804950 0.934254 0
M  V30 44 H -2.710016 -1.961095 -0.298953 0
M  V30 45 H -2.616024 -1.787342 1.478940 0
M  V30 46 H -1.450834 -5.172107 -0.193661 0
M  V30 47 H -1.850782 -5.516423 1.557376 0
M  V30 END ATOM
M  V30 BEGIN BOND
M  V30 1 1 1 2
M  V30 2 2 2 3
M  V30 3 1 3 4
M  V30 4 1 4 5
M  V30 5 1 5 6
M  V30 6 1 6 7
M  V30 7 2 7 8
M  V30 8 1 8 9
M  V30 9 1 9 10
M  V30 10 2 5 11
M  V30 11 1 11 12
M  V30 12 2 12 13
M  V30 13 1 13 14
M  V30 14 1 14 15
M  V30 15 1 15 16
M  V30 16 2 16 17
M  V30 17 1 17 18
M  V30 18 1 18 19
M  V30 19 1 19 20
M  V30 20 1 20 21
M  V30 21 1 21 22
M  V30 22 1 22 23
M  V30 23 1 23 24
M  V30 24 1 23 25
M  V30 25 1 23 26
M  V30 26 2 18 27
M  V30 27 1 27 28
M  V30 28 2 14 29
M  V30 29 1 29 2
M  V30 30 1 13 4
M  V30 31 1 28 16
M  V30 32 2 10 6
M  V30 33 1 26 20
M  V30 34 1 1 30
M  V30 35 1 1 31
M  V30 36 1 1 32
M  V30 37 1 3 33
M  V30 38 1 7 34
M  V30 39 1 9 35
M  V30 40 1 10 36
M  V30 41 1 11 37
M  V30 42 1 15 38
M  V30 43 1 17 39
M  V30 44 1 19 40
M  V30 45 1 19 41
M  V30 46 1 21 42
M  V30 47 1 21 43
M  V30 48 1 22 44
M  V30 49 1 22 45
M  V30 50 1 26 46
M  V30 51 1 26 47
M  V30 END BOND
M  V30 END CTAB
M  END
>  <Dataset>  (314) 
ChEMBL_Kinases

>  <Ligand_Instance>  (314) 
nan

>  <PDB_ID>  (314) 
nan

>  <Standardized_SMILES>  (314) 
Cc1cn2c(-c3cn[nH]c3)cnc2c(Nc2cc(CN3CCC(F)(F)C3)ns2)n1

>  <Name>  (314) 
nan

>  <Pocket>  (314) 
nan

>  <ATP_Site>  (314) 
nan

>  <Peripheral>  (314) 
nan

>  <Num_H_Atoms_ProtBoundConf>  (314) 
nan

>  <Num_Resolved_Atoms>  (314) 
nan

>  <Num_Not_Resolved_Atoms>  (314) 
nan

$$$$
CHEMBL1650546
     RDKit          3D

  0  0  0  0  0  0  0  0  0  0999 V3000
M  V30 BEGIN CTAB
M  V30 COUNTS 47 51 0 0 0
M  V30 BEGIN ATOM
M  V30 1 C -0.406392 3.104009 -1.904228 0
M  V30 2 C 0.318052 2.478563 -0.768891 0
M  V30 3 C 1.457870 1.708571 -0.863046 0
M  V30 4 N 2.095208 1.155899 0.170983 0
M  V30 5 C 3.190821 0.393892 0.172895 0
M  V30 6 C 4.089992 -0.133779 -0.820659 0
M  V30 7 C 4.154108 -0.011486 -2.188485 0
M  V30 8 N 5.220397 -0.722089 -2.670464 0
M  V30 9 N 5.843916 -1.297376 -1.660404 0
M  V30 10 C 5.169198 -0.945059 -0.574469 0
M  V30 11 C 3.355670 0.124304 1.522581 0
M  V30 12 N 2.394306 0.707300 2.255262 0
M  V30 13 C 1.598936 1.356260 1.422745 0
M  V30 14 C 0.467538 2.118847 1.539988 0
M  V30 15 N -0.125673 2.388063 2.806857 0
M  V30 16 C -0.816543 1.154013 3.346831 0
M  V30 17 C -0.854787 -0.069407 2.831215 0
M  V30 18 C -1.579786 -0.920850 3.591232 0
M  V30 19 C -1.800403 -2.368925 3.225370 0
M  V30 20 N -3.055723 -2.496777 2.525375 0
M  V30 21 C -3.194778 -1.782296 1.318130 0
M  V30 22 C -2.957857 -2.790243 0.234289 0
M  V30 23 F -3.958912 -2.698554 -0.740648 0
M  V30 24 F -1.707287 -2.652254 -0.346155 0
M  V30 25 C -3.076387 -4.152189 0.886170 0
M  V30 26 F -4.069507 -4.916660 0.288157 0
M  V30 27 F -1.853970 -4.810270 0.824957 0
M  V30 28 C -3.446157 -3.847553 2.309311 0
M  V30 29 N -2.188613 -0.584958 4.727115 0
M  V30 30 S -1.721255 1.208750 4.822667 0
M  V30 31 N -0.173349 2.673920 0.493500 0
M  V30 32 H -0.185252 2.638074 -2.864631 0
M  V30 33 H -1.504054 3.084860 -1.640136 0
M  V30 34 H -0.180830 4.210766 -1.929692 0
M  V30 35 H 1.807700 1.579303 -1.851781 0
M  V30 36 H 3.526723 0.524754 -2.845730 0
M  V30 37 H 6.689289 -1.897744 -1.755096 0
M  V30 38 H 5.523199 -1.321267 0.400979 0
M  V30 39 H 4.097038 -0.458943 2.093146 0
M  V30 40 H -0.139111 3.252332 3.357362 0
M  V30 41 H -0.355717 -0.353411 1.915236 0
M  V30 42 H -1.009093 -2.687657 2.481445 0
M  V30 43 H -1.818279 -3.028264 4.087918 0
M  V30 44 H -4.266627 -1.445334 1.251741 0
M  V30 45 H -2.534855 -0.899820 1.241511 0
M  V30 46 H -2.889850 -4.571144 2.959338 0
M  V30 47 H -4.538827 -3.942444 2.441802 0
M  V30 END ATOM
M  V30 BEGIN BOND
M  V30 1 1 1 2
M  V30 2 2 2 3
M  V30 3 1 3 4
M  V30 4 1 4 5
M  V30 5 1 5 6
M  V30 6 1 6 7
M  V30 7 2 7 8
M  V30 8 1 8 9
M  V30 9 1 9 10
M  V30 10 2 5 11
M  V30 11 1 11 12
M  V30 12 2 12 13
M  V30 13 1 13 14
M  V30 14 1 14 15
M  V30 15 1 15 16
M  V30 16 2 16 17
M  V30 17 1 17 18
M  V30 18 1 18 19
M  V30 19 1 19 20
M  V30 20 1 20 21
M  V30 21 1 21 22
M  V30 22 1 22 23
M  V30 23 1 22 24
M  V30 24 1 22 25
M  V30 25 1 25 26
M  V30 26 1 25 27
M  V30 27 1 25 28
M  V30 28 2 18 29
M  V30 29 1 29 30
M  V30 30 2 14 31
M  V30 31 1 31 2
M  V30 32 1 13 4
M  V30 33 1 30 16
M  V30 34 2 10 6
M  V30 35 1 28 20
M  V30 36 1 1 32
M  V30 37 1 1 33
M  V30 38 1 1 34
M  V30 39 1 3 35
M  V30 40 1 7 36
M  V30 41 1 9 37
M  V30 42 1 10 38
M  V30 43 1 11 39
M  V30 44 1 15 40
M  V30 45 1 17 41
M  V30 46 1 19 42
M  V30 47 1 19 43
M  V30 48 1 21 44
M  V30 49 1 21 45
M  V30 50 1 28 46
M  V30 51 1 28 47
M  V30 END BOND
M  V30 END CTAB
M  END
>  <Dataset>  (315) 
ChEMBL_Kinases

>  <Ligand_Instance>  (315) 
nan

>  <PDB_ID>  (315) 
nan

>  <Standardized_SMILES>  (315) 
Cc1cn2c(-c3cn[nH]c3)cnc2c(Nc2cc(CN3CC(F)(F)C(F)(F)C3)ns2)n1

>  <Name>  (315) 
nan

>  <Pocket>  (315) 
nan

>  <ATP_Site>  (315) 
nan

>  <Peripheral>  (315) 
nan

>  <Num_H_Atoms_ProtBoundConf>  (315) 
nan

>  <Num_Resolved_Atoms>  (315) 
nan

>  <Num_Not_Resolved_Atoms>  (315) 
nan

$$$$
CHEMBL1650547
     RDKit          3D

  0  0  0  0  0  0  0  0  0  0999 V3000
M  V30 BEGIN CTAB
M  V30 COUNTS 44 48 0 0 0
M  V30 BEGIN ATOM
M  V30 1 C 3.273731 -4.650792 0.601087 0
M  V30 2 C 2.705853 -3.306193 0.886776 0
M  V30 3 C 2.799951 -2.250892 0.006462 0
M  V30 4 N 2.322070 -1.021495 0.188396 0
M  V30 5 C 2.342358 0.066544 -0.583793 0
M  V30 6 C 2.881584 0.331363 -1.896864 0
M  V30 7 C 3.574383 -0.361180 -2.852263 0
M  V30 8 N 3.823667 0.394614 -3.950326 0
M  V30 9 N 3.305196 1.593621 -3.746667 0
M  V30 10 C 2.745637 1.558872 -2.528645 0
M  V30 11 C 1.660493 0.990606 0.200279 0
M  V30 12 N 1.278891 0.434180 1.360214 0
M  V30 13 C 1.691697 -0.824352 1.356346 0
M  V30 14 C 1.545072 -1.811382 2.299934 0
M  V30 15 N 0.900325 -1.659589 3.555918 0
M  V30 16 C -0.520625 -1.557266 3.358646 0
M  V30 17 C -1.090553 -0.352549 3.416678 0
M  V30 18 C -2.433951 -0.403789 3.200792 0
M  V30 19 C -3.392449 0.749542 3.208060 0
M  V30 20 N -3.558055 1.391331 1.958506 0
M  V30 21 C -2.469217 2.001991 1.298720 0
M  V30 22 C -2.418638 0.859815 0.319820 0
M  V30 23 F -2.316199 1.272587 -0.996168 0
M  V30 24 C -3.810150 0.570518 0.811580 0
M  V30 25 N -3.145576 -1.648903 2.937232 0
M  V30 26 S -1.739248 -2.763546 3.021360 0
M  V30 27 N 2.051401 -3.039296 2.057889 0
M  V30 28 H 4.386022 -4.574725 0.545654 0
M  V30 29 H 3.007258 -5.300028 1.449116 0
M  V30 30 H 2.930082 -5.052589 -0.365553 0
M  V30 31 H 3.310920 -2.485876 -0.886176 0
M  V30 32 H 3.890532 -1.380966 -2.760594 0
M  V30 33 H 3.344374 2.381890 -4.427368 0
M  V30 34 H 2.246159 2.466298 -2.150576 0
M  V30 35 H 1.437833 2.032264 -0.038704 0
M  V30 36 H 1.525275 -1.645283 4.396106 0
M  V30 37 H -0.662763 0.618320 3.602854 0
M  V30 38 H -4.391888 0.487915 3.591265 0
M  V30 39 H -3.025210 1.530846 3.947538 0
M  V30 40 H -2.777915 2.942772 0.779763 0
M  V30 41 H -1.536931 2.154500 1.885490 0
M  V30 42 H -1.716321 0.046758 0.600314 0
M  V30 43 H -4.579917 1.037057 0.161272 0
M  V30 44 H -3.997274 -0.494335 1.057216 0
M  V30 END ATOM
M  V30 BEGIN BOND
M  V30 1 1 1 2
M  V30 2 2 2 3
M  V30 3 1 3 4
M  V30 4 1 4 5
M  V30 5 1 5 6
M  V30 6 1 6 7
M  V30 7 2 7 8
M  V30 8 1 8 9
M  V30 9 1 9 10
M  V30 10 2 5 11
M  V30 11 1 11 12
M  V30 12 2 12 13
M  V30 13 1 13 14
M  V30 14 1 14 15
M  V30 15 1 15 16
M  V30 16 2 16 17
M  V30 17 1 17 18
M  V30 18 1 18 19
M  V30 19 1 19 20
M  V30 20 1 20 21
M  V30 21 1 21 22
M  V30 22 1 22 23
M  V30 23 1 22 24
M  V30 24 2 18 25
M  V30 25 1 25 26
M  V30 26 2 14 27
M  V30 27 1 27 2
M  V30 28 1 13 4
M  V30 29 1 26 16
M  V30 30 2 10 6
M  V30 31 1 24 20
M  V30 32 1 1 28
M  V30 33 1 1 29
M  V30 34 1 1 30
M  V30 35 1 3 31
M  V30 36 1 7 32
M  V30 37 1 9 33
M  V30 38 1 10 34
M  V30 39 1 11 35
M  V30 40 1 15 36
M  V30 41 1 17 37
M  V30 42 1 19 38
M  V30 43 1 19 39
M  V30 44 1 21 40
M  V30 45 1 21 41
M  V30 46 1 22 42
M  V30 47 1 24 43
M  V30 48 1 24 44
M  V30 END BOND
M  V30 END CTAB
M  END
>  <Dataset>  (316) 
ChEMBL_Kinases

>  <Ligand_Instance>  (316) 
nan

>  <PDB_ID>  (316) 
nan

>  <Standardized_SMILES>  (316) 
Cc1cn2c(-c3cn[nH]c3)cnc2c(Nc2cc(CN3CC(F)C3)ns2)n1

>  <Name>  (316) 
nan

>  <Pocket>  (316) 
nan

>  <ATP_Site>  (316) 
nan

>  <Peripheral>  (316) 
nan

>  <Num_H_Atoms_ProtBoundConf>  (316) 
nan

>  <Num_Resolved_Atoms>  (316) 
nan

>  <Num_Not_Resolved_Atoms>  (316) 
nan

$$$$
CHEMBL1650548
     RDKit          3D

  0  0  0  0  0  0  0  0  0  0999 V3000
M  V30 BEGIN CTAB
M  V30 COUNTS 44 48 0 0 0
M  V30 BEGIN ATOM
M  V30 1 C 2.169816 -3.506044 2.536022 0
M  V30 2 C 2.136561 -2.057223 2.186388 0
M  V30 3 C 3.005114 -1.450473 1.305234 0
M  V30 4 N 2.989149 -0.162402 0.984196 0
M  V30 5 C 3.750800 0.564586 0.158179 0
M  V30 6 C 4.870511 0.218480 -0.688680 0
M  V30 7 C 5.607833 -0.888953 -1.011783 0
M  V30 8 N 6.579563 -0.603658 -1.906281 0
M  V30 9 N 6.513952 0.690782 -2.198901 0
M  V30 10 C 5.501617 1.183130 -1.479146 0
M  V30 11 C 3.194679 1.837607 0.289290 0
M  V30 12 N 2.169981 1.808235 1.152329 0
M  V30 13 C 2.044097 0.555427 1.585338 0
M  V30 14 C 1.129599 0.046129 2.479498 0
M  V30 15 N 0.125339 0.810516 3.126827 0
M  V30 16 C -1.181760 1.035963 2.510308 0
M  V30 17 C -1.643423 0.611681 1.283571 0
M  V30 18 C -2.910835 0.976740 0.981102 0
M  V30 19 C -3.543064 0.598710 -0.304430 0
M  V30 20 N -4.240674 -0.620762 -0.321282 0
M  V30 21 C -3.558426 -1.849042 -0.022018 0
M  V30 22 C -4.875577 -2.345370 0.560327 0
M  V30 23 F -5.663050 -3.066240 -0.319710 0
M  V30 24 F -4.817321 -2.920577 1.791533 0
M  V30 25 C -5.330263 -0.876288 0.544467 0
M  V30 26 N -3.633177 1.707425 1.856127 0
M  V30 27 S -2.442073 1.936150 3.285755 0
M  V30 28 N 1.185708 -1.280752 2.777082 0
M  V30 29 H 1.947973 -3.647430 3.623864 0
M  V30 30 H 1.377931 -4.038341 1.980021 0
M  V30 31 H 3.189386 -3.917251 2.280297 0
M  V30 32 H 3.722702 -2.093580 0.874371 0
M  V30 33 H 5.421886 -1.853479 -0.596294 0
M  V30 34 H 7.161587 1.152647 -2.868726 0
M  V30 35 H 5.284540 2.252174 -1.583614 0
M  V30 36 H 3.500480 2.768558 -0.209237 0
M  V30 37 H 0.325194 1.210903 4.044112 0
M  V30 38 H -0.964891 0.032826 0.677704 0
M  V30 39 H -4.225953 1.397120 -0.656095 0
M  V30 40 H -2.763431 0.531638 -1.122789 0
M  V30 41 H -3.315798 -2.446479 -0.948566 0
M  V30 42 H -2.717668 -1.821344 0.665341 0
M  V30 43 H -6.307985 -0.722022 0.039191 0
M  V30 44 H -5.372745 -0.430539 1.536666 0
M  V30 END ATOM
M  V30 BEGIN BOND
M  V30 1 1 1 2
M  V30 2 2 2 3
M  V30 3 1 3 4
M  V30 4 1 4 5
M  V30 5 1 5 6
M  V30 6 1 6 7
M  V30 7 2 7 8
M  V30 8 1 8 9
M  V30 9 1 9 10
M  V30 10 2 5 11
M  V30 11 1 11 12
M  V30 12 2 12 13
M  V30 13 1 13 14
M  V30 14 1 14 15
M  V30 15 1 15 16
M  V30 16 2 16 17
M  V30 17 1 17 18
M  V30 18 1 18 19
M  V30 19 1 19 20
M  V30 20 1 20 21
M  V30 21 1 21 22
M  V30 22 1 22 23
M  V30 23 1 22 24
M  V30 24 1 22 25
M  V30 25 2 18 26
M  V30 26 1 26 27
M  V30 27 2 14 28
M  V30 28 1 28 2
M  V30 29 1 13 4
M  V30 30 1 27 16
M  V30 31 2 10 6
M  V30 32 1 25 20
M  V30 33 1 1 29
M  V30 34 1 1 30
M  V30 35 1 1 31
M  V30 36 1 3 32
M  V30 37 1 7 33
M  V30 38 1 9 34
M  V30 39 1 10 35
M  V30 40 1 11 36
M  V30 41 1 15 37
M  V30 42 1 17 38
M  V30 43 1 19 39
M  V30 44 1 19 40
M  V30 45 1 21 41
M  V30 46 1 21 42
M  V30 47 1 25 43
M  V30 48 1 25 44
M  V30 END BOND
M  V30 END CTAB
M  END
>  <Dataset>  (317) 
ChEMBL_Kinases

>  <Ligand_Instance>  (317) 
nan

>  <PDB_ID>  (317) 
nan

>  <Standardized_SMILES>  (317) 
Cc1cn2c(-c3cn[nH]c3)cnc2c(Nc2cc(CN3CC(F)(F)C3)ns2)n1

>  <Name>  (317) 
nan

>  <Pocket>  (317) 
nan

>  <ATP_Site>  (317) 
nan

>  <Peripheral>  (317) 
nan

>  <Num_H_Atoms_ProtBoundConf>  (317) 
nan

>  <Num_Resolved_Atoms>  (317) 
nan

>  <Num_Not_Resolved_Atoms>  (317) 
nan

$$$$
CHEMBL1652711
     RDKit          3D

  0  0  0  0  0  0  0  0  0  0999 V3000
M  V30 BEGIN CTAB
M  V30 COUNTS 24 26 0 0 0
M  V30 BEGIN ATOM
M  V30 1 O -1.663695 -2.670224 4.004668 0
M  V30 2 C -0.889634 -3.037950 3.081686 0
M  V30 3 O -0.617508 -4.395421 2.973847 0
M  V30 4 C -0.297733 -2.077882 2.156965 0
M  V30 5 C 0.550677 -2.479546 1.145018 0
M  V30 6 C 1.141166 -1.607672 0.237677 0
M  V30 7 C 0.827606 -0.297159 0.406758 0
M  V30 8 C -0.024927 0.142173 1.417324 0
M  V30 9 C -0.599137 -0.739023 2.305541 0
M  V30 10 N -0.192858 1.464678 1.398491 0
M  V30 11 C 0.334044 2.365256 0.567265 0
M  V30 12 O -0.008152 3.578897 0.790034 0
M  V30 13 C 1.178060 1.925356 -0.432357 0
M  V30 14 C 1.738479 2.813240 -1.304155 0
M  V30 15 C 2.612989 2.113983 -2.296982 0
M  V30 16 S 2.485248 0.296657 -1.813528 0
M  V30 17 C 1.421369 0.584855 -0.506536 0
M  V30 18 H -0.471021 -4.963420 3.811464 0
M  V30 19 H 0.740673 -3.539840 1.089496 0
M  V30 20 H 1.802953 -1.945162 -0.547415 0
M  V30 21 H -1.242189 -0.335013 3.054991 0
M  V30 22 H -0.847053 1.784400 2.177036 0
M  V30 23 H 1.685013 3.874783 -1.423083 0
M  V30 24 H 3.187769 2.735777 -3.140195 0
M  V30 END ATOM
M  V30 BEGIN BOND
M  V30 1 2 1 2
M  V30 2 1 2 3
M  V30 3 1 2 4
M  V30 4 2 4 5
M  V30 5 1 5 6
M  V30 6 2 6 7
M  V30 7 1 7 8
M  V30 8 2 8 9
M  V30 9 1 8 10
M  V30 10 1 10 11
M  V30 11 2 11 12
M  V30 12 1 11 13
M  V30 13 1 13 14
M  V30 14 2 14 15
M  V30 15 1 15 16
M  V30 16 1 16 17
M  V30 17 1 9 4
M  V30 18 2 17 13
M  V30 19 1 17 7
M  V30 20 1 3 18
M  V30 21 1 5 19
M  V30 22 1 6 20
M  V30 23 1 9 21
M  V30 24 1 10 22
M  V30 25 1 14 23
M  V30 26 1 15 24
M  V30 END BOND
M  V30 END CTAB
M  END
>  <Dataset>  (318) 
ChEMBL_Kinases

>  <Ligand_Instance>  (318) 
nan

>  <PDB_ID>  (318) 
nan

>  <Standardized_SMILES>  (318) 
O=C(O)c1ccc2c(c1)[nH]c(=O)c1ccsc12

>  <Name>  (318) 
nan

>  <Pocket>  (318) 
nan

>  <ATP_Site>  (318) 
nan

>  <Peripheral>  (318) 
nan

>  <Num_H_Atoms_ProtBoundConf>  (318) 
nan

>  <Num_Resolved_Atoms>  (318) 
nan

>  <Num_Not_Resolved_Atoms>  (318) 
nan

$$$$
CHEMBL1650550
     RDKit          3D

  0  0  0  0  0  0  0  0  0  0999 V3000
M  V30 BEGIN CTAB
M  V30 COUNTS 46 49 0 0 0
M  V30 BEGIN ATOM
M  V30 1 C 0.610215 3.789138 4.217056 0
M  V30 2 C 0.953470 3.011402 2.987886 0
M  V30 3 C 2.173644 2.439341 2.799393 0
M  V30 4 N 2.525501 1.739449 1.727022 0
M  V30 5 C 3.670677 1.132605 1.409217 0
M  V30 6 C 4.947010 0.987549 2.068376 0
M  V30 7 C 5.998681 0.280387 1.481856 0
M  V30 8 N 7.087611 0.289031 2.305296 0
M  V30 9 N 6.797719 0.967044 3.400230 0
M  V30 10 C 5.529079 1.373425 3.244994 0
M  V30 11 C 3.409391 0.581670 0.162502 0
M  V30 12 N 2.145386 0.879349 -0.198745 0
M  V30 13 C 1.589610 1.602110 0.775102 0
M  V30 14 C 0.331787 2.146460 0.883019 0
M  V30 15 N -0.707044 2.036408 -0.076855 0
M  V30 16 C -1.578183 0.919730 0.257549 0
M  V30 17 C -1.527974 -0.396925 -0.223410 0
M  V30 18 C -2.502367 -1.195574 0.309538 0
M  V30 19 C -2.737447 -2.650947 -0.006727 0
M  V30 20 N -3.681771 -2.812534 -1.058303 0
M  V30 21 C -4.032915 -4.138231 -1.423029 0
M  V30 22 C -2.972511 -4.953507 -2.088897 0
M  V30 23 F -2.516590 -4.418916 -3.266662 0
M  V30 24 F -1.897762 -5.130015 -1.218385 0
M  V30 25 C -3.612209 -6.324099 -2.379763 0
M  V30 26 F -4.701709 -6.158130 -3.199231 0
M  V30 27 F -2.704979 -7.198090 -2.899924 0
M  V30 28 F -4.071154 -6.850292 -1.167363 0
M  V30 29 N -3.458294 -0.722409 1.252636 0
M  V30 30 S -2.927317 1.059861 1.411718 0
M  V30 31 N 0.035584 2.856176 2.014700 0
M  V30 32 H 0.572199 4.849048 3.920257 0
M  V30 33 H 1.303724 3.559255 5.047773 0
M  V30 34 H -0.438546 3.506933 4.469658 0
M  V30 35 H 2.891652 2.573644 3.585163 0
M  V30 36 H 6.097808 -0.243844 0.541907 0
M  V30 37 H 7.417906 1.150850 4.214824 0
M  V30 38 H 5.030879 1.953228 3.996575 0
M  V30 39 H 4.008509 -0.011882 -0.534088 0
M  V30 40 H -0.828197 2.651941 -0.890037 0
M  V30 41 H -0.824351 -0.782359 -0.929317 0
M  V30 42 H -2.941030 -3.248306 0.891548 0
M  V30 43 H -1.747301 -3.035636 -0.386899 0
M  V30 44 H -4.527995 -2.242104 -0.873703 0
M  V30 45 H -4.915529 -4.118644 -2.127470 0
M  V30 46 H -4.386569 -4.750059 -0.539087 0
M  V30 END ATOM
M  V30 BEGIN BOND
M  V30 1 1 1 2
M  V30 2 2 2 3
M  V30 3 1 3 4
M  V30 4 1 4 5
M  V30 5 1 5 6
M  V30 6 1 6 7
M  V30 7 2 7 8
M  V30 8 1 8 9
M  V30 9 1 9 10
M  V30 10 2 5 11
M  V30 11 1 11 12
M  V30 12 2 12 13
M  V30 13 1 13 14
M  V30 14 1 14 15
M  V30 15 1 15 16
M  V30 16 2 16 17
M  V30 17 1 17 18
M  V30 18 1 18 19
M  V30 19 1 19 20
M  V30 20 1 20 21
M  V30 21 1 21 22
M  V30 22 1 22 23
M  V30 23 1 22 24
M  V30 24 1 22 25
M  V30 25 1 25 26
M  V30 26 1 25 27
M  V30 27 1 25 28
M  V30 28 2 18 29
M  V30 29 1 29 30
M  V30 30 2 14 31
M  V30 31 1 31 2
M  V30 32 1 13 4
M  V30 33 1 30 16
M  V30 34 2 10 6
M  V30 35 1 1 32
M  V30 36 1 1 33
M  V30 37 1 1 34
M  V30 38 1 3 35
M  V30 39 1 7 36
M  V30 40 1 9 37
M  V30 41 1 10 38
M  V30 42 1 11 39
M  V30 43 1 15 40
M  V30 44 1 17 41
M  V30 45 1 19 42
M  V30 46 1 19 43
M  V30 47 1 20 44
M  V30 48 1 21 45
M  V30 49 1 21 46
M  V30 END BOND
M  V30 END CTAB
M  END
>  <Dataset>  (319) 
ChEMBL_Kinases

>  <Ligand_Instance>  (319) 
nan

>  <PDB_ID>  (319) 
nan

>  <Standardized_SMILES>  (319) 
Cc1cn2c(-c3cn[nH]c3)cnc2c(Nc2cc(CNCC(F)(F)C(F)(F)F)ns2)n1

>  <Name>  (319) 
nan

>  <Pocket>  (319) 
nan

>  <ATP_Site>  (319) 
nan

>  <Peripheral>  (319) 
nan

>  <Num_H_Atoms_ProtBoundConf>  (319) 
nan

>  <Num_Resolved_Atoms>  (319) 
nan

>  <Num_Not_Resolved_Atoms>  (319) 
nan

$$$$
CHEMBL1650551
     RDKit          3D

  0  0  0  0  0  0  0  0  0  0999 V3000
M  V30 BEGIN CTAB
M  V30 COUNTS 47 51 0 0 0
M  V30 BEGIN ATOM
M  V30 1 H 0.971394 -4.035234 1.359670 0 MASS=2
M  V30 2 C 0.323650 -4.342868 0.476470 0
M  V30 3 H 0.646091 -5.382638 0.289335 0 MASS=2
M  V30 4 C 0.676799 -3.406833 -0.651200 0
M  V30 5 C 1.086598 -2.137177 -0.517232 0
M  V30 6 C 1.342907 -1.498742 -1.724104 0
M  V30 7 N 1.799719 -0.125871 -1.995077 0
M  V30 8 C 2.018230 0.582632 -0.784434 0
M  V30 9 N 3.238628 0.748305 -0.240608 0
M  V30 10 C 3.434271 1.429608 0.931991 0
M  V30 11 C 4.780591 1.599817 1.495056 0
M  V30 12 C 2.277137 1.918359 1.490686 0
M  V30 13 N 1.033684 1.802043 1.024105 0
M  V30 14 C -0.144789 2.235580 1.482179 0
M  V30 15 C -0.525190 2.990917 2.655287 0
M  V30 16 C 0.117402 3.542682 3.729167 0
M  V30 17 N -0.775865 4.162330 4.558157 0
M  V30 18 N -1.983102 4.021479 4.041153 0
M  V30 19 C -1.839454 3.330937 2.919456 0
M  V30 20 C -1.010396 1.767080 0.508369 0
M  V30 21 N -0.344023 1.102545 -0.446243 0
M  V30 22 C 0.938733 1.120376 -0.129741 0
M  V30 23 S 0.993978 -2.726515 -3.028120 0
M  V30 24 N 0.501184 -4.103349 -1.954388 0
M  V30 25 N -1.041573 -4.327312 0.842572 0
M  V30 26 C -1.991660 -4.644217 -0.138535 0
M  V30 27 C -2.896719 -3.458013 -0.327445 0
M  V30 28 C -2.629924 -2.610551 0.872926 0
M  V30 29 F -2.364669 -1.319277 0.450947 0
M  V30 30 F -3.775113 -2.530295 1.647686 0
M  V30 31 C -1.498453 -3.240276 1.603829 0
M  V30 32 H 1.198967 -1.672944 0.435391 0
M  V30 33 H 1.888615 0.104572 -3.005549 0
M  V30 34 H 5.483581 1.573982 0.611985 0
M  V30 35 H 4.945681 2.596167 1.979178 0
M  V30 36 H 5.130074 0.777580 2.144437 0
M  V30 37 H 2.445956 2.449578 2.409821 0
M  V30 38 H 1.164901 3.508704 3.917854 0
M  V30 39 H -2.802918 4.428514 4.531805 0
M  V30 40 H -2.736899 3.103611 2.327608 0
M  V30 41 H -2.093958 1.869141 0.430579 0
M  V30 42 H -2.651212 -5.463562 0.251824 0
M  V30 43 H -1.555594 -4.943059 -1.130482 0
M  V30 44 H -2.598741 -2.933864 -1.257283 0
M  V30 45 H -3.986979 -3.750278 -0.360197 0
M  V30 46 H -0.731070 -2.450751 1.790716 0
M  V30 47 H -1.870383 -3.607185 2.601998 0
M  V30 END ATOM
M  V30 BEGIN BOND
M  V30 1 1 1 2
M  V30 2 1 2 3
M  V30 3 1 2 4
M  V30 4 1 4 5
M  V30 5 2 5 6
M  V30 6 1 6 7
M  V30 7 1 7 8
M  V30 8 2 8 9
M  V30 9 1 9 10
M  V30 10 1 10 11
M  V30 11 2 10 12
M  V30 12 1 12 13
M  V30 13 1 13 14
M  V30 14 1 14 15
M  V30 15 1 15 16
M  V30 16 2 16 17
M  V30 17 1 17 18
M  V30 18 1 18 19
M  V30 19 2 14 20
M  V30 20 1 20 21
M  V30 21 2 21 22
M  V30 22 1 6 23
M  V30 23 1 23 24
M  V30 24 1 2 25
M  V30 25 1 25 26
M  V30 26 1 26 27
M  V30 27 1 27 28
M  V30 28 1 28 29
M  V30 29 1 28 30
M  V30 30 1 28 31
M  V30 31 2 24 4
M  V30 32 1 31 25
M  V30 33 1 22 8
M  V30 34 1 22 13
M  V30 35 2 19 15
M  V30 36 1 5 32
M  V30 37 1 7 33
M  V30 38 1 11 34
M  V30 39 1 11 35
M  V30 40 1 11 36
M  V30 41 1 12 37
M  V30 42 1 16 38
M  V30 43 1 18 39
M  V30 44 1 19 40
M  V30 45 1 20 41
M  V30 46 1 26 42
M  V30 47 1 26 43
M  V30 48 1 27 44
M  V30 49 1 27 45
M  V30 50 1 31 46
M  V30 51 1 31 47
M  V30 END BOND
M  V30 END CTAB
M  END
>  <Dataset>  (320) 
ChEMBL_Kinases

>  <Ligand_Instance>  (320) 
nan

>  <PDB_ID>  (320) 
nan

>  <Standardized_SMILES>  (320) 
[2H]C([2H])(c1cc(Nc2nc(C)cn3c(-c4cn[nH]c4)cnc23)sn1)N1CCC(F)(F)C1

>  <Name>  (320) 
nan

>  <Pocket>  (320) 
nan

>  <ATP_Site>  (320) 
nan

>  <Peripheral>  (320) 
nan

>  <Num_H_Atoms_ProtBoundConf>  (320) 
nan

>  <Num_Resolved_Atoms>  (320) 
nan

>  <Num_Not_Resolved_Atoms>  (320) 
nan

$$$$
CHEMBL1650595
     RDKit          3D

  0  0  0  0  0  0  0  0  0  0999 V3000
M  V30 BEGIN CTAB
M  V30 COUNTS 53 57 0 0 0
M  V30 BEGIN ATOM
M  V30 1 N 1.556756 -0.872996 7.443959 0
M  V30 2 C 0.784662 -1.885948 6.729770 0
M  V30 3 C 0.699404 -1.548679 5.280884 0
M  V30 4 O 0.113590 -2.192987 4.359798 0
M  V30 5 N 1.340252 -0.361162 4.816166 0
M  V30 6 C 1.416187 0.189860 3.509453 0
M  V30 7 C 2.502331 -0.252471 2.792395 0
M  V30 8 C 2.741180 0.174673 1.502276 0
M  V30 9 C 1.860478 1.071318 0.921974 0
M  V30 10 N 1.875185 1.659846 -0.371528 0
M  V30 11 N 2.640751 2.634685 -0.857725 0
M  V30 12 C 2.309468 2.874828 -2.139065 0
M  V30 13 C 3.086717 3.947283 -2.819358 0
M  V30 14 F 4.435760 3.671564 -2.889869 0
M  V30 15 F 2.945522 5.096358 -2.046615 0
M  V30 16 F 2.558968 4.187267 -4.073284 0
M  V30 17 C 1.297237 2.007193 -2.445571 0
M  V30 18 C 1.035110 1.241694 -1.306277 0
M  V30 19 C -0.020630 0.232854 -1.391919 0
M  V30 20 C -1.233214 0.579163 -1.996088 0
M  V30 21 C -2.229781 -0.381476 -2.074189 0
M  V30 22 C -1.993368 -1.613489 -1.565100 0
M  V30 23 C -0.813967 -1.977908 -0.968189 0
M  V30 24 C -0.531911 -3.219324 -0.437621 0
M  V30 25 C -1.511859 -4.187820 -0.506455 0
M  V30 26 C -2.707318 -3.843766 -1.102979 0
M  V30 27 C -3.656393 -4.868908 -1.140358 0
M  V30 28 C -4.865192 -4.559156 -1.730726 0
M  V30 29 C -5.135726 -3.310465 -2.259096 0
M  V30 30 C -4.166707 -2.325423 -2.200223 0
M  V30 31 C -2.948029 -2.590576 -1.620874 0
M  V30 32 C 0.193968 -1.015209 -0.886201 0
M  V30 33 C 0.758996 1.514111 1.661661 0
M  V30 34 C 0.530837 1.075476 2.960139 0
M  V30 35 H 2.510863 -0.869583 6.973278 0
M  V30 36 H 1.743173 -1.297618 8.396689 0
M  V30 37 H 1.317797 -2.832097 6.823910 0
M  V30 38 H -0.224345 -1.977468 7.183492 0
M  V30 39 H 1.872489 0.300899 5.419147 0
M  V30 40 H 3.265287 -0.959351 3.144166 0
M  V30 41 H 3.545491 -0.091270 0.838173 0
M  V30 42 H 0.902161 2.069705 -3.469100 0
M  V30 43 H -1.326905 1.573797 -2.367980 0
M  V30 44 H -3.110616 -0.040650 -2.543061 0
M  V30 45 H 0.417750 -3.428704 0.014785 0
M  V30 46 H -1.333418 -5.175765 -0.102725 0
M  V30 47 H -3.461634 -5.847556 -0.733207 0
M  V30 48 H -5.612712 -5.343046 -1.768078 0
M  V30 49 H -6.125558 -3.187864 -2.698492 0
M  V30 50 H -4.487744 -1.398438 -2.640850 0
M  V30 51 H 1.124728 -1.264631 -0.427951 0
M  V30 52 H -0.005291 2.219191 1.315780 0
M  V30 53 H -0.294714 1.386059 3.560461 0
M  V30 END ATOM
M  V30 BEGIN BOND
M  V30 1 1 1 2
M  V30 2 1 2 3
M  V30 3 2 3 4
M  V30 4 1 3 5
M  V30 5 1 5 6
M  V30 6 2 6 7
M  V30 7 1 7 8
M  V30 8 2 8 9
M  V30 9 1 9 10
M  V30 10 1 10 11
M  V30 11 2 11 12
M  V30 12 1 12 13
M  V30 13 1 13 14
M  V30 14 1 13 15
M  V30 15 1 13 16
M  V30 16 1 12 17
M  V30 17 2 17 18
M  V30 18 1 18 19
M  V30 19 2 19 20
M  V30 20 1 20 21
M  V30 21 2 21 22
M  V30 22 1 22 23
M  V30 23 1 23 24
M  V30 24 2 24 25
M  V30 25 1 25 26
M  V30 26 2 26 27
M  V30 27 1 27 28
M  V30 28 2 28 29
M  V30 29 1 29 30
M  V30 30 2 30 31
M  V30 31 2 23 32
M  V30 32 1 9 33
M  V30 33 2 33 34
M  V30 34 1 34 6
M  V30 35 1 18 10
M  V30 36 1 32 19
M  V30 37 1 31 22
M  V30 38 1 31 26
M  V30 39 1 1 35
M  V30 40 1 1 36
M  V30 41 1 2 37
M  V30 42 1 2 38
M  V30 43 1 5 39
M  V30 44 1 7 40
M  V30 45 1 8 41
M  V30 46 1 17 42
M  V30 47 1 20 43
M  V30 48 1 21 44
M  V30 49 1 24 45
M  V30 50 1 25 46
M  V30 51 1 27 47
M  V30 52 1 28 48
M  V30 53 1 29 49
M  V30 54 1 30 50
M  V30 55 1 32 51
M  V30 56 1 33 52
M  V30 57 1 34 53
M  V30 END BOND
M  V30 END CTAB
M  END
>  <Dataset>  (321) 
ChEMBL_Kinases

>  <Ligand_Instance>  (321) 
nan

>  <PDB_ID>  (321) 
nan

>  <Standardized_SMILES>  (321) 
NCC(=O)Nc1ccc(-n2nc(C(F)(F)F)cc2-c2ccc3c(ccc4ccccc43)c2)cc1

>  <Name>  (321) 
AR-12

>  <Pocket>  (321) 
nan

>  <ATP_Site>  (321) 
nan

>  <Peripheral>  (321) 
nan

>  <Num_H_Atoms_ProtBoundConf>  (321) 
nan

>  <Num_Resolved_Atoms>  (321) 
nan

>  <Num_Not_Resolved_Atoms>  (321) 
nan

$$$$
CHEMBL1652454
     RDKit          3D

  0  0  0  0  0  0  0  0  0  0999 V3000
M  V30 BEGIN CTAB
M  V30 COUNTS 47 50 0 0 0
M  V30 BEGIN ATOM
M  V30 1 N 2.983885 -2.895291 4.465032 0
M  V30 2 S 2.719609 -1.328342 5.176053 0
M  V30 3 O 1.590449 -1.451198 6.165705 0
M  V30 4 O 3.941859 -0.910556 5.930727 0
M  V30 5 C 2.295476 -0.197121 3.910574 0
M  V30 6 C 3.249985 0.546025 3.220244 0
M  V30 7 C 2.887917 1.431176 2.226564 0
M  V30 8 C 1.556418 1.599779 1.892891 0
M  V30 9 N 1.043630 2.475687 0.891874 0
M  V30 10 N 1.248011 3.767792 0.693053 0
M  V30 11 C 0.549910 4.194153 -0.390711 0
M  V30 12 C 0.542942 5.593717 -0.909735 0
M  V30 13 F 1.851937 6.017574 -1.050891 0
M  V30 14 F -0.030936 6.400542 0.053300 0
M  V30 15 F -0.147185 5.621141 -2.098866 0
M  V30 16 C -0.133437 3.111904 -0.905348 0
M  V30 17 C 0.194692 2.047113 -0.081092 0
M  V30 18 C -0.302619 0.686303 -0.246862 0
M  V30 19 C 0.518244 -0.423355 -0.154777 0
M  V30 20 C -0.021090 -1.703218 -0.323956 0
M  V30 21 C -1.378406 -1.894160 -0.585810 0
M  V30 22 C -1.937210 -3.227045 -0.761450 0
M  V30 23 C -1.277789 -4.161970 -1.558666 0
M  V30 24 C -1.791586 -5.443732 -1.742670 0
M  V30 25 Cl -0.965872 -6.610918 -2.739535 0
M  V30 26 C -2.973634 -5.820609 -1.135827 0
M  V30 27 Cl -3.672505 -7.414267 -1.326129 0
M  V30 28 C -3.641340 -4.897612 -0.338077 0
M  V30 29 C -3.112091 -3.635678 -0.171920 0
M  V30 30 Cl -4.002219 -2.536322 0.839048 0
M  V30 31 C -2.151140 -0.757745 -0.667533 0
M  V30 32 C -1.655238 0.533871 -0.505763 0
M  V30 33 C 0.590930 0.877276 2.559761 0
M  V30 34 C 0.957051 -0.005104 3.550922 0
M  V30 35 H 3.980689 -3.078539 4.311018 0
M  V30 36 H 2.414896 -2.976988 3.601806 0
M  V30 37 H 4.292120 0.413651 3.481859 0
M  V30 38 H 3.595890 2.021139 1.672831 0
M  V30 39 H -0.788381 3.130420 -1.783171 0
M  V30 40 H 1.582572 -0.288532 0.049742 0
M  V30 41 H 0.640966 -2.558705 -0.247545 0
M  V30 42 H -0.357021 -3.919513 -2.051834 0
M  V30 43 H -4.576684 -5.189797 0.144513 0
M  V30 44 H -3.208323 -0.814632 -0.866528 0
M  V30 45 H -2.290938 1.410090 -0.576146 0
M  V30 46 H -0.465482 0.919321 2.393724 0
M  V30 47 H 0.241135 -0.601996 4.111197 0
M  V30 END ATOM
M  V30 BEGIN BOND
M  V30 1 1 1 2
M  V30 2 2 2 3
M  V30 3 2 2 4
M  V30 4 1 2 5
M  V30 5 2 5 6
M  V30 6 1 6 7
M  V30 7 2 7 8
M  V30 8 1 8 9
M  V30 9 1 9 10
M  V30 10 2 10 11
M  V30 11 1 11 12
M  V30 12 1 12 13
M  V30 13 1 12 14
M  V30 14 1 12 15
M  V30 15 1 11 16
M  V30 16 2 16 17
M  V30 17 1 17 18
M  V30 18 2 18 19
M  V30 19 1 19 20
M  V30 20 2 20 21
M  V30 21 1 21 22
M  V30 22 2 22 23
M  V30 23 1 23 24
M  V30 24 1 24 25
M  V30 25 2 24 26
M  V30 26 1 26 27
M  V30 27 1 26 28
M  V30 28 2 28 29
M  V30 29 1 29 30
M  V30 30 1 21 31
M  V30 31 2 31 32
M  V30 32 1 8 33
M  V30 33 2 33 34
M  V30 34 1 34 5
M  V30 35 1 17 9
M  V30 36 1 32 18
M  V30 37 1 29 22
M  V30 38 1 1 35
M  V30 39 1 1 36
M  V30 40 1 6 37
M  V30 41 1 7 38
M  V30 42 1 16 39
M  V30 43 1 19 40
M  V30 44 1 20 41
M  V30 45 1 23 42
M  V30 46 1 28 43
M  V30 47 1 31 44
M  V30 48 1 32 45
M  V30 49 1 33 46
M  V30 50 1 34 47
M  V30 END BOND
M  V30 END CTAB
M  END
>  <Dataset>  (322) 
ChEMBL_Kinases

>  <Ligand_Instance>  (322) 
nan

>  <PDB_ID>  (322) 
nan

>  <Standardized_SMILES>  (322) 
NS(=O)(=O)c1ccc(-n2nc(C(F)(F)F)cc2-c2ccc(-c3cc(Cl)c(Cl)cc3Cl)cc2)cc1

>  <Name>  (322) 
nan

>  <Pocket>  (322) 
nan

>  <ATP_Site>  (322) 
nan

>  <Peripheral>  (322) 
nan

>  <Num_H_Atoms_ProtBoundConf>  (322) 
nan

>  <Num_Resolved_Atoms>  (322) 
nan

>  <Num_Not_Resolved_Atoms>  (322) 
nan

$$$$
CHEMBL1652693
     RDKit          3D

  0  0  0  0  0  0  0  0  0  0999 V3000
M  V30 BEGIN CTAB
M  V30 COUNTS 38 41 0 0 0
M  V30 BEGIN ATOM
M  V30 1 O 4.598653 -4.968342 0.585776 0
M  V30 2 C 3.519122 -5.142730 1.207252 0
M  V30 3 O 3.423839 -6.415261 1.754773 0
M  V30 4 C 2.423609 -4.205236 1.398088 0
M  V30 5 C 1.284392 -4.540669 2.093822 0
M  V30 6 C 0.308148 -3.582673 2.241784 0
M  V30 7 C 0.422275 -2.321364 1.729065 0
M  V30 8 C 1.526697 -1.930018 1.028123 0
M  V30 9 C 2.510200 -2.902668 0.881757 0
M  V30 10 N 1.720735 -0.704641 0.502563 0
M  V30 11 C 0.764077 0.237708 0.664668 0
M  V30 12 N 0.824310 1.574826 0.199934 0
M  V30 13 C 0.156896 2.400679 -0.729042 0
M  V30 14 C 0.409138 3.772388 -0.598358 0
M  V30 15 C -0.230589 4.602937 -1.484091 0
M  V30 16 C -1.095140 4.183420 -2.483531 0
M  V30 17 C -1.308905 2.801104 -2.563966 0
M  V30 18 C -0.685573 1.902868 -1.690108 0
M  V30 19 C -0.385953 -0.116036 1.373668 0
M  V30 20 C -1.426464 0.756913 1.598540 0
M  V30 21 C -2.595886 0.485940 2.283269 0
M  V30 22 C -2.719456 -0.795911 2.790353 0
M  V30 23 C -1.708669 -1.707527 2.595950 0
M  V30 24 C -0.567190 -1.383590 1.906485 0
M  V30 25 H 4.253380 -6.985378 1.987581 0
M  V30 26 H 1.262002 -5.555433 2.468978 0
M  V30 27 H -0.546262 -3.950049 2.802625 0
M  V30 28 H 3.409478 -2.628084 0.328583 0
M  V30 29 H 1.654913 1.936406 0.772921 0
M  V30 30 H 1.076741 4.208324 0.165286 0
M  V30 31 H -0.084665 5.676366 -1.439457 0
M  V30 32 H -1.592911 4.853657 -3.169453 0
M  V30 33 H -1.985099 2.446385 -3.341163 0
M  V30 34 H -0.853815 0.833330 -1.763357 0
M  V30 35 H -1.344074 1.760373 1.210007 0
M  V30 36 H -3.363988 1.248263 2.410010 0
M  V30 37 H -3.648620 -1.006384 3.327154 0
M  V30 38 H -1.930627 -2.661027 3.035691 0
M  V30 END ATOM
M  V30 BEGIN BOND
M  V30 1 2 1 2
M  V30 2 1 2 3
M  V30 3 1 2 4
M  V30 4 2 4 5
M  V30 5 1 5 6
M  V30 6 2 6 7
M  V30 7 1 7 8
M  V30 8 2 8 9
M  V30 9 1 8 10
M  V30 10 2 10 11
M  V30 11 1 11 12
M  V30 12 1 12 13
M  V30 13 2 13 14
M  V30 14 1 14 15
M  V30 15 2 15 16
M  V30 16 1 16 17
M  V30 17 2 17 18
M  V30 18 1 11 19
M  V30 19 2 19 20
M  V30 20 1 20 21
M  V30 21 2 21 22
M  V30 22 1 22 23
M  V30 23 2 23 24
M  V30 24 1 9 4
M  V30 25 1 18 13
M  V30 26 1 24 19
M  V30 27 1 24 7
M  V30 28 1 3 25
M  V30 29 1 5 26
M  V30 30 1 6 27
M  V30 31 1 9 28
M  V30 32 1 12 29
M  V30 33 1 14 30
M  V30 34 1 15 31
M  V30 35 1 16 32
M  V30 36 1 17 33
M  V30 37 1 18 34
M  V30 38 1 20 35
M  V30 39 1 21 36
M  V30 40 1 22 37
M  V30 41 1 23 38
M  V30 END BOND
M  V30 END CTAB
M  END
>  <Dataset>  (323) 
ChEMBL_Kinases

>  <Ligand_Instance>  (323) 
nan

>  <PDB_ID>  (323) 
nan

>  <Standardized_SMILES>  (323) 
O=C(O)c1ccc2c(c1)nc(Nc1ccccc1)c1ccccc12

>  <Name>  (323) 
nan

>  <Pocket>  (323) 
nan

>  <ATP_Site>  (323) 
nan

>  <Peripheral>  (323) 
nan

>  <Num_H_Atoms_ProtBoundConf>  (323) 
nan

>  <Num_Resolved_Atoms>  (323) 
nan

>  <Num_Not_Resolved_Atoms>  (323) 
nan

$$$$
CHEMBL1652698
     RDKit          3D

  0  0  0  0  0  0  0  0  0  0999 V3000
M  V30 BEGIN CTAB
M  V30 COUNTS 41 43 0 0 0
M  V30 BEGIN ATOM
M  V30 1 C -0.709199 -5.994180 0.320923 0
M  V30 2 N 0.031780 -4.779549 0.633805 0
M  V30 3 C 1.138616 -5.078779 1.538071 0
M  V30 4 C 0.425904 -4.044970 -0.525278 0
M  V30 5 C 1.050359 -2.698083 -0.226785 0
M  V30 6 N 0.139830 -1.834230 0.496970 0
M  V30 7 C 0.053284 -0.458035 0.828072 0
M  V30 8 N 1.047023 0.302189 0.299991 0
M  V30 9 C 1.066117 1.645344 0.493510 0
M  V30 10 C 2.082723 2.400482 -0.069760 0
M  V30 11 C 2.031880 3.774523 0.157840 0
M  V30 12 C 3.073980 4.644309 -0.425898 0
M  V30 13 O 3.142112 5.901918 -0.289436 0
M  V30 14 O 4.128055 4.255378 -1.202794 0
M  V30 15 C 1.061555 4.429757 0.889022 0
M  V30 16 C 0.051733 3.645260 1.443038 0
M  V30 17 C 0.091551 2.289318 1.225746 0
M  V30 18 C -0.887650 1.463714 1.734831 0
M  V30 19 C -1.910070 2.001604 2.480814 0
M  V30 20 N -2.924106 1.267485 3.026306 0
M  V30 21 C -2.944117 -0.084101 2.832165 0
M  V30 22 C -1.946326 -0.682751 2.092363 0
M  V30 23 C -0.963634 0.102906 1.575191 0
M  V30 24 H -1.589494 -5.654151 -0.283667 0
M  V30 25 H -1.131511 -6.363083 1.288994 0
M  V30 26 H -0.159129 -6.732808 -0.255560 0
M  V30 27 H 2.125859 -4.781989 1.129698 0
M  V30 28 H 1.194311 -6.178704 1.743486 0
M  V30 29 H 0.892131 -4.595692 2.492934 0
M  V30 30 H 1.126835 -4.614936 -1.193839 0
M  V30 31 H -0.479039 -3.860752 -1.139135 0
M  V30 32 H 1.420105 -2.215520 -1.140053 0
M  V30 33 H 1.910780 -2.855311 0.461983 0
M  V30 34 H -0.649385 -2.408421 0.849489 0
M  V30 35 H 2.856866 1.940766 -0.643103 0
M  V30 36 H 5.092690 4.500969 -1.060907 0
M  V30 37 H 1.087694 5.507679 1.024693 0
M  V30 38 H -0.690984 4.161279 2.003417 0
M  V30 39 H -2.050443 3.024176 2.728276 0
M  V30 40 H -3.729260 -0.690291 3.250643 0
M  V30 41 H -2.006595 -1.748772 1.969026 0
M  V30 END ATOM
M  V30 BEGIN BOND
M  V30 1 1 1 2
M  V30 2 1 2 3
M  V30 3 1 2 4
M  V30 4 1 4 5
M  V30 5 1 5 6
M  V30 6 1 6 7
M  V30 7 2 7 8
M  V30 8 1 8 9
M  V30 9 2 9 10
M  V30 10 1 10 11
M  V30 11 1 11 12
M  V30 12 2 12 13
M  V30 13 1 12 14
M  V30 14 2 11 15
M  V30 15 1 15 16
M  V30 16 2 16 17
M  V30 17 1 17 18
M  V30 18 2 18 19
M  V30 19 1 19 20
M  V30 20 2 20 21
M  V30 21 1 21 22
M  V30 22 2 22 23
M  V30 23 1 23 7
M  V30 24 1 17 9
M  V30 25 1 23 18
M  V30 26 1 1 24
M  V30 27 1 1 25
M  V30 28 1 1 26
M  V30 29 1 3 27
M  V30 30 1 3 28
M  V30 31 1 3 29
M  V30 32 1 4 30
M  V30 33 1 4 31
M  V30 34 1 5 32
M  V30 35 1 5 33
M  V30 36 1 6 34
M  V30 37 1 10 35
M  V30 38 1 14 36
M  V30 39 1 15 37
M  V30 40 1 16 38
M  V30 41 1 19 39
M  V30 42 1 21 40
M  V30 43 1 22 41
M  V30 END BOND
M  V30 END CTAB
M  END
>  <Dataset>  (324) 
ChEMBL_Kinases

>  <Ligand_Instance>  (324) 
nan

>  <PDB_ID>  (324) 
nan

>  <Standardized_SMILES>  (324) 
CN(C)CCNc1nc2cc(C(=O)O)ccc2c2cnccc12

>  <Name>  (324) 
nan

>  <Pocket>  (324) 
nan

>  <ATP_Site>  (324) 
nan

>  <Peripheral>  (324) 
nan

>  <Num_H_Atoms_ProtBoundConf>  (324) 
nan

>  <Num_Resolved_Atoms>  (324) 
nan

>  <Num_Not_Resolved_Atoms>  (324) 
nan

$$$$
CHEMBL1652701
     RDKit          3D

  0  0  0  0  0  0  0  0  0  0999 V3000
M  V30 BEGIN CTAB
M  V30 COUNTS 34 37 0 0 0
M  V30 BEGIN ATOM
M  V30 1 O 2.066437 -4.379768 4.153630 0
M  V30 2 C 1.347551 -3.380854 3.922700 0
M  V30 3 O 0.671065 -2.844481 5.010759 0
M  V30 4 C 1.224416 -2.810709 2.592594 0
M  V30 5 C 1.923408 -3.391242 1.553557 0
M  V30 6 C 1.811565 -2.855096 0.286206 0
M  V30 7 C 1.008914 -1.756806 0.083217 0
M  V30 8 C 0.314554 -1.183220 1.125397 0
M  V30 9 C 0.409667 -1.705202 2.416741 0
M  V30 10 N -0.462561 -0.115872 0.915965 0
M  V30 11 C -0.660102 0.501004 -0.254923 0
M  V30 12 N -1.492154 1.632860 -0.447646 0
M  V30 13 C -2.292206 2.361158 0.471756 0
M  V30 14 C -1.722351 3.028541 1.666885 0
M  V30 15 C -2.559523 1.769634 1.826797 0
M  V30 16 C 0.030403 -0.066885 -1.299856 0
M  V30 17 C -0.033587 0.412543 -2.587749 0
M  V30 18 C 0.627639 -0.103016 -3.682911 0
M  V30 19 N 1.424026 -1.194604 -3.474830 0
M  V30 20 C 1.523776 -1.712639 -2.211671 0
M  V30 21 C 0.845033 -1.165071 -1.147117 0
M  V30 22 H 0.455243 -3.440331 5.815499 0
M  V30 23 H 2.548739 -4.255420 1.739269 0
M  V30 24 H 2.360879 -3.328874 -0.473533 0
M  V30 25 H -0.137646 -1.253702 3.240263 0
M  V30 26 H -1.560278 2.043204 -1.401151 0
M  V30 27 H -3.181013 2.895672 0.014724 0
M  V30 28 H -0.651619 2.994548 1.906645 0
M  V30 29 H -2.212027 3.957506 2.021062 0
M  V30 30 H -2.105356 0.858176 2.187335 0
M  V30 31 H -3.603973 1.909008 2.240864 0
M  V30 32 H -0.630996 1.260380 -2.841947 0
M  V30 33 H 0.543747 0.315300 -4.689062 0
M  V30 34 H 2.166723 -2.539226 -2.221229 0
M  V30 END ATOM
M  V30 BEGIN BOND
M  V30 1 2 1 2
M  V30 2 1 2 3
M  V30 3 1 2 4
M  V30 4 2 4 5
M  V30 5 1 5 6
M  V30 6 2 6 7
M  V30 7 1 7 8
M  V30 8 2 8 9
M  V30 9 1 8 10
M  V30 10 2 10 11
M  V30 11 1 11 12
M  V30 12 1 12 13
M  V30 13 1 13 14
M  V30 14 1 14 15
M  V30 15 1 11 16
M  V30 16 2 16 17
M  V30 17 1 17 18
M  V30 18 2 18 19
M  V30 19 1 19 20
M  V30 20 2 20 21
M  V30 21 1 9 4
M  V30 22 1 15 13
M  V30 23 1 21 16
M  V30 24 1 21 7
M  V30 25 1 3 22
M  V30 26 1 5 23
M  V30 27 1 6 24
M  V30 28 1 9 25
M  V30 29 1 12 26
M  V30 30 1 13 27
M  V30 31 1 14 28
M  V30 32 1 14 29
M  V30 33 1 15 30
M  V30 34 1 15 31
M  V30 35 1 17 32
M  V30 36 1 18 33
M  V30 37 1 20 34
M  V30 END BOND
M  V30 END CTAB
M  END
>  <Dataset>  (325) 
ChEMBL_Kinases

>  <Ligand_Instance>  (325) 
nan

>  <PDB_ID>  (325) 
nan

>  <Standardized_SMILES>  (325) 
O=C(O)c1ccc2c(c1)nc(NC1CC1)c1ccncc12

>  <Name>  (325) 
nan

>  <Pocket>  (325) 
nan

>  <ATP_Site>  (325) 
nan

>  <Peripheral>  (325) 
nan

>  <Num_H_Atoms_ProtBoundConf>  (325) 
nan

>  <Num_Resolved_Atoms>  (325) 
nan

>  <Num_Not_Resolved_Atoms>  (325) 
nan

$$$$
CHEMBL1652705
     RDKit          3D

  0  0  0  0  0  0  0  0  0  0999 V3000
M  V30 BEGIN CTAB
M  V30 COUNTS 46 49 0 0 0
M  V30 BEGIN ATOM
M  V30 1 O 5.360408 -2.388644 1.976016 0
M  V30 2 C 4.504907 -3.295308 1.787123 0
M  V30 3 O 4.934358 -4.548776 2.169775 0
M  V30 4 C 3.184890 -3.042153 1.217353 0
M  V30 5 C 2.306782 -4.119453 1.048132 0
M  V30 6 C 1.056417 -3.871879 0.507122 0
M  V30 7 C 0.745358 -2.591258 0.167226 0
M  V30 8 C 1.621856 -1.542848 0.340675 0
M  V30 9 C 2.885325 -1.733490 0.877327 0
M  V30 10 N 1.291652 -0.288008 -0.002430 0
M  V30 11 C 0.123074 0.085550 -0.531910 0
M  V30 12 N -0.171306 1.428099 -0.878153 0
M  V30 13 C 0.747928 2.496574 -0.692311 0
M  V30 14 C 1.174904 2.702501 0.704857 0
M  V30 15 C 0.131918 3.037919 1.716808 0
M  V30 16 C -0.889439 1.996913 1.869355 0
M  V30 17 C -0.520713 1.002454 2.786719 0
M  V30 18 C -1.321182 -0.067864 3.120016 0
M  V30 19 C -2.563719 -0.207391 2.541719 0
M  V30 20 C -2.947186 0.758491 1.636750 0
M  V30 21 C -2.134134 1.821626 1.315394 0
M  V30 22 C -0.745667 -0.969917 -0.701257 0
M  V30 23 C -1.994849 -0.750467 -1.239902 0
M  V30 24 C -2.932435 -1.738477 -1.450537 0
M  V30 25 N -2.626416 -3.022040 -1.111979 0
M  V30 26 C -1.397745 -3.282222 -0.574810 0
M  V30 27 C -0.475432 -2.280518 -0.372693 0
M  V30 28 H 5.628903 -4.717575 2.910530 0
M  V30 29 H 2.631664 -5.108895 1.344505 0
M  V30 30 H 0.445132 -4.713126 0.404713 0
M  V30 31 H 3.591209 -0.940551 1.025666 0
M  V30 32 H -1.075189 1.710194 -1.302172 0
M  V30 33 H 1.682985 2.256237 -1.292234 0
M  V30 34 H 0.380296 3.446019 -1.158232 0
M  V30 35 H 1.991166 3.476407 0.733525 0
M  V30 36 H 1.689432 1.765128 1.039304 0
M  V30 37 H -0.365990 4.015342 1.451329 0
M  V30 38 H 0.633261 3.253277 2.703302 0
M  V30 39 H 0.441240 0.988417 3.322288 0
M  V30 40 H -1.038790 -0.828893 3.822175 0
M  V30 41 H -3.290470 -0.976590 2.698583 0
M  V30 42 H -3.910106 0.741609 1.122883 0
M  V30 43 H -2.362833 2.628631 0.609241 0
M  V30 44 H -2.323800 0.213640 -1.533886 0
M  V30 45 H -3.921050 -1.537204 -1.881471 0
M  V30 46 H -1.288320 -4.307954 -0.358532 0
M  V30 END ATOM
M  V30 BEGIN BOND
M  V30 1 2 1 2
M  V30 2 1 2 3
M  V30 3 1 2 4
M  V30 4 2 4 5
M  V30 5 1 5 6
M  V30 6 2 6 7
M  V30 7 1 7 8
M  V30 8 2 8 9
M  V30 9 1 8 10
M  V30 10 2 10 11
M  V30 11 1 11 12
M  V30 12 1 12 13
M  V30 13 1 13 14
M  V30 14 1 14 15
M  V30 15 1 15 16
M  V30 16 2 16 17
M  V30 17 1 17 18
M  V30 18 2 18 19
M  V30 19 1 19 20
M  V30 20 2 20 21
M  V30 21 1 11 22
M  V30 22 2 22 23
M  V30 23 1 23 24
M  V30 24 2 24 25
M  V30 25 1 25 26
M  V30 26 2 26 27
M  V30 27 1 9 4
M  V30 28 1 21 16
M  V30 29 1 27 22
M  V30 30 1 27 7
M  V30 31 1 3 28
M  V30 32 1 5 29
M  V30 33 1 6 30
M  V30 34 1 9 31
M  V30 35 1 12 32
M  V30 36 1 13 33
M  V30 37 1 13 34
M  V30 38 1 14 35
M  V30 39 1 14 36
M  V30 40 1 15 37
M  V30 41 1 15 38
M  V30 42 1 17 39
M  V30 43 1 18 40
M  V30 44 1 19 41
M  V30 45 1 20 42
M  V30 46 1 21 43
M  V30 47 1 23 44
M  V30 48 1 24 45
M  V30 49 1 26 46
M  V30 END BOND
M  V30 END CTAB
M  END
>  <Dataset>  (326) 
ChEMBL_Kinases

>  <Ligand_Instance>  (326) 
nan

>  <PDB_ID>  (326) 
nan

>  <Standardized_SMILES>  (326) 
O=C(O)c1ccc2c(c1)nc(NCCCc1ccccc1)c1ccncc12

>  <Name>  (326) 
nan

>  <Pocket>  (326) 
nan

>  <ATP_Site>  (326) 
nan

>  <Peripheral>  (326) 
nan

>  <Num_H_Atoms_ProtBoundConf>  (326) 
nan

>  <Num_Resolved_Atoms>  (326) 
nan

>  <Num_Not_Resolved_Atoms>  (326) 
nan

$$$$
CHEMBL1650549
     RDKit          3D

  0  0  0  0  0  0  0  0  0  0999 V3000
M  V30 BEGIN CTAB
M  V30 COUNTS 46 49 0 0 0
M  V30 BEGIN ATOM
M  V30 1 C -2.872958 2.815975 1.023424 0
M  V30 2 C -1.476565 2.304044 1.127747 0
M  V30 3 C -0.581952 2.325473 0.081446 0
M  V30 4 N 0.677845 1.872325 0.141795 0
M  V30 5 C 1.625276 1.845377 -0.801880 0
M  V30 6 C 1.691743 2.260833 -2.181292 0
M  V30 7 C 2.858205 2.102111 -2.935141 0
M  V30 8 N 2.669071 2.563575 -4.184557 0
M  V30 9 N 1.444813 3.021479 -4.310780 0
M  V30 10 C 0.871119 2.836808 -3.113344 0
M  V30 11 C 2.684694 1.270536 -0.131485 0
M  V30 12 N 2.338400 0.988966 1.135930 0
M  V30 13 C 1.070076 1.367168 1.315388 0
M  V30 14 C 0.233759 1.308937 2.414791 0
M  V30 15 N 0.774613 0.743841 3.603410 0
M  V30 16 C 0.583975 -0.649104 3.885645 0
M  V30 17 C -0.065703 -1.574010 3.219972 0
M  V30 18 C 0.026285 -2.774300 3.875387 0
M  V30 19 C -0.625524 -4.029634 3.350263 0
M  V30 20 N 0.262950 -4.769840 2.478536 0
M  V30 21 C 0.635673 -3.981461 1.304132 0
M  V30 22 C -0.569232 -3.776836 0.401831 0
M  V30 23 C -1.036541 -5.157534 -0.010501 0
M  V30 24 F -2.131181 -5.083011 -0.834308 0
M  V30 25 F -1.235923 -6.013577 1.032342 0
M  V30 26 F 0.015311 -5.694956 -0.762189 0
M  V30 27 N 0.705145 -3.021874 5.081967 0
M  V30 28 S 1.331498 -1.301578 5.374436 0
M  V30 29 N -1.040859 1.781815 2.308779 0
M  V30 30 H -2.938914 3.774102 1.536228 0
M  V30 31 H -3.131548 2.954497 -0.043372 0
M  V30 32 H -3.579332 2.090800 1.472606 0
M  V30 33 H -0.952590 2.738019 -0.821599 0
M  V30 34 H 3.828508 1.694448 -2.697145 0
M  V30 35 H 0.994296 3.441783 -5.150646 0
M  V30 36 H -0.143364 3.118454 -2.912513 0
M  V30 37 H 3.694238 1.013146 -0.412759 0
M  V30 38 H 1.289715 1.427470 4.197347 0
M  V30 39 H -0.595869 -1.437808 2.301071 0
M  V30 40 H -0.979148 -4.700001 4.131650 0
M  V30 41 H -1.561671 -3.721486 2.791656 0
M  V30 42 H 1.170272 -4.925476 2.982645 0
M  V30 43 H 1.133291 -3.038829 1.572105 0
M  V30 44 H 1.351862 -4.609130 0.728479 0
M  V30 45 H -0.191859 -3.275636 -0.520298 0
M  V30 46 H -1.363603 -3.172373 0.840705 0
M  V30 END ATOM
M  V30 BEGIN BOND
M  V30 1 1 1 2
M  V30 2 2 2 3
M  V30 3 1 3 4
M  V30 4 1 4 5
M  V30 5 1 5 6
M  V30 6 1 6 7
M  V30 7 2 7 8
M  V30 8 1 8 9
M  V30 9 1 9 10
M  V30 10 2 5 11
M  V30 11 1 11 12
M  V30 12 2 12 13
M  V30 13 1 13 14
M  V30 14 1 14 15
M  V30 15 1 15 16
M  V30 16 2 16 17
M  V30 17 1 17 18
M  V30 18 1 18 19
M  V30 19 1 19 20
M  V30 20 1 20 21
M  V30 21 1 21 22
M  V30 22 1 22 23
M  V30 23 1 23 24
M  V30 24 1 23 25
M  V30 25 1 23 26
M  V30 26 2 18 27
M  V30 27 1 27 28
M  V30 28 2 14 29
M  V30 29 1 29 2
M  V30 30 1 13 4
M  V30 31 1 28 16
M  V30 32 2 10 6
M  V30 33 1 1 30
M  V30 34 1 1 31
M  V30 35 1 1 32
M  V30 36 1 3 33
M  V30 37 1 7 34
M  V30 38 1 9 35
M  V30 39 1 10 36
M  V30 40 1 11 37
M  V30 41 1 15 38
M  V30 42 1 17 39
M  V30 43 1 19 40
M  V30 44 1 19 41
M  V30 45 1 20 42
M  V30 46 1 21 43
M  V30 47 1 21 44
M  V30 48 1 22 45
M  V30 49 1 22 46
M  V30 END BOND
M  V30 END CTAB
M  END
>  <Dataset>  (327) 
ChEMBL_Kinases

>  <Ligand_Instance>  (327) 
nan

>  <PDB_ID>  (327) 
nan

>  <Standardized_SMILES>  (327) 
Cc1cn2c(-c3cn[nH]c3)cnc2c(Nc2cc(CNCCC(F)(F)F)ns2)n1

>  <Name>  (327) 
nan

>  <Pocket>  (327) 
nan

>  <ATP_Site>  (327) 
nan

>  <Peripheral>  (327) 
nan

>  <Num_H_Atoms_ProtBoundConf>  (327) 
nan

>  <Num_Resolved_Atoms>  (327) 
nan

>  <Num_Not_Resolved_Atoms>  (327) 
nan

$$$$
CHEMBL1672570
     RDKit          3D

  0  0  0  0  0  0  0  0  0  0999 V3000
M  V30 BEGIN CTAB
M  V30 COUNTS 28 30 0 0 0
M  V30 BEGIN ATOM
M  V30 1 O 1.468268 -4.030124 1.469116 0
M  V30 2 C 0.706690 -3.059958 1.779716 0
M  V30 3 N -0.048516 -3.209036 2.978037 0
M  V30 4 C -1.079483 -2.235256 3.366068 0
M  V30 5 C -0.344351 -0.896894 3.425999 0
M  V30 6 C -0.574519 -0.126237 2.163356 0
M  V30 7 C 0.191380 -0.731233 1.056077 0
M  V30 8 C 0.772441 -1.956512 0.801633 0
M  V30 9 N 1.359318 -1.956186 -0.401436 0
M  V30 10 C 1.168211 -0.735844 -0.942431 0
M  V30 11 C 1.585724 -0.251306 -2.168456 0
M  V30 12 C 1.250461 1.061073 -2.484327 0
M  V30 13 C 0.528456 1.897106 -1.643512 0
M  V30 14 O 0.210370 3.195586 -1.983972 0
M  V30 15 C 0.149854 1.333650 -0.436933 0
M  V30 16 C 0.438936 0.056843 -0.053594 0
M  V30 17 H 0.197760 -4.055658 3.536125 0
M  V30 18 H -1.786369 -2.233062 2.507278 0
M  V30 19 H -1.585440 -2.496000 4.298628 0
M  V30 20 H 0.745852 -1.019308 3.582473 0
M  V30 21 H -0.785680 -0.320365 4.271925 0
M  V30 22 H -0.326421 0.944755 2.304576 0
M  V30 23 H -1.676833 -0.193547 1.933339 0
M  V30 24 H 1.855412 -2.786782 -0.783415 0
M  V30 25 H 2.156641 -0.858201 -2.874861 0
M  V30 26 H 1.580081 1.447538 -3.455215 0
M  V30 27 H 0.465303 3.985449 -1.379040 0
M  V30 28 H -0.417939 1.976522 0.235454 0
M  V30 END ATOM
M  V30 BEGIN BOND
M  V30 1 2 1 2
M  V30 2 1 2 3
M  V30 3 1 3 4
M  V30 4 1 4 5
M  V30 5 1 5 6
M  V30 6 1 6 7
M  V30 7 2 7 8
M  V30 8 1 8 9
M  V30 9 1 9 10
M  V30 10 2 10 11
M  V30 11 1 11 12
M  V30 12 2 12 13
M  V30 13 1 13 14
M  V30 14 1 13 15
M  V30 15 2 15 16
M  V30 16 1 8 2
M  V30 17 1 16 10
M  V30 18 1 16 7
M  V30 19 1 3 17
M  V30 20 1 4 18
M  V30 21 1 4 19
M  V30 22 1 5 20
M  V30 23 1 5 21
M  V30 24 1 6 22
M  V30 25 1 6 23
M  V30 26 1 9 24
M  V30 27 1 11 25
M  V30 28 1 12 26
M  V30 29 1 14 27
M  V30 30 1 15 28
M  V30 END BOND
M  V30 END CTAB
M  END
>  <Dataset>  (328) 
ChEMBL_Kinases

>  <Ligand_Instance>  (328) 
nan

>  <PDB_ID>  (328) 
nan

>  <Standardized_SMILES>  (328) 
O=C1NCCCc2c1[nH]c1ccc(O)cc21

>  <Name>  (328) 
nan

>  <Pocket>  (328) 
nan

>  <ATP_Site>  (328) 
nan

>  <Peripheral>  (328) 
nan

>  <Num_H_Atoms_ProtBoundConf>  (328) 
nan

>  <Num_Resolved_Atoms>  (328) 
nan

>  <Num_Not_Resolved_Atoms>  (328) 
nan

$$$$
CHEMBL1671
     RDKit          3D

  0  0  0  0  0  0  0  0  0  0999 V3000
M  V30 BEGIN CTAB
M  V30 COUNTS 40 41 0 0 0
M  V30 BEGIN ATOM
M  V30 1 C -0.732539 -2.081888 2.075698 0
M  V30 2 C -1.469729 -2.712001 0.878147 0
M  V30 3 C -2.423398 -3.722899 1.570702 0
M  V30 4 N -0.621754 -3.473296 0.073898 0
M  V30 5 C 0.523053 -2.982218 -0.528924 0
M  V30 6 C 0.482500 -2.014520 -1.646784 0
M  V30 7 O 1.819430 -1.724362 -2.028663 0
M  V30 8 C -0.219720 -0.730260 -1.441712 0
M  V30 9 O 0.163555 0.142043 -0.495126 0
M  V30 10 C 1.154486 0.911889 -0.090575 0
M  V30 11 C 2.420251 1.200705 -0.547791 0
M  V30 12 C 3.346684 2.051016 0.010993 0
M  V30 13 C 2.929284 2.674724 1.166648 0
M  V30 14 C 1.687560 2.471647 1.726672 0
M  V30 15 C 1.408823 3.164502 2.882985 0
M  V30 16 C 0.171694 2.978117 3.461364 0
M  V30 17 C -0.754166 2.126504 2.899884 0
M  V30 18 C -0.399521 1.476971 1.752869 0
M  V30 19 C 0.808456 1.587393 1.088382 0
M  V30 20 H -1.459461 -1.354138 2.509794 0
M  V30 21 H 0.206274 -1.605380 1.783480 0
M  V30 22 H -0.580178 -2.850898 2.872275 0
M  V30 23 H -2.155437 -2.000140 0.413245 0
M  V30 24 H -1.839666 -4.586056 1.947004 0
M  V30 25 H -2.873215 -3.235497 2.459989 0
M  V30 26 H -3.233622 -3.994075 0.884027 0
M  V30 27 H -0.847472 -4.477869 -0.043877 0
M  V30 28 H 1.099365 -3.881070 -0.933894 0
M  V30 29 H 1.222420 -2.643406 0.302995 0
M  V30 30 H 0.066429 -2.543605 -2.550460 0
M  V30 31 H 1.856249 -1.349793 -2.941114 0
M  V30 32 H -0.117390 -0.162547 -2.452114 0
M  V30 33 H -1.324204 -0.876404 -1.409691 0
M  V30 34 H 2.698974 0.700014 -1.458488 0
M  V30 35 H 4.307332 2.176020 -0.467265 0
M  V30 36 H 3.635208 3.350868 1.632277 0
M  V30 37 H 2.138139 3.832203 3.321655 0
M  V30 38 H -0.045099 3.515990 4.359674 0
M  V30 39 H -1.711170 1.985588 3.351309 0
M  V30 40 H -1.134944 0.807680 1.316339 0
M  V30 END ATOM
M  V30 BEGIN BOND
M  V30 1 1 1 2
M  V30 2 1 2 3
M  V30 3 1 2 4
M  V30 4 1 4 5
M  V30 5 1 5 6
M  V30 6 1 6 7
M  V30 7 1 6 8
M  V30 8 1 8 9
M  V30 9 1 9 10
M  V30 10 2 10 11
M  V30 11 1 11 12
M  V30 12 2 12 13
M  V30 13 1 13 14
M  V30 14 2 14 15
M  V30 15 1 15 16
M  V30 16 2 16 17
M  V30 17 1 17 18
M  V30 18 2 18 19
M  V30 19 1 19 10
M  V30 20 1 19 14
M  V30 21 1 1 20
M  V30 22 1 1 21
M  V30 23 1 1 22
M  V30 24 1 2 23
M  V30 25 1 3 24
M  V30 26 1 3 25
M  V30 27 1 3 26
M  V30 28 1 4 27
M  V30 29 1 5 28
M  V30 30 1 5 29
M  V30 31 1 6 30
M  V30 32 1 7 31
M  V30 33 1 8 32
M  V30 34 1 8 33
M  V30 35 1 11 34
M  V30 36 1 12 35
M  V30 37 1 13 36
M  V30 38 1 15 37
M  V30 39 1 16 38
M  V30 40 1 17 39
M  V30 41 1 18 40
M  V30 END BOND
M  V30 END CTAB
M  END
>  <Dataset>  (329) 
ChEMBL_Kinases

>  <Ligand_Instance>  (329) 
nan

>  <PDB_ID>  (329) 
nan

>  <Standardized_SMILES>  (329) 
CC(C)NCC(O)COc1cccc2ccccc12

>  <Name>  (329) 
PROPRANOLOL HYDROCHLORIDE

>  <Pocket>  (329) 
nan

>  <ATP_Site>  (329) 
nan

>  <Peripheral>  (329) 
nan

>  <Num_H_Atoms_ProtBoundConf>  (329) 
nan

>  <Num_Resolved_Atoms>  (329) 
nan

>  <Num_Not_Resolved_Atoms>  (329) 
nan

$$$$
CHEMBL1669608
     RDKit          3D

  0  0  0  0  0  0  0  0  0  0999 V3000
M  V30 BEGIN CTAB
M  V30 COUNTS 80 86 0 0 0
M  V30 BEGIN ATOM
M  V30 1 N 1.794391 0.819528 8.487264 0
M  V30 2 C 2.024040 1.514416 7.270397 0
M  V30 3 O 2.865127 2.440971 7.143469 0
M  V30 4 C 1.250150 1.156511 6.063827 0
M  V30 5 N 1.429391 1.792231 4.883054 0
M  V30 6 N 0.610555 1.280391 3.958283 0
M  V30 7 C 0.673750 1.840247 2.656423 0
M  V30 8 C -0.074433 2.920371 2.168312 0
M  V30 9 C 0.109647 3.360620 0.877836 0
M  V30 10 C 1.015867 2.777126 0.020724 0
M  V30 11 F 1.143657 3.265258 -1.239221 0
M  V30 12 C 1.757771 1.725592 0.465854 0
M  V30 13 C 1.585910 1.271129 1.757489 0
M  V30 14 C -0.108639 0.305607 4.533442 0
M  V30 15 C 0.281113 0.216695 5.851703 0
M  V30 16 C -0.285758 -0.744564 6.817621 0
M  V30 17 C -1.328011 -1.644199 6.264678 0
M  V30 18 C -1.669583 -1.460349 4.853413 0
M  V30 19 C -2.656565 -2.304981 4.354762 0
M  V30 20 C -3.028668 -2.187575 3.025883 0
M  V30 21 C -2.491321 -1.285539 2.139945 0
M  V30 22 N -2.857976 -1.145923 0.780390 0
M  V30 23 C -3.818298 -1.839628 0.021383 0
M  V30 24 O -4.496065 -2.738491 0.571227 0
M  V30 25 C -4.092490 -1.587125 -1.390095 0
M  V30 26 C -3.013848 -1.841777 -2.247816 0
M  V30 27 C -3.114451 -1.650924 -3.588986 0
M  V30 28 N -2.017839 -1.911687 -4.453261 0
M  V30 29 C -0.767140 -2.443332 -3.895301 0
M  V30 30 C 0.302164 -2.509646 -4.963586 0
M  V30 31 N 0.445536 -1.246100 -5.655289 0
M  V30 32 C 1.068824 -0.252766 -4.800467 0
M  V30 33 C 2.416164 -0.645141 -4.341119 0
M  V30 34 C 3.606215 -0.362973 -5.018011 0
M  V30 35 N 4.652090 -0.871174 -4.303779 0
M  V30 36 N 4.199918 -1.457111 -3.217973 0
M  V30 37 C 4.896114 -2.140393 -2.145224 0
M  V30 38 C 5.279065 -1.239290 -1.039546 0
M  V30 39 O 4.486019 -1.044755 -0.062664 0
M  V30 40 O 6.385336 -0.464822 -0.744534 0
M  V30 41 C 2.860974 -1.331545 -3.223358 0
M  V30 42 C -0.823867 -0.769931 -6.171785 0
M  V30 43 C -1.974095 -1.711871 -5.864757 0
M  V30 44 N -4.274710 -1.208061 -4.104517 0
M  V30 45 C -5.348335 -0.946266 -3.323821 0
M  V30 46 C -5.281439 -1.131134 -1.938173 0
M  V30 47 Cl -6.576933 -0.836248 -0.818891 0
M  V30 48 C -1.516211 -0.455277 2.643640 0
M  V30 49 C -1.129419 -0.550607 3.955255 0
M  V30 50 H 1.941019 -0.133361 8.831815 0
M  V30 51 H 1.530922 0.569375 9.443834 0
M  V30 52 H -0.774061 3.345392 2.881037 0
M  V30 53 H -0.498637 4.204238 0.551452 0
M  V30 54 H 2.467502 1.271998 -0.211971 0
M  V30 55 H 2.225493 0.422644 2.025497 0
M  V30 56 H -0.662449 -0.167309 7.712108 0
M  V30 57 H 0.515644 -1.397459 7.269421 0
M  V30 58 H -2.265045 -1.520975 6.861696 0
M  V30 59 H -1.072773 -2.735820 6.401579 0
M  V30 60 H -3.137722 -3.055350 4.997593 0
M  V30 61 H -3.797414 -2.870638 2.702265 0
M  V30 62 H -2.376631 -0.429979 0.184996 0
M  V30 63 H -2.071700 -2.197948 -1.866789 0
M  V30 64 H -0.428669 -1.893735 -3.012405 0
M  V30 65 H -0.985377 -3.485278 -3.587458 0
M  V30 66 H 0.114573 -3.303829 -5.688118 0
M  V30 67 H 1.258789 -2.718507 -4.450429 0
M  V30 68 H 1.093192 0.696901 -5.365015 0
M  V30 69 H 0.423931 -0.083669 -3.893173 0
M  V30 70 H 3.772923 0.160817 -5.951117 0
M  V30 71 H 4.242548 -2.925932 -1.687793 0
M  V30 72 H 5.769632 -2.643991 -2.606243 0
M  V30 73 H 6.917169 -0.586903 0.118058 0
M  V30 74 H 2.163536 -1.699864 -2.475248 0
M  V30 75 H -0.697998 -0.649977 -7.266099 0
M  V30 76 H -1.051920 0.188231 -5.652900 0
M  V30 77 H -1.955639 -2.626790 -6.475498 0
M  V30 78 H -2.894001 -1.156955 -6.148408 0
M  V30 79 H -6.311502 -0.588913 -3.668462 0
M  V30 80 H -1.077611 0.259548 1.975484 0
M  V30 END ATOM
M  V30 BEGIN BOND
M  V30 1 1 1 2
M  V30 2 2 2 3
M  V30 3 1 2 4
M  V30 4 2 4 5
M  V30 5 1 5 6
M  V30 6 1 6 7
M  V30 7 2 7 8
M  V30 8 1 8 9
M  V30 9 2 9 10
M  V30 10 1 10 11
M  V30 11 1 10 12
M  V30 12 2 12 13
M  V30 13 1 6 14
M  V30 14 2 14 15
M  V30 15 1 15 16
M  V30 16 1 16 17
M  V30 17 1 17 18
M  V30 18 2 18 19
M  V30 19 1 19 20
M  V30 20 2 20 21
M  V30 21 1 21 22
M  V30 22 1 22 23
M  V30 23 2 23 24
M  V30 24 1 23 25
M  V30 25 2 25 26
M  V30 26 1 26 27
M  V30 27 1 27 28
M  V30 28 1 28 29
M  V30 29 1 29 30
M  V30 30 1 30 31
M  V30 31 1 31 32
M  V30 32 1 32 33
M  V30 33 1 33 34
M  V30 34 2 34 35
M  V30 35 1 35 36
M  V30 36 1 36 37
M  V30 37 1 37 38
M  V30 38 2 38 39
M  V30 39 1 38 40
M  V30 40 1 36 41
M  V30 41 1 31 42
M  V30 42 1 42 43
M  V30 43 2 27 44
M  V30 44 1 44 45
M  V30 45 2 45 46
M  V30 46 1 46 47
M  V30 47 1 21 48
M  V30 48 2 48 49
M  V30 49 1 15 4
M  V30 50 1 49 18
M  V30 51 1 13 7
M  V30 52 1 49 14
M  V30 53 1 46 25
M  V30 54 1 43 28
M  V30 55 2 41 33
M  V30 56 1 1 50
M  V30 57 1 1 51
M  V30 58 1 8 52
M  V30 59 1 9 53
M  V30 60 1 12 54
M  V30 61 1 13 55
M  V30 62 1 16 56
M  V30 63 1 16 57
M  V30 64 1 17 58
M  V30 65 1 17 59
M  V30 66 1 19 60
M  V30 67 1 20 61
M  V30 68 1 22 62
M  V30 69 1 26 63
M  V30 70 1 29 64
M  V30 71 1 29 65
M  V30 72 1 30 66
M  V30 73 1 30 67
M  V30 74 1 32 68
M  V30 75 1 32 69
M  V30 76 1 34 70
M  V30 77 1 37 71
M  V30 78 1 37 72
M  V30 79 1 40 73
M  V30 80 1 41 74
M  V30 81 1 42 75
M  V30 82 1 42 76
M  V30 83 1 43 77
M  V30 84 1 43 78
M  V30 85 1 45 79
M  V30 86 1 48 80
M  V30 END BOND
M  V30 END CTAB
M  END
>  <Dataset>  (330) 
ChEMBL_Kinases

>  <Ligand_Instance>  (330) 
nan

>  <PDB_ID>  (330) 
nan

>  <Standardized_SMILES>  (330) 
NC(=O)c1nn(-c2ccc(F)cc2)c2c1CCc1ccc(NC(=O)c3cc(N4CCN(Cc5cnn(CC(=O)O)c5)CC4)ncc3Cl)cc1-2

>  <Name>  (330) 
nan

>  <Pocket>  (330) 
nan

>  <ATP_Site>  (330) 
nan

>  <Peripheral>  (330) 
nan

>  <Num_H_Atoms_ProtBoundConf>  (330) 
nan

>  <Num_Resolved_Atoms>  (330) 
nan

>  <Num_Not_Resolved_Atoms>  (330) 
nan

$$$$
CHEMBL1669607
     RDKit          3D

  0  0  0  0  0  0  0  0  0  0999 V3000
M  V30 BEGIN CTAB
M  V30 COUNTS 98 104 0 0 0
M  V30 BEGIN ATOM
M  V30 1 C 5.397109 -3.774739 0.750643 0
M  V30 2 N 6.297201 -3.851816 1.822402 0
M  V30 3 C 5.665601 -4.239426 3.059466 0
M  V30 4 C 7.344995 -2.944044 1.995886 0
M  V30 5 C 8.467039 -3.035030 1.018379 0
M  V30 6 C 8.057774 -2.752632 -0.392370 0
M  V30 7 N 7.506118 -1.403292 -0.571033 0
M  V30 8 C 8.315055 -0.281795 -0.255485 0
M  V30 9 O 9.511030 -0.336818 0.183705 0
M  V30 10 C 7.984466 1.146155 -0.353069 0
M  V30 11 N 6.658100 1.345352 -0.901139 0
M  V30 12 C 5.458901 1.424689 -0.273615 0
M  V30 13 C 4.435638 1.640567 -1.194649 0
M  V30 14 C 3.047088 1.750913 -0.702606 0
M  V30 15 N 2.309958 0.527486 -0.745376 0
M  V30 16 C 2.083134 0.067403 -2.109524 0
M  V30 17 C 0.884240 -0.853250 -2.034887 0
M  V30 18 N 1.162862 -1.853769 -1.009126 0
M  V30 19 C 0.184974 -2.718527 -0.444478 0
M  V30 20 C -1.169546 -2.534753 -0.569415 0
M  V30 21 C -2.065608 -3.416511 -0.001065 0
M  V30 22 C -3.524874 -3.196774 -0.137981 0
M  V30 23 O -4.484181 -3.742567 -0.730499 0
M  V30 24 N -3.791537 -2.048391 0.646621 0
M  V30 25 C -4.977662 -1.284736 0.963674 0
M  V30 26 C -5.707128 -1.703701 2.063914 0
M  V30 27 C -6.877952 -1.036552 2.478316 0
M  V30 28 C -7.306350 0.081358 1.749337 0
M  V30 29 C -6.563994 0.466963 0.671336 0
M  V30 30 C -5.420934 -0.180474 0.262131 0
M  V30 31 C -7.046627 1.625985 -0.025894 0
M  V30 32 C -8.188781 2.151711 0.524680 0
M  V30 33 C -8.463709 3.245158 -0.304434 0
M  V30 34 C -9.533108 4.251678 -0.296687 0
M  V30 35 N -10.540264 4.214973 0.715301 0
M  V30 36 O -9.680454 5.208896 -1.130080 0
M  V30 37 N -7.518089 3.316838 -1.264084 0
M  V30 38 N -6.643242 2.308975 -1.083496 0
M  V30 39 C -5.541216 2.108027 -1.918292 0
M  V30 40 C -5.809779 1.295701 -3.026989 0
M  V30 41 C -4.891093 0.966105 -3.999699 0
M  V30 42 C -3.613174 1.506245 -3.822063 0
M  V30 43 F -2.674416 1.211250 -4.753098 0
M  V30 44 C -3.291008 2.311661 -2.750886 0
M  V30 45 C -4.243967 2.620392 -1.792189 0
M  V30 46 C -9.038742 1.803163 1.676201 0
M  V30 47 C -8.544939 0.595811 2.370682 0
M  V30 48 C -1.611612 -4.531048 0.723205 0
M  V30 49 Cl -2.735950 -5.651131 1.448111 0
M  V30 50 C -0.238551 -4.666792 0.816741 0
M  V30 51 N 0.614874 -3.784653 0.248414 0
M  V30 52 C 2.544038 -1.902617 -0.567215 0
M  V30 53 C 2.858214 -0.541417 0.067905 0
M  V30 54 C 5.078779 1.687041 -2.408285 0
M  V30 55 N 6.375496 1.510482 -2.197630 0
M  V30 56 H 4.351809 -3.928403 1.201544 0
M  V30 57 H 5.460812 -4.644505 0.045150 0
M  V30 58 H 5.297874 -2.806802 0.234742 0
M  V30 59 H 5.634570 -3.364619 3.757178 0
M  V30 60 H 6.271567 -5.075077 3.492687 0
M  V30 61 H 4.617484 -4.523463 2.854244 0
M  V30 62 H 6.965472 -1.870515 2.054000 0
M  V30 63 H 7.764438 -3.095769 3.033420 0
M  V30 64 H 9.303728 -2.341376 1.343633 0
M  V30 65 H 8.880043 -4.087742 1.006567 0
M  V30 66 H 8.938573 -2.867506 -1.085000 0
M  V30 67 H 7.342680 -3.514845 -0.727870 0
M  V30 68 H 6.577957 -1.045368 -0.904511 0
M  V30 69 H 8.697192 1.641195 -1.048275 0
M  V30 70 H 8.052334 1.661466 0.630914 0
M  V30 71 H 5.458405 1.317596 0.804860 0
M  V30 72 H 2.521512 2.447709 -1.423740 0
M  V30 73 H 2.989706 2.270292 0.271091 0
M  V30 74 H 2.934865 -0.468245 -2.525959 0
M  V30 75 H 1.815149 0.973311 -2.701982 0
M  V30 76 H 0.021746 -0.246009 -1.688479 0
M  V30 77 H 0.683024 -1.364684 -3.005854 0
M  V30 78 H -1.523189 -1.673545 -1.129841 0
M  V30 79 H -3.168250 -1.413734 1.237223 0
M  V30 80 H -5.343034 -2.586083 2.615266 0
M  V30 81 H -7.334833 -1.499950 3.367886 0
M  V30 82 H -4.873055 0.135712 -0.570574 0
M  V30 83 H -11.563067 4.031641 0.582627 0
M  V30 84 H -10.996942 4.261162 1.672384 0
M  V30 85 H -6.798031 0.856772 -3.197227 0
M  V30 86 H -5.147500 0.333568 -4.839800 0
M  V30 87 H -2.311842 2.736923 -2.595707 0
M  V30 88 H -4.112674 3.231624 -0.921293 0
M  V30 89 H -9.035432 2.691330 2.373322 0
M  V30 90 H -10.103944 1.632347 1.371122 0
M  V30 91 H -8.359498 0.869416 3.458930 0
M  V30 92 H -9.302380 -0.222411 2.441604 0
M  V30 93 H 0.071406 -5.537203 1.382344 0
M  V30 94 H 3.236404 -2.124811 -1.383214 0
M  V30 95 H 2.591068 -2.632605 0.264201 0
M  V30 96 H 3.919513 -0.417335 0.250584 0
M  V30 97 H 2.322539 -0.534592 1.037427 0
M  V30 98 H 4.488008 1.847688 -3.299708 0
M  V30 END ATOM
M  V30 BEGIN BOND
M  V30 1 1 1 2
M  V30 2 1 2 3
M  V30 3 1 2 4
M  V30 4 1 4 5
M  V30 5 1 5 6
M  V30 6 1 6 7
M  V30 7 1 7 8
M  V30 8 2 8 9
M  V30 9 1 8 10
M  V30 10 1 10 11
M  V30 11 1 11 12
M  V30 12 2 12 13
M  V30 13 1 13 14
M  V30 14 1 14 15
M  V30 15 1 15 16
M  V30 16 1 16 17
M  V30 17 1 17 18
M  V30 18 1 18 19
M  V30 19 2 19 20
M  V30 20 1 20 21
M  V30 21 1 21 22
M  V30 22 2 22 23
M  V30 23 1 22 24
M  V30 24 1 24 25
M  V30 25 2 25 26
M  V30 26 1 26 27
M  V30 27 2 27 28
M  V30 28 1 28 29
M  V30 29 2 29 30
M  V30 30 1 29 31
M  V30 31 2 31 32
M  V30 32 1 32 33
M  V30 33 1 33 34
M  V30 34 1 34 35
M  V30 35 2 34 36
M  V30 36 2 33 37
M  V30 37 1 37 38
M  V30 38 1 38 39
M  V30 39 2 39 40
M  V30 40 1 40 41
M  V30 41 2 41 42
M  V30 42 1 42 43
M  V30 43 1 42 44
M  V30 44 2 44 45
M  V30 45 1 32 46
M  V30 46 1 46 47
M  V30 47 2 21 48
M  V30 48 1 48 49
M  V30 49 1 48 50
M  V30 50 2 50 51
M  V30 51 1 18 52
M  V30 52 1 52 53
M  V30 53 1 13 54
M  V30 54 2 54 55
M  V30 55 1 55 11
M  V30 56 1 53 15
M  V30 57 1 51 19
M  V30 58 1 30 25
M  V30 59 1 38 31
M  V30 60 1 45 39
M  V30 61 1 47 28
M  V30 62 1 1 56
M  V30 63 1 1 57
M  V30 64 1 1 58
M  V30 65 1 3 59
M  V30 66 1 3 60
M  V30 67 1 3 61
M  V30 68 1 4 62
M  V30 69 1 4 63
M  V30 70 1 5 64
M  V30 71 1 5 65
M  V30 72 1 6 66
M  V30 73 1 6 67
M  V30 74 1 7 68
M  V30 75 1 10 69
M  V30 76 1 10 70
M  V30 77 1 12 71
M  V30 78 1 14 72
M  V30 79 1 14 73
M  V30 80 1 16 74
M  V30 81 1 16 75
M  V30 82 1 17 76
M  V30 83 1 17 77
M  V30 84 1 20 78
M  V30 85 1 24 79
M  V30 86 1 26 80
M  V30 87 1 27 81
M  V30 88 1 30 82
M  V30 89 1 35 83
M  V30 90 1 35 84
M  V30 91 1 40 85
M  V30 92 1 41 86
M  V30 93 1 44 87
M  V30 94 1 45 88
M  V30 95 1 46 89
M  V30 96 1 46 90
M  V30 97 1 47 91
M  V30 98 1 47 92
M  V30 99 1 50 93
M  V30 100 1 52 94
M  V30 101 1 52 95
M  V30 102 1 53 96
M  V30 103 1 53 97
M  V30 104 1 54 98
M  V30 END BOND
M  V30 END CTAB
M  END
>  <Dataset>  (331) 
ChEMBL_Kinases

>  <Ligand_Instance>  (331) 
nan

>  <PDB_ID>  (331) 
nan

>  <Standardized_SMILES>  (331) 
CN(C)CCCNC(=O)Cn1cc(CN2CCN(c3cc(C(=O)Nc4ccc5c(c4)-c4c(c(C(N)=O)nn4-c4ccc(F)cc4)CC5)c(Cl)cn3)CC2)cn1

>  <Name>  (331) 
nan

>  <Pocket>  (331) 
nan

>  <ATP_Site>  (331) 
nan

>  <Peripheral>  (331) 
nan

>  <Num_H_Atoms_ProtBoundConf>  (331) 
nan

>  <Num_Resolved_Atoms>  (331) 
nan

>  <Num_Not_Resolved_Atoms>  (331) 
nan

$$$$
CHEMBL1669606
     RDKit          3D

  0  0  0  0  0  0  0  0  0  0999 V3000
M  V30 BEGIN CTAB
M  V30 COUNTS 95 101 0 0 0
M  V30 BEGIN ATOM
M  V30 1 N 4.513139 -1.888409 7.976900 0
M  V30 2 C 3.159590 -1.707381 7.581339 0
M  V30 3 O 2.265323 -1.417171 8.427879 0
M  V30 4 C 2.803428 -1.862979 6.158341 0
M  V30 5 N 3.667552 -2.171044 5.149369 0
M  V30 6 N 3.009242 -2.233371 3.997169 0
M  V30 7 C 3.729451 -2.544009 2.813580 0
M  V30 8 C 3.781256 -3.924170 2.580642 0
M  V30 9 C 4.454401 -4.418561 1.468795 0
M  V30 10 C 5.061388 -3.513146 0.614028 0
M  V30 11 F 5.740308 -3.915170 -0.499802 0
M  V30 12 C 5.012938 -2.139867 0.840860 0
M  V30 13 C 4.347106 -1.639241 1.942025 0
M  V30 14 C 1.721586 -1.966113 4.259925 0
M  V30 15 C 1.564204 -1.729848 5.608228 0
M  V30 16 C 0.296615 -1.404907 6.261297 0
M  V30 17 C -0.889259 -1.341458 5.368565 0
M  V30 18 C -0.630718 -1.608389 3.942057 0
M  V30 19 C -1.738575 -1.545596 3.122029 0
M  V30 20 C -1.628375 -1.777204 1.762365 0
M  V30 21 C -0.403945 -2.079149 1.179416 0
M  V30 22 N -0.251767 -2.330540 -0.233390 0
M  V30 23 C -0.296659 -3.505043 -1.022708 0
M  V30 24 O -0.493624 -4.665711 -0.624752 0
M  V30 25 C -0.084721 -3.300323 -2.449749 0
M  V30 26 C -0.965834 -2.663686 -3.295767 0
M  V30 27 C -0.735593 -2.488408 -4.643512 0
M  V30 28 N -1.680614 -1.822639 -5.500595 0
M  V30 29 C -1.263380 -1.702541 -6.867398 0
M  V30 30 C -2.052625 -0.653298 -7.602622 0
M  V30 31 N -2.503837 0.329164 -6.671421 0
M  V30 32 C -1.514416 1.175296 -6.108934 0
M  V30 33 C -2.114187 2.104156 -5.140755 0
M  V30 34 C -2.696004 3.352985 -5.249605 0
M  V30 35 N -3.091293 3.792064 -4.023962 0
M  V30 36 N -2.789092 2.872586 -3.106863 0
M  V30 37 C -3.016307 2.893754 -1.689297 0
M  V30 38 C -1.962319 3.463655 -0.890089 0
M  V30 39 O -0.857872 3.977623 -1.213152 0
M  V30 40 N -1.971386 3.558305 0.502404 0
M  V30 41 C -0.780500 4.188046 1.039077 0
M  V30 42 C 0.332749 3.227776 1.341441 0
M  V30 43 O 1.418938 3.977882 1.852422 0
M  V30 44 C -3.117416 3.044439 1.234357 0
M  V30 45 C -2.998502 1.610282 1.630320 0
M  V30 46 O -4.193445 1.294470 2.321213 0
M  V30 47 C -2.204159 1.862137 -3.773524 0
M  V30 48 C -3.496108 -0.188892 -5.794008 0
M  V30 49 C -2.927583 -1.337759 -4.997265 0
M  V30 50 N 0.429419 -2.992654 -5.075913 0
M  V30 51 C 1.323192 -3.621068 -4.298983 0
M  V30 52 C 1.098347 -3.798457 -2.953234 0
M  V30 53 Cl 2.304710 -4.619387 -2.020306 0
M  V30 54 C 0.714115 -2.139604 2.024815 0
M  V30 55 C 0.582452 -1.908630 3.357427 0
M  V30 56 H 5.448580 -1.472179 8.119343 0
M  V30 57 H 5.117095 -2.673908 8.322647 0
M  V30 58 H 3.337806 -4.671812 3.194564 0
M  V30 59 H 4.521428 -5.481433 1.248459 0
M  V30 60 H 5.477600 -1.404882 0.194236 0
M  V30 61 H 4.236076 -0.603464 2.231897 0
M  V30 62 H 0.103250 -2.069657 7.149295 0
M  V30 63 H 0.442156 -0.387298 6.731764 0
M  V30 64 H -1.718762 -2.041328 5.668876 0
M  V30 65 H -1.381676 -0.326985 5.403267 0
M  V30 66 H -2.732908 -1.313209 3.507088 0
M  V30 67 H -2.499025 -1.729185 1.105031 0
M  V30 68 H -0.083635 -1.376866 -0.602784 0
M  V30 69 H -1.844509 -2.318639 -2.814518 0
M  V30 70 H -0.182280 -1.460512 -6.971740 0
M  V30 71 H -1.387911 -2.685399 -7.391808 0
M  V30 72 H -1.466418 -0.181451 -8.416956 0
M  V30 73 H -2.936659 -1.171704 -8.031967 0
M  V30 74 H -1.014787 1.706985 -6.952960 0
M  V30 75 H -0.719870 0.584558 -5.577365 0
M  V30 76 H -2.789171 3.852720 -6.220835 0
M  V30 77 H -3.190556 1.845106 -1.368300 0
M  V30 78 H -3.975807 3.433137 -1.430350 0
M  V30 79 H -1.104027 4.734643 1.971934 0
M  V30 80 H -0.440762 5.016557 0.367059 0
M  V30 81 H 0.008838 2.552733 2.143714 0
M  V30 82 H 0.684547 2.689595 0.460526 0
M  V30 83 H 2.181049 3.364020 2.071279 0
M  V30 84 H -4.004524 3.160346 0.583079 0
M  V30 85 H -3.252127 3.672580 2.140117 0
M  V30 86 H -2.128516 1.513680 2.338453 0
M  V30 87 H -2.867871 0.907364 0.811500 0
M  V30 88 H -4.652932 0.546616 1.858982 0
M  V30 89 H -1.842231 0.962599 -3.293504 0
M  V30 90 H -4.357414 -0.530627 -6.415459 0
M  V30 91 H -3.827413 0.616475 -5.107141 0
M  V30 92 H -2.924538 -1.059280 -3.935037 0
M  V30 93 H -3.667137 -2.187590 -5.094125 0
M  V30 94 H 2.213493 -3.967666 -4.807588 0
M  V30 95 H 1.615675 -2.371420 1.533576 0
M  V30 END ATOM
M  V30 BEGIN BOND
M  V30 1 1 1 2
M  V30 2 2 2 3
M  V30 3 1 2 4
M  V30 4 2 4 5
M  V30 5 1 5 6
M  V30 6 1 6 7
M  V30 7 2 7 8
M  V30 8 1 8 9
M  V30 9 2 9 10
M  V30 10 1 10 11
M  V30 11 1 10 12
M  V30 12 2 12 13
M  V30 13 1 6 14
M  V30 14 2 14 15
M  V30 15 1 15 16
M  V30 16 1 16 17
M  V30 17 1 17 18
M  V30 18 2 18 19
M  V30 19 1 19 20
M  V30 20 2 20 21
M  V30 21 1 21 22
M  V30 22 1 22 23
M  V30 23 2 23 24
M  V30 24 1 23 25
M  V30 25 2 25 26
M  V30 26 1 26 27
M  V30 27 1 27 28
M  V30 28 1 28 29
M  V30 29 1 29 30
M  V30 30 1 30 31
M  V30 31 1 31 32
M  V30 32 1 32 33
M  V30 33 1 33 34
M  V30 34 2 34 35
M  V30 35 1 35 36
M  V30 36 1 36 37
M  V30 37 1 37 38
M  V30 38 2 38 39
M  V30 39 1 38 40
M  V30 40 1 40 41
M  V30 41 1 41 42
M  V30 42 1 42 43
M  V30 43 1 40 44
M  V30 44 1 44 45
M  V30 45 1 45 46
M  V30 46 1 36 47
M  V30 47 1 31 48
M  V30 48 1 48 49
M  V30 49 2 27 50
M  V30 50 1 50 51
M  V30 51 2 51 52
M  V30 52 1 52 53
M  V30 53 1 21 54
M  V30 54 2 54 55
M  V30 55 1 15 4
M  V30 56 1 55 18
M  V30 57 1 13 7
M  V30 58 1 55 14
M  V30 59 1 52 25
M  V30 60 1 49 28
M  V30 61 2 47 33
M  V30 62 1 1 56
M  V30 63 1 1 57
M  V30 64 1 8 58
M  V30 65 1 9 59
M  V30 66 1 12 60
M  V30 67 1 13 61
M  V30 68 1 16 62
M  V30 69 1 16 63
M  V30 70 1 17 64
M  V30 71 1 17 65
M  V30 72 1 19 66
M  V30 73 1 20 67
M  V30 74 1 22 68
M  V30 75 1 26 69
M  V30 76 1 29 70
M  V30 77 1 29 71
M  V30 78 1 30 72
M  V30 79 1 30 73
M  V30 80 1 32 74
M  V30 81 1 32 75
M  V30 82 1 34 76
M  V30 83 1 37 77
M  V30 84 1 37 78
M  V30 85 1 41 79
M  V30 86 1 41 80
M  V30 87 1 42 81
M  V30 88 1 42 82
M  V30 89 1 43 83
M  V30 90 1 44 84
M  V30 91 1 44 85
M  V30 92 1 45 86
M  V30 93 1 45 87
M  V30 94 1 46 88
M  V30 95 1 47 89
M  V30 96 1 48 90
M  V30 97 1 48 91
M  V30 98 1 49 92
M  V30 99 1 49 93
M  V30 100 1 51 94
M  V30 101 1 54 95
M  V30 END BOND
M  V30 END CTAB
M  END
>  <Dataset>  (332) 
ChEMBL_Kinases

>  <Ligand_Instance>  (332) 
nan

>  <PDB_ID>  (332) 
nan

>  <Standardized_SMILES>  (332) 
NC(=O)c1nn(-c2ccc(F)cc2)c2c1CCc1ccc(NC(=O)c3cc(N4CCN(Cc5cnn(CC(=O)N(CCO)CCO)c5)CC4)ncc3Cl)cc1-2

>  <Name>  (332) 
nan

>  <Pocket>  (332) 
nan

>  <ATP_Site>  (332) 
nan

>  <Peripheral>  (332) 
nan

>  <Num_H_Atoms_ProtBoundConf>  (332) 
nan

>  <Num_Resolved_Atoms>  (332) 
nan

>  <Num_Not_Resolved_Atoms>  (332) 
nan

$$$$
CHEMBL1669605
     RDKit          3D

  0  0  0  0  0  0  0  0  0  0999 V3000
M  V30 BEGIN CTAB
M  V30 COUNTS 88 94 0 0 0
M  V30 BEGIN ATOM
M  V30 1 N -4.051428 2.859108 8.762581 0
M  V30 2 C -2.737160 2.870228 8.217442 0
M  V30 3 O -1.811627 3.379210 8.889195 0
M  V30 4 C -2.461063 2.304070 6.905959 0
M  V30 5 N -1.203659 2.322032 6.402867 0
M  V30 6 N -1.203924 1.753598 5.201439 0
M  V30 7 C -0.033613 1.626900 4.415788 0
M  V30 8 C 0.118154 2.764113 3.610532 0
M  V30 9 C 1.198527 2.905404 2.745135 0
M  V30 10 C 2.122079 1.897898 2.695820 0
M  V30 11 F 3.189744 1.982202 1.874346 0
M  V30 12 C 1.996546 0.753269 3.487069 0
M  V30 13 C 0.930570 0.616299 4.339502 0
M  V30 14 C -2.456511 1.373943 4.938309 0
M  V30 15 C -3.295655 1.694589 5.976980 0
M  V30 16 C -4.745723 1.504268 6.193609 0
M  V30 17 C -5.401354 0.816106 5.030036 0
M  V30 18 C -4.454945 0.511105 3.963131 0
M  V30 19 C -5.083913 -0.112620 2.902631 0
M  V30 20 C -4.374632 -0.505852 1.759339 0
M  V30 21 C -3.008765 -0.280698 1.655608 0
M  V30 22 N -2.233958 -0.652525 0.521580 0
M  V30 23 C -1.672782 -1.961241 0.483627 0
M  V30 24 O -1.869714 -2.776046 1.450099 0
M  V30 25 C -0.851825 -2.662519 -0.481954 0
M  V30 26 C -1.405266 -2.759970 -1.741425 0
M  V30 27 C -0.765266 -3.391318 -2.787706 0
M  V30 28 N -1.225282 -3.544188 -4.124858 0
M  V30 29 C -0.533220 -4.337797 -5.143148 0
M  V30 30 C -0.702646 -3.565871 -6.452396 0
M  V30 31 N -0.847802 -2.175389 -6.251930 0
M  V30 32 C 0.278628 -1.355918 -6.441918 0
M  V30 33 C 1.424697 -1.758375 -5.586224 0
M  V30 34 C 2.332974 -2.669112 -6.103530 0
M  V30 35 N 3.262676 -2.887722 -5.180311 0
M  V30 36 N 3.015045 -2.178563 -4.102963 0
M  V30 37 C 3.783248 -2.136012 -2.874501 0
M  V30 38 C 4.823842 -1.088541 -2.938667 0
M  V30 39 O 4.922925 -0.398032 -3.978736 0
M  V30 40 N 5.676683 -0.901317 -1.817430 0
M  V30 41 C 6.717044 0.082863 -1.773995 0
M  V30 42 C 6.116499 1.447354 -1.946562 0
M  V30 43 O 7.161532 2.391344 -1.898764 0
M  V30 44 C 1.892803 -1.474671 -4.321768 0
M  V30 45 C -1.914726 -1.716239 -5.446265 0
M  V30 46 C -2.451022 -2.903083 -4.635551 0
M  V30 47 N 0.445185 -3.918885 -2.524123 0
M  V30 48 C 0.998812 -3.831081 -1.296356 0
M  V30 49 C 0.381944 -3.203049 -0.223863 0
M  V30 50 Cl 1.038872 -3.057791 1.369103 0
M  V30 51 C -2.381799 0.341992 2.714969 0
M  V30 52 C -3.104170 0.714800 3.818320 0
M  V30 53 H -5.022780 2.861503 9.137190 0
M  V30 54 H -4.075019 2.495097 9.759900 0
M  V30 55 H -0.551091 3.630323 3.563783 0
M  V30 56 H 1.350894 3.763786 2.110949 0
M  V30 57 H 2.691383 -0.078259 3.495720 0
M  V30 58 H 0.681076 -0.189302 5.011483 0
M  V30 59 H -5.245362 2.491471 6.399626 0
M  V30 60 H -4.863310 0.839584 7.106013 0
M  V30 61 H -5.947134 -0.085475 5.400275 0
M  V30 62 H -6.230985 1.498888 4.671945 0
M  V30 63 H -6.140244 -0.366340 2.812205 0
M  V30 64 H -4.830862 -1.000014 0.903388 0
M  V30 65 H -1.971531 -0.139669 -0.344521 0
M  V30 66 H -2.375372 -2.345004 -1.975979 0
M  V30 67 H 0.504765 -4.553350 -4.892296 0
M  V30 68 H -1.064066 -5.329109 -5.236474 0
M  V30 69 H -1.638989 -3.947700 -6.917859 0
M  V30 70 H 0.176427 -3.726096 -7.116838 0
M  V30 71 H -0.000505 -0.313819 -6.109948 0
M  V30 72 H 0.592115 -1.219814 -7.498245 0
M  V30 73 H 2.506208 -3.242865 -7.018824 0
M  V30 74 H 4.301491 -3.104186 -2.679253 0
M  V30 75 H 3.084631 -1.947809 -2.008302 0
M  V30 76 H 5.521667 -1.530818 -0.975580 0
M  V30 77 H 7.478901 -0.085109 -2.581304 0
M  V30 78 H 7.262283 0.014018 -0.815880 0
M  V30 79 H 5.609452 1.549275 -2.908526 0
M  V30 80 H 5.396916 1.646079 -1.119236 0
M  V30 81 H 6.803252 3.170970 -1.413281 0
M  V30 82 H 1.337809 -0.774882 -3.713605 0
M  V30 83 H -2.737258 -1.335976 -6.098296 0
M  V30 84 H -1.619247 -0.956446 -4.694304 0
M  V30 85 H -2.940956 -3.572822 -5.363390 0
M  V30 86 H -3.117776 -2.613924 -3.828348 0
M  V30 87 H 1.982681 -4.266913 -1.102029 0
M  V30 88 H -1.330505 0.514578 2.634415 0
M  V30 END ATOM
M  V30 BEGIN BOND
M  V30 1 1 1 2
M  V30 2 2 2 3
M  V30 3 1 2 4
M  V30 4 2 4 5
M  V30 5 1 5 6
M  V30 6 1 6 7
M  V30 7 2 7 8
M  V30 8 1 8 9
M  V30 9 2 9 10
M  V30 10 1 10 11
M  V30 11 1 10 12
M  V30 12 2 12 13
M  V30 13 1 6 14
M  V30 14 2 14 15
M  V30 15 1 15 16
M  V30 16 1 16 17
M  V30 17 1 17 18
M  V30 18 2 18 19
M  V30 19 1 19 20
M  V30 20 2 20 21
M  V30 21 1 21 22
M  V30 22 1 22 23
M  V30 23 2 23 24
M  V30 24 1 23 25
M  V30 25 2 25 26
M  V30 26 1 26 27
M  V30 27 1 27 28
M  V30 28 1 28 29
M  V30 29 1 29 30
M  V30 30 1 30 31
M  V30 31 1 31 32
M  V30 32 1 32 33
M  V30 33 1 33 34
M  V30 34 2 34 35
M  V30 35 1 35 36
M  V30 36 1 36 37
M  V30 37 1 37 38
M  V30 38 2 38 39
M  V30 39 1 38 40
M  V30 40 1 40 41
M  V30 41 1 41 42
M  V30 42 1 42 43
M  V30 43 1 36 44
M  V30 44 1 31 45
M  V30 45 1 45 46
M  V30 46 2 27 47
M  V30 47 1 47 48
M  V30 48 2 48 49
M  V30 49 1 49 50
M  V30 50 1 21 51
M  V30 51 2 51 52
M  V30 52 1 15 4
M  V30 53 1 52 18
M  V30 54 1 13 7
M  V30 55 1 52 14
M  V30 56 1 49 25
M  V30 57 1 46 28
M  V30 58 2 44 33
M  V30 59 1 1 53
M  V30 60 1 1 54
M  V30 61 1 8 55
M  V30 62 1 9 56
M  V30 63 1 12 57
M  V30 64 1 13 58
M  V30 65 1 16 59
M  V30 66 1 16 60
M  V30 67 1 17 61
M  V30 68 1 17 62
M  V30 69 1 19 63
M  V30 70 1 20 64
M  V30 71 1 22 65
M  V30 72 1 26 66
M  V30 73 1 29 67
M  V30 74 1 29 68
M  V30 75 1 30 69
M  V30 76 1 30 70
M  V30 77 1 32 71
M  V30 78 1 32 72
M  V30 79 1 34 73
M  V30 80 1 37 74
M  V30 81 1 37 75
M  V30 82 1 40 76
M  V30 83 1 41 77
M  V30 84 1 41 78
M  V30 85 1 42 79
M  V30 86 1 42 80
M  V30 87 1 43 81
M  V30 88 1 44 82
M  V30 89 1 45 83
M  V30 90 1 45 84
M  V30 91 1 46 85
M  V30 92 1 46 86
M  V30 93 1 48 87
M  V30 94 1 51 88
M  V30 END BOND
M  V30 END CTAB
M  END
>  <Dataset>  (333) 
ChEMBL_Kinases

>  <Ligand_Instance>  (333) 
nan

>  <PDB_ID>  (333) 
nan

>  <Standardized_SMILES>  (333) 
NC(=O)c1nn(-c2ccc(F)cc2)c2c1CCc1ccc(NC(=O)c3cc(N4CCN(Cc5cnn(CC(=O)NCCO)c5)CC4)ncc3Cl)cc1-2

>  <Name>  (333) 
nan

>  <Pocket>  (333) 
nan

>  <ATP_Site>  (333) 
nan

>  <Peripheral>  (333) 
nan

>  <Num_H_Atoms_ProtBoundConf>  (333) 
nan

>  <Num_Resolved_Atoms>  (333) 
nan

>  <Num_Not_Resolved_Atoms>  (333) 
nan

$$$$
CHEMBL1669604
     RDKit          3D

  0  0  0  0  0  0  0  0  0  0999 V3000
M  V30 BEGIN CTAB
M  V30 COUNTS 91 97 0 0 0
M  V30 BEGIN ATOM
M  V30 1 C -2.558471 -4.761364 5.059042 0
M  V30 2 S -1.431563 -3.359013 5.143723 0
M  V30 3 C -2.346255 -1.789973 4.888981 0
M  V30 4 C -1.327673 -0.682145 5.015788 0
M  V30 5 N -1.969261 0.601334 4.828660 0
M  V30 6 C -2.646674 0.986170 3.646412 0
M  V30 7 O -2.737845 0.218646 2.654064 0
M  V30 8 C -3.312976 2.295945 3.426059 0
M  V30 9 N -3.868861 2.293268 2.089304 0
M  V30 10 C -5.084919 1.899639 1.729039 0
M  V30 11 C -5.224381 2.052867 0.370776 0
M  V30 12 C -6.286414 1.816722 -0.634428 0
M  V30 13 N -6.234990 0.498517 -1.175193 0
M  V30 14 C -6.437220 -0.562351 -0.304603 0
M  V30 15 C -5.945306 -1.864162 -0.877403 0
M  V30 16 N -4.787445 -1.611644 -1.730220 0
M  V30 17 C -3.500402 -2.028620 -1.351247 0
M  V30 18 C -2.393834 -1.651082 -2.065011 0
M  V30 19 C -1.185284 -2.123023 -1.594049 0
M  V30 20 C 0.105324 -1.820657 -2.208583 0
M  V30 21 O 0.210107 -0.546501 -2.140134 0
M  V30 22 N 1.154097 -2.589250 -2.802479 0
M  V30 23 C 2.126607 -1.627002 -3.192971 0
M  V30 24 C 2.043861 -1.058979 -4.446124 0
M  V30 25 C 2.992959 -0.120737 -4.817103 0
M  V30 26 C 3.992971 0.220676 -3.925948 0
M  V30 27 C 4.022271 -0.383163 -2.684380 0
M  V30 28 C 3.103231 -1.319366 -2.272240 0
M  V30 29 C 5.106759 0.047145 -1.820867 0
M  V30 30 C 6.003231 0.990893 -2.271944 0
M  V30 31 C 6.891032 1.159623 -1.230216 0
M  V30 32 C 8.075515 2.038256 -1.114491 0
M  V30 33 N 8.373696 2.842823 -2.241031 0
M  V30 34 O 8.840965 2.138301 -0.112057 0
M  V30 35 N 6.508895 0.338591 -0.220045 0
M  V30 36 N 5.426286 -0.335473 -0.579422 0
M  V30 37 C 4.855579 -1.261406 0.333250 0
M  V30 38 C 3.876124 -0.869474 1.257284 0
M  V30 39 C 3.315044 -1.765560 2.169548 0
M  V30 40 C 3.741201 -3.098996 2.163286 0
M  V30 41 F 3.175828 -3.945821 3.062537 0
M  V30 42 C 4.699169 -3.483122 1.259827 0
M  V30 43 C 5.262864 -2.605531 0.352381 0
M  V30 44 C 6.004097 1.671012 -3.576274 0
M  V30 45 C 4.905607 1.221915 -4.483824 0
M  V30 46 C -1.081173 -2.926834 -0.475591 0
M  V30 47 Cl 0.432433 -3.541269 0.156440 0
M  V30 48 C -2.230639 -3.276342 0.205134 0
M  V30 49 N -3.397909 -2.806236 -0.268306 0
M  V30 50 C -5.238119 -0.919539 -2.894336 0
M  V30 51 C -5.908129 0.362047 -2.511545 0
M  V30 52 C -3.993817 2.570488 -0.056390 0
M  V30 53 N -3.191000 2.704516 1.014341 0
M  V30 54 H -2.214940 -5.516062 5.817924 0
M  V30 55 H -2.553377 -5.284635 4.085269 0
M  V30 56 H -3.584019 -4.389219 5.307334 0
M  V30 57 H -2.738731 -1.776260 3.851140 0
M  V30 58 H -3.151418 -1.676258 5.645896 0
M  V30 59 H -0.758397 -0.730587 5.952983 0
M  V30 60 H -0.614754 -0.841968 4.154260 0
M  V30 61 H -1.930422 1.285786 5.611458 0
M  V30 62 H -2.485353 3.065832 3.484363 0
M  V30 63 H -4.070158 2.530647 4.199085 0
M  V30 64 H -5.897786 1.511405 2.307650 0
M  V30 65 H -7.278350 1.925194 -0.125037 0
M  V30 66 H -6.272606 2.561658 -1.436432 0
M  V30 67 H -7.494785 -0.638003 0.052522 0
M  V30 68 H -5.849764 -0.374797 0.628766 0
M  V30 69 H -5.688152 -2.600982 -0.082446 0
M  V30 70 H -6.732333 -2.326158 -1.494077 0
M  V30 71 H -2.418994 -1.035524 -2.930281 0
M  V30 72 H 0.881184 -3.583461 -2.759686 0
M  V30 73 H 1.235315 -1.374591 -5.084046 0
M  V30 74 H 2.854141 0.272074 -5.819889 0
M  V30 75 H 3.109439 -1.789245 -1.330221 0
M  V30 76 H 8.593537 3.360106 -3.114178 0
M  V30 77 H 8.447339 3.880479 -2.041416 0
M  V30 78 H 3.615909 0.179398 1.183789 0
M  V30 79 H 2.566752 -1.376356 2.846430 0
M  V30 80 H 5.043338 -4.516584 1.239298 0
M  V30 81 H 6.030809 -2.914477 -0.370163 0
M  V30 82 H 6.030346 2.779483 -3.474995 0
M  V30 83 H 6.981136 1.411616 -4.073298 0
M  V30 84 H 4.298066 2.096345 -4.809532 0
M  V30 85 H 5.320868 0.765540 -5.432232 0
M  V30 86 H -2.230922 -3.912567 1.102073 0
M  V30 87 H -4.441280 -0.778109 -3.658926 0
M  V30 88 H -6.002793 -1.579330 -3.400837 0
M  V30 89 H -5.192167 1.196487 -2.784005 0
M  V30 90 H -6.782050 0.519240 -3.212487 0
M  V30 91 H -3.596899 2.864116 -1.017258 0
M  V30 END ATOM
M  V30 BEGIN BOND
M  V30 1 1 1 2
M  V30 2 1 2 3
M  V30 3 1 3 4
M  V30 4 1 4 5
M  V30 5 1 5 6
M  V30 6 2 6 7
M  V30 7 1 6 8
M  V30 8 1 8 9
M  V30 9 1 9 10
M  V30 10 2 10 11
M  V30 11 1 11 12
M  V30 12 1 12 13
M  V30 13 1 13 14
M  V30 14 1 14 15
M  V30 15 1 15 16
M  V30 16 1 16 17
M  V30 17 2 17 18
M  V30 18 1 18 19
M  V30 19 1 19 20
M  V30 20 2 20 21
M  V30 21 1 20 22
M  V30 22 1 22 23
M  V30 23 2 23 24
M  V30 24 1 24 25
M  V30 25 2 25 26
M  V30 26 1 26 27
M  V30 27 2 27 28
M  V30 28 1 27 29
M  V30 29 2 29 30
M  V30 30 1 30 31
M  V30 31 1 31 32
M  V30 32 1 32 33
M  V30 33 2 32 34
M  V30 34 2 31 35
M  V30 35 1 35 36
M  V30 36 1 36 37
M  V30 37 2 37 38
M  V30 38 1 38 39
M  V30 39 2 39 40
M  V30 40 1 40 41
M  V30 41 1 40 42
M  V30 42 2 42 43
M  V30 43 1 30 44
M  V30 44 1 44 45
M  V30 45 2 19 46
M  V30 46 1 46 47
M  V30 47 1 46 48
M  V30 48 2 48 49
M  V30 49 1 16 50
M  V30 50 1 50 51
M  V30 51 1 11 52
M  V30 52 2 52 53
M  V30 53 1 53 9
M  V30 54 1 51 13
M  V30 55 1 49 17
M  V30 56 1 28 23
M  V30 57 1 36 29
M  V30 58 1 43 37
M  V30 59 1 45 26
M  V30 60 1 1 54
M  V30 61 1 1 55
M  V30 62 1 1 56
M  V30 63 1 3 57
M  V30 64 1 3 58
M  V30 65 1 4 59
M  V30 66 1 4 60
M  V30 67 1 5 61
M  V30 68 1 8 62
M  V30 69 1 8 63
M  V30 70 1 10 64
M  V30 71 1 12 65
M  V30 72 1 12 66
M  V30 73 1 14 67
M  V30 74 1 14 68
M  V30 75 1 15 69
M  V30 76 1 15 70
M  V30 77 1 18 71
M  V30 78 1 22 72
M  V30 79 1 24 73
M  V30 80 1 25 74
M  V30 81 1 28 75
M  V30 82 1 33 76
M  V30 83 1 33 77
M  V30 84 1 38 78
M  V30 85 1 39 79
M  V30 86 1 42 80
M  V30 87 1 43 81
M  V30 88 1 44 82
M  V30 89 1 44 83
M  V30 90 1 45 84
M  V30 91 1 45 85
M  V30 92 1 48 86
M  V30 93 1 50 87
M  V30 94 1 50 88
M  V30 95 1 51 89
M  V30 96 1 51 90
M  V30 97 1 52 91
M  V30 END BOND
M  V30 END CTAB
M  END
>  <Dataset>  (334) 
ChEMBL_Kinases

>  <Ligand_Instance>  (334) 
nan

>  <PDB_ID>  (334) 
nan

>  <Standardized_SMILES>  (334) 
CSCCNC(=O)Cn1cc(CN2CCN(c3cc(C(=O)Nc4ccc5c(c4)-c4c(c(C(N)=O)nn4-c4ccc(F)cc4)CC5)c(Cl)cn3)CC2)cn1

>  <Name>  (334) 
nan

>  <Pocket>  (334) 
nan

>  <ATP_Site>  (334) 
nan

>  <Peripheral>  (334) 
nan

>  <Num_H_Atoms_ProtBoundConf>  (334) 
nan

>  <Num_Resolved_Atoms>  (334) 
nan

>  <Num_Not_Resolved_Atoms>  (334) 
nan

$$$$
CHEMBL1669603
     RDKit          3D

  0  0  0  0  0  0  0  0  0  0999 V3000
M  V30 BEGIN CTAB
M  V30 COUNTS 91 97 0 0 0
M  V30 BEGIN ATOM
M  V30 1 C -4.043175 -2.946274 4.159228 0
M  V30 2 O -3.155927 -1.921137 4.420791 0
M  V30 3 C -2.730356 -1.873306 5.727006 0
M  V30 4 C -1.780653 -0.737284 5.917089 0
M  V30 5 N -2.320430 0.566157 5.624504 0
M  V30 6 C -2.832151 1.079865 4.421577 0
M  V30 7 O -2.880428 0.416275 3.378206 0
M  V30 8 C -3.380954 2.429454 4.173692 0
M  V30 9 N -3.777621 2.508356 2.779943 0
M  V30 10 C -4.986066 2.198240 2.284667 0
M  V30 11 C -4.980479 2.394338 0.918983 0
M  V30 12 C -5.972567 2.238969 -0.195055 0
M  V30 13 N -5.847618 0.912204 -0.675450 0
M  V30 14 C -6.148389 -0.141566 0.225737 0
M  V30 15 C -5.818949 -1.467388 -0.480366 0
M  V30 16 N -4.735917 -1.198767 -1.445023 0
M  V30 17 C -3.438273 -1.718756 -1.196809 0
M  V30 18 C -2.444098 -1.343579 -2.036620 0
M  V30 19 C -1.177099 -1.833874 -1.810181 0
M  V30 20 C 0.078479 -1.612433 -2.514479 0
M  V30 21 O 0.318208 -0.375789 -2.479211 0
M  V30 22 N 0.943729 -2.519589 -3.148506 0
M  V30 23 C 2.048146 -1.765991 -3.683242 0
M  V30 24 C 2.036241 -1.260075 -4.965124 0
M  V30 25 C 3.139968 -0.532244 -5.417752 0
M  V30 26 C 4.228171 -0.317273 -4.604467 0
M  V30 27 C 4.202652 -0.838660 -3.327599 0
M  V30 28 C 3.135383 -1.560329 -2.847573 0
M  V30 29 C 5.364082 -0.566449 -2.501047 0
M  V30 30 C 6.376105 0.182574 -3.056543 0
M  V30 31 C 7.329348 0.268586 -2.066651 0
M  V30 32 C 8.610466 0.943579 -2.104190 0
M  V30 33 N 9.487306 0.933580 -0.988059 0
M  V30 34 O 9.000700 1.568837 -3.129161 0
M  V30 35 N 6.854971 -0.413054 -0.997481 0
M  V30 36 N 5.668688 -0.918547 -1.255906 0
M  V30 37 C 4.964255 -1.677121 -0.285627 0
M  V30 38 C 4.149784 -0.890940 0.541564 0
M  V30 39 C 3.380240 -1.410126 1.563145 0
M  V30 40 C 3.429864 -2.780365 1.764854 0
M  V30 41 F 2.698045 -3.349324 2.752858 0
M  V30 42 C 4.221225 -3.567241 0.966006 0
M  V30 43 C 4.986107 -3.059999 -0.048060 0
M  V30 44 C 6.441661 0.777038 -4.395850 0
M  V30 45 C 5.267520 0.456155 -5.285905 0
M  V30 46 C -0.981900 -2.692337 -0.727168 0
M  V30 47 Cl 0.551717 -3.431289 -0.259713 0
M  V30 48 C -2.042630 -3.046170 0.106209 0
M  V30 49 N -3.256394 -2.541772 -0.157024 0
M  V30 50 C -5.191731 -0.394413 -2.561363 0
M  V30 51 C -6.165937 0.658911 -2.033822 0
M  V30 52 C -3.675133 2.842450 0.660025 0
M  V30 53 N -2.940542 2.910607 1.808115 0
M  V30 54 H -3.594951 -3.952648 4.373284 0
M  V30 55 H -4.327084 -2.902573 3.091906 0
M  V30 56 H -4.977123 -2.888954 4.774283 0
M  V30 57 H -3.586013 -1.693936 6.429557 0
M  V30 58 H -2.300340 -2.841379 6.072353 0
M  V30 59 H -1.387324 -0.713337 6.938070 0
M  V30 60 H -0.884855 -0.891641 5.246255 0
M  V30 61 H -2.381472 1.315955 6.371176 0
M  V30 62 H -2.645304 3.237628 4.365625 0
M  V30 63 H -4.246698 2.615309 4.868111 0
M  V30 64 H -5.874234 1.850345 2.762988 0
M  V30 65 H -6.979189 2.412649 0.254193 0
M  V30 66 H -5.772313 3.003367 -0.956651 0
M  V30 67 H -7.199119 -0.174568 0.573961 0
M  V30 68 H -5.445414 -0.035150 1.103008 0
M  V30 69 H -5.495666 -2.224855 0.251563 0
M  V30 70 H -6.688112 -1.799317 -1.075885 0
M  V30 71 H -2.489816 -0.691205 -2.894273 0
M  V30 72 H 0.629253 -3.499299 -3.106901 0
M  V30 73 H 1.148440 -1.465533 -5.552079 0
M  V30 74 H 2.994836 -0.195036 -6.445992 0
M  V30 75 H 3.098009 -1.966383 -1.876823 0
M  V30 76 H 10.148338 0.429652 -0.373125 0
M  V30 77 H 9.615138 1.806484 -0.421883 0
M  V30 78 H 4.057466 0.193522 0.446353 0
M  V30 79 H 2.757063 -0.812357 2.194585 0
M  V30 80 H 4.302348 -4.625580 1.070503 0
M  V30 81 H 5.644318 -3.563727 -0.741826 0
M  V30 82 H 6.496627 1.893695 -4.247187 0
M  V30 83 H 7.373285 0.455133 -4.925720 0
M  V30 84 H 4.827360 1.417484 -5.650102 0
M  V30 85 H 5.629298 -0.092553 -6.200543 0
M  V30 86 H -1.953706 -3.705063 0.958750 0
M  V30 87 H -4.397913 0.008945 -3.184839 0
M  V30 88 H -5.798789 -1.084829 -3.203079 0
M  V30 89 H -6.123596 1.582309 -2.644412 0
M  V30 90 H -7.221580 0.314202 -2.096919 0
M  V30 91 H -3.205888 3.125520 -0.295241 0
M  V30 END ATOM
M  V30 BEGIN BOND
M  V30 1 1 1 2
M  V30 2 1 2 3
M  V30 3 1 3 4
M  V30 4 1 4 5
M  V30 5 1 5 6
M  V30 6 2 6 7
M  V30 7 1 6 8
M  V30 8 1 8 9
M  V30 9 1 9 10
M  V30 10 2 10 11
M  V30 11 1 11 12
M  V30 12 1 12 13
M  V30 13 1 13 14
M  V30 14 1 14 15
M  V30 15 1 15 16
M  V30 16 1 16 17
M  V30 17 2 17 18
M  V30 18 1 18 19
M  V30 19 1 19 20
M  V30 20 2 20 21
M  V30 21 1 20 22
M  V30 22 1 22 23
M  V30 23 2 23 24
M  V30 24 1 24 25
M  V30 25 2 25 26
M  V30 26 1 26 27
M  V30 27 2 27 28
M  V30 28 1 27 29
M  V30 29 2 29 30
M  V30 30 1 30 31
M  V30 31 1 31 32
M  V30 32 1 32 33
M  V30 33 2 32 34
M  V30 34 2 31 35
M  V30 35 1 35 36
M  V30 36 1 36 37
M  V30 37 2 37 38
M  V30 38 1 38 39
M  V30 39 2 39 40
M  V30 40 1 40 41
M  V30 41 1 40 42
M  V30 42 2 42 43
M  V30 43 1 30 44
M  V30 44 1 44 45
M  V30 45 2 19 46
M  V30 46 1 46 47
M  V30 47 1 46 48
M  V30 48 2 48 49
M  V30 49 1 16 50
M  V30 50 1 50 51
M  V30 51 1 11 52
M  V30 52 2 52 53
M  V30 53 1 53 9
M  V30 54 1 51 13
M  V30 55 1 49 17
M  V30 56 1 28 23
M  V30 57 1 36 29
M  V30 58 1 43 37
M  V30 59 1 45 26
M  V30 60 1 1 54
M  V30 61 1 1 55
M  V30 62 1 1 56
M  V30 63 1 3 57
M  V30 64 1 3 58
M  V30 65 1 4 59
M  V30 66 1 4 60
M  V30 67 1 5 61
M  V30 68 1 8 62
M  V30 69 1 8 63
M  V30 70 1 10 64
M  V30 71 1 12 65
M  V30 72 1 12 66
M  V30 73 1 14 67
M  V30 74 1 14 68
M  V30 75 1 15 69
M  V30 76 1 15 70
M  V30 77 1 18 71
M  V30 78 1 22 72
M  V30 79 1 24 73
M  V30 80 1 25 74
M  V30 81 1 28 75
M  V30 82 1 33 76
M  V30 83 1 33 77
M  V30 84 1 38 78
M  V30 85 1 39 79
M  V30 86 1 42 80
M  V30 87 1 43 81
M  V30 88 1 44 82
M  V30 89 1 44 83
M  V30 90 1 45 84
M  V30 91 1 45 85
M  V30 92 1 48 86
M  V30 93 1 50 87
M  V30 94 1 50 88
M  V30 95 1 51 89
M  V30 96 1 51 90
M  V30 97 1 52 91
M  V30 END BOND
M  V30 END CTAB
M  END
>  <Dataset>  (335) 
ChEMBL_Kinases

>  <Ligand_Instance>  (335) 
nan

>  <PDB_ID>  (335) 
nan

>  <Standardized_SMILES>  (335) 
COCCNC(=O)Cn1cc(CN2CCN(c3cc(C(=O)Nc4ccc5c(c4)-c4c(c(C(N)=O)nn4-c4ccc(F)cc4)CC5)c(Cl)cn3)CC2)cn1

>  <Name>  (335) 
nan

>  <Pocket>  (335) 
nan

>  <ATP_Site>  (335) 
nan

>  <Peripheral>  (335) 
nan

>  <Num_H_Atoms_ProtBoundConf>  (335) 
nan

>  <Num_Resolved_Atoms>  (335) 
nan

>  <Num_Not_Resolved_Atoms>  (335) 
nan

$$$$
CHEMBL1669602
     RDKit          3D

  0  0  0  0  0  0  0  0  0  0999 V3000
M  V30 BEGIN CTAB
M  V30 COUNTS 87 93 0 0 0
M  V30 BEGIN ATOM
M  V30 1 C 4.102746 -3.753470 0.768683 0
M  V30 2 N 5.201106 -2.818163 0.626485 0
M  V30 3 C 6.572830 -3.147370 0.868970 0
M  V30 4 C 4.925901 -1.495615 0.220771 0
M  V30 5 O 4.286494 -0.478786 -0.140091 0
M  V30 6 C 5.972717 -0.462027 0.046210 0
M  V30 7 N 5.415948 0.801528 -0.386180 0
M  V30 8 C 4.958306 1.870783 0.285856 0
M  V30 9 C 4.529437 2.825171 -0.606847 0
M  V30 10 C 3.949766 4.172531 -0.387900 0
M  V30 11 N 2.505240 4.164391 -0.264860 0
M  V30 12 C 2.064418 5.515473 -0.121330 0
M  V30 13 C 0.584529 5.607351 -0.023798 0
M  V30 14 N -0.129221 4.434356 -0.502789 0
M  V30 15 C -1.388986 4.123238 0.133986 0
M  V30 16 C -2.084435 2.930000 -0.078035 0
M  V30 17 C -3.306559 2.701341 0.562058 0
M  V30 18 C -3.877523 1.380221 0.205816 0
M  V30 19 O -4.143512 0.945769 -0.945862 0
M  V30 20 N -4.158376 0.497802 1.291604 0
M  V30 21 C -4.697866 -0.743973 0.784455 0
M  V30 22 C -6.037914 -0.989575 0.558357 0
M  V30 23 C -6.459067 -2.209592 0.071861 0
M  V30 24 C -5.561721 -3.230135 -0.207788 0
M  V30 25 C -4.210608 -2.984933 0.019799 0
M  V30 26 C -3.785271 -1.772266 0.504487 0
M  V30 27 C -3.295495 -4.052035 -0.279850 0
M  V30 28 C -3.768372 -5.250551 -0.769935 0
M  V30 29 C -2.662256 -6.032102 -0.936748 0
M  V30 30 C -2.582177 -7.401941 -1.430708 0
M  V30 31 N -1.364644 -8.083341 -1.550398 0
M  V30 32 O -3.621821 -8.022976 -1.770710 0
M  V30 33 N -1.583571 -5.301311 -0.552823 0
M  V30 34 N -1.982559 -4.082838 -0.149394 0
M  V30 35 C -0.983373 -3.186352 0.291196 0
M  V30 36 C -0.755577 -3.327932 1.667648 0
M  V30 37 C 0.204443 -2.535292 2.296333 0
M  V30 38 C 0.944743 -1.601971 1.588330 0
M  V30 39 F 1.861625 -0.851082 2.221864 0
M  V30 40 C 0.703124 -1.485839 0.254094 0
M  V30 41 C -0.230307 -2.241258 -0.416871 0
M  V30 42 C -5.174255 -5.560661 -1.036689 0
M  V30 43 C -6.150089 -4.486107 -0.725147 0
M  V30 44 C -3.853425 3.615173 1.399501 0
M  V30 45 Cl -5.367551 3.223224 2.134095 0
M  V30 46 C -3.119035 4.790630 1.577797 0
M  V30 47 N -1.948592 4.995578 0.956915 0
M  V30 48 C 0.475505 3.706361 -1.565304 0
M  V30 49 C 1.951995 3.471465 -1.380094 0
M  V30 50 C 4.752386 2.275951 -1.862511 0
M  V30 51 N 5.284841 1.061310 -1.695645 0
M  V30 52 H 4.452863 -4.681653 1.304197 0
M  V30 53 H 3.245371 -3.352698 1.328814 0
M  V30 54 H 3.760007 -4.083983 -0.255462 0
M  V30 55 H 6.670631 -4.242255 0.600987 0
M  V30 56 H 7.272131 -2.629531 0.174469 0
M  V30 57 H 6.869020 -3.059568 1.928987 0
M  V30 58 H 6.448858 -0.302493 1.055518 0
M  V30 59 H 6.801730 -0.802533 -0.606621 0
M  V30 60 H 4.937502 1.952340 1.361273 0
M  V30 61 H 4.435853 4.689101 0.482238 0
M  V30 62 H 4.189783 4.853734 -1.255877 0
M  V30 63 H 2.495999 6.201467 -0.885120 0
M  V30 64 H 2.507281 5.883632 0.847812 0
M  V30 65 H 0.162371 6.503966 -0.559093 0
M  V30 66 H 0.293004 5.798949 1.050596 0
M  V30 67 H -1.624789 2.218199 -0.748966 0
M  V30 68 H -3.986088 0.743092 2.312638 0
M  V30 69 H -6.728448 -0.161507 0.790887 0
M  V30 70 H -7.527849 -2.260720 -0.057133 0
M  V30 71 H -2.772630 -1.543078 0.691521 0
M  V30 72 H -0.356617 -8.023943 -1.790970 0
M  V30 73 H -1.321313 -9.119125 -1.327128 0
M  V30 74 H -1.263908 -4.017578 2.332690 0
M  V30 75 H 0.411855 -2.610951 3.359910 0
M  V30 76 H 1.253602 -0.767246 -0.371882 0
M  V30 77 H -0.496770 -2.228400 -1.464659 0
M  V30 78 H -5.409118 -6.524813 -0.496533 0
M  V30 79 H -5.305503 -5.845871 -2.122594 0
M  V30 80 H -6.902068 -4.814208 0.050768 0
M  V30 81 H -6.796781 -4.241544 -1.616721 0
M  V30 82 H -3.575065 5.520100 2.258970 0
M  V30 83 H 0.012497 2.736216 -1.806198 0
M  V30 84 H 0.334518 4.325948 -2.499024 0
M  V30 85 H 2.182505 2.381556 -1.262888 0
M  V30 86 H 2.522393 3.797234 -2.290087 0
M  V30 87 H 4.564418 2.675328 -2.870133 0
M  V30 END ATOM
M  V30 BEGIN BOND
M  V30 1 1 1 2
M  V30 2 1 2 3
M  V30 3 1 2 4
M  V30 4 2 4 5
M  V30 5 1 4 6
M  V30 6 1 6 7
M  V30 7 1 7 8
M  V30 8 2 8 9
M  V30 9 1 9 10
M  V30 10 1 10 11
M  V30 11 1 11 12
M  V30 12 1 12 13
M  V30 13 1 13 14
M  V30 14 1 14 15
M  V30 15 2 15 16
M  V30 16 1 16 17
M  V30 17 1 17 18
M  V30 18 2 18 19
M  V30 19 1 18 20
M  V30 20 1 20 21
M  V30 21 2 21 22
M  V30 22 1 22 23
M  V30 23 2 23 24
M  V30 24 1 24 25
M  V30 25 2 25 26
M  V30 26 1 25 27
M  V30 27 2 27 28
M  V30 28 1 28 29
M  V30 29 1 29 30
M  V30 30 1 30 31
M  V30 31 2 30 32
M  V30 32 2 29 33
M  V30 33 1 33 34
M  V30 34 1 34 35
M  V30 35 2 35 36
M  V30 36 1 36 37
M  V30 37 2 37 38
M  V30 38 1 38 39
M  V30 39 1 38 40
M  V30 40 2 40 41
M  V30 41 1 28 42
M  V30 42 1 42 43
M  V30 43 2 17 44
M  V30 44 1 44 45
M  V30 45 1 44 46
M  V30 46 2 46 47
M  V30 47 1 14 48
M  V30 48 1 48 49
M  V30 49 1 9 50
M  V30 50 2 50 51
M  V30 51 1 51 7
M  V30 52 1 49 11
M  V30 53 1 47 15
M  V30 54 1 26 21
M  V30 55 1 34 27
M  V30 56 1 41 35
M  V30 57 1 43 24
M  V30 58 1 1 52
M  V30 59 1 1 53
M  V30 60 1 1 54
M  V30 61 1 3 55
M  V30 62 1 3 56
M  V30 63 1 3 57
M  V30 64 1 6 58
M  V30 65 1 6 59
M  V30 66 1 8 60
M  V30 67 1 10 61
M  V30 68 1 10 62
M  V30 69 1 12 63
M  V30 70 1 12 64
M  V30 71 1 13 65
M  V30 72 1 13 66
M  V30 73 1 16 67
M  V30 74 1 20 68
M  V30 75 1 22 69
M  V30 76 1 23 70
M  V30 77 1 26 71
M  V30 78 1 31 72
M  V30 79 1 31 73
M  V30 80 1 36 74
M  V30 81 1 37 75
M  V30 82 1 40 76
M  V30 83 1 41 77
M  V30 84 1 42 78
M  V30 85 1 42 79
M  V30 86 1 43 80
M  V30 87 1 43 81
M  V30 88 1 46 82
M  V30 89 1 48 83
M  V30 90 1 48 84
M  V30 91 1 49 85
M  V30 92 1 49 86
M  V30 93 1 50 87
M  V30 END BOND
M  V30 END CTAB
M  END
>  <Dataset>  (336) 
ChEMBL_Kinases

>  <Ligand_Instance>  (336) 
nan

>  <PDB_ID>  (336) 
nan

>  <Standardized_SMILES>  (336) 
CN(C)C(=O)Cn1cc(CN2CCN(c3cc(C(=O)Nc4ccc5c(c4)-c4c(c(C(N)=O)nn4-c4ccc(F)cc4)CC5)c(Cl)cn3)CC2)cn1

>  <Name>  (336) 
nan

>  <Pocket>  (336) 
nan

>  <ATP_Site>  (336) 
nan

>  <Peripheral>  (336) 
nan

>  <Num_H_Atoms_ProtBoundConf>  (336) 
nan

>  <Num_Resolved_Atoms>  (336) 
nan

>  <Num_Not_Resolved_Atoms>  (336) 
nan

$$$$
CHEMBL1669601
     RDKit          3D

  0  0  0  0  0  0  0  0  0  0999 V3000
M  V30 BEGIN CTAB
M  V30 COUNTS 90 96 0 0 0
M  V30 BEGIN ATOM
M  V30 1 C -4.081224 -2.135461 5.322524 0
M  V30 2 C -5.214249 -1.140483 5.054036 0
M  V30 3 C -4.669249 0.228331 5.393100 0
M  V30 4 N -5.609757 -1.168940 3.672811 0
M  V30 5 C -6.794591 -1.433267 2.915683 0
M  V30 6 O -7.848567 -1.736225 3.530052 0
M  V30 7 C -6.725036 -1.338457 1.434924 0
M  V30 8 N -5.399678 -0.937023 1.016739 0
M  V30 9 C -5.094604 0.370907 0.850580 0
M  V30 10 C -3.789850 0.442655 0.473988 0
M  V30 11 C -3.042588 1.701973 0.169947 0
M  V30 12 N -3.080084 1.928695 -1.221791 0
M  V30 13 C -4.317725 2.040766 -1.879684 0
M  V30 14 C -4.180129 1.427573 -3.287162 0
M  V30 15 N -2.844266 0.810096 -3.353277 0
M  V30 16 C -2.513466 -0.564543 -3.525135 0
M  V30 17 C -1.272001 -0.977408 -3.022205 0
M  V30 18 C -0.871257 -2.299793 -3.164646 0
M  V30 19 C 0.442331 -2.607323 -2.585090 0
M  V30 20 O 0.304698 -2.506406 -1.317803 0
M  V30 21 N 1.712849 -2.960274 -3.110987 0
M  V30 22 C 2.575663 -3.125003 -1.994083 0
M  V30 23 C 2.712315 -4.374824 -1.433058 0
M  V30 24 C 3.539562 -4.546292 -0.341647 0
M  V30 25 C 4.230767 -3.452374 0.185501 0
M  V30 26 C 4.062390 -2.224120 -0.407415 0
M  V30 27 C 3.250117 -2.034220 -1.487403 0
M  V30 28 C 4.773329 -1.120739 0.180073 0
M  V30 29 C 5.551170 -1.409273 1.279898 0
M  V30 30 C 6.107313 -0.181888 1.635207 0
M  V30 31 C 7.017878 0.108753 2.736939 0
M  V30 32 N 7.499731 1.425650 2.951730 0
M  V30 33 O 7.379956 -0.822637 3.506225 0
M  V30 34 N 5.641770 0.743329 0.750017 0
M  V30 35 N 4.840523 0.172820 -0.122190 0
M  V30 36 C 4.234309 0.940781 -1.147593 0
M  V30 37 C 3.007399 1.619584 -1.167752 0
M  V30 38 C 2.655391 2.321953 -2.316056 0
M  V30 39 C 3.508676 2.334684 -3.393721 0
M  V30 40 F 3.064353 3.058752 -4.474523 0
M  V30 41 C 4.723500 1.689455 -3.435961 0
M  V30 42 C 5.064653 0.987102 -2.274428 0
M  V30 43 C 5.785376 -2.693834 1.972400 0
M  V30 44 C 5.063524 -3.847457 1.342605 0
M  V30 45 C -1.675327 -3.235260 -3.799103 0
M  V30 46 Cl -1.042409 -4.841953 -3.901363 0
M  V30 47 C -2.885170 -2.764296 -4.271237 0
M  V30 48 N -3.263943 -1.481231 -4.127814 0
M  V30 49 C -1.814629 1.837560 -3.228066 0
M  V30 50 C -1.930117 2.473615 -1.844752 0
M  V30 51 C -3.343710 -0.861713 0.425381 0
M  V30 52 N -4.359971 -1.696206 0.765588 0
M  V30 53 H -3.661610 -1.873568 6.325940 0
M  V30 54 H -3.298850 -1.953862 4.537772 0
M  V30 55 H -4.508489 -3.141240 5.274394 0
M  V30 56 H -6.048210 -1.356567 5.743149 0
M  V30 57 H -4.540790 0.356270 6.486031 0
M  V30 58 H -5.259712 1.048308 4.914480 0
M  V30 59 H -3.636092 0.373676 4.964934 0
M  V30 60 H -4.733746 -0.916223 3.127315 0
M  V30 61 H -6.911825 -2.347707 0.997935 0
M  V30 62 H -7.475035 -0.676357 0.986411 0
M  V30 63 H -5.757307 1.240853 0.987298 0
M  V30 64 H -2.023584 1.544204 0.580754 0
M  V30 65 H -3.457916 2.559050 0.747828 0
M  V30 66 H -4.634389 3.109094 -2.038327 0
M  V30 67 H -5.106744 1.534494 -1.311904 0
M  V30 68 H -4.315543 2.186336 -4.069912 0
M  V30 69 H -4.985455 0.699460 -3.403794 0
M  V30 70 H -0.634976 -0.261729 -2.522468 0
M  V30 71 H 1.666467 -2.997164 -4.147427 0
M  V30 72 H 2.155940 -5.187769 -1.877983 0
M  V30 73 H 3.576698 -5.561476 0.020493 0
M  V30 74 H 3.093954 -1.095462 -1.980526 0
M  V30 75 H 8.541765 1.514430 2.907063 0
M  V30 76 H 7.014447 2.318251 3.145227 0
M  V30 77 H 2.473382 1.497432 -0.233537 0
M  V30 78 H 1.697031 2.809468 -2.235572 0
M  V30 79 H 5.361565 1.725433 -4.301693 0
M  V30 80 H 6.045346 0.492737 -2.367101 0
M  V30 81 H 6.896439 -2.885138 1.850610 0
M  V30 82 H 5.557811 -2.613727 3.067657 0
M  V30 83 H 5.842808 -4.539791 0.912756 0
M  V30 84 H 4.469473 -4.378325 2.121361 0
M  V30 85 H -3.496322 -3.505674 -4.760675 0
M  V30 86 H -2.096556 2.644247 -3.974286 0
M  V30 87 H -0.807476 1.495637 -3.472219 0
M  V30 88 H -1.040216 2.168486 -1.229014 0
M  V30 89 H -1.921134 3.566565 -1.902079 0
M  V30 90 H -2.320845 -1.133844 0.148619 0
M  V30 END ATOM
M  V30 BEGIN BOND
M  V30 1 1 1 2
M  V30 2 1 2 3
M  V30 3 1 2 4
M  V30 4 1 4 5
M  V30 5 2 5 6
M  V30 6 1 5 7
M  V30 7 1 7 8
M  V30 8 1 8 9
M  V30 9 2 9 10
M  V30 10 1 10 11
M  V30 11 1 11 12
M  V30 12 1 12 13
M  V30 13 1 13 14
M  V30 14 1 14 15
M  V30 15 1 15 16
M  V30 16 2 16 17
M  V30 17 1 17 18
M  V30 18 1 18 19
M  V30 19 2 19 20
M  V30 20 1 19 21
M  V30 21 1 21 22
M  V30 22 2 22 23
M  V30 23 1 23 24
M  V30 24 2 24 25
M  V30 25 1 25 26
M  V30 26 2 26 27
M  V30 27 1 26 28
M  V30 28 2 28 29
M  V30 29 1 29 30
M  V30 30 1 30 31
M  V30 31 1 31 32
M  V30 32 2 31 33
M  V30 33 2 30 34
M  V30 34 1 34 35
M  V30 35 1 35 36
M  V30 36 2 36 37
M  V30 37 1 37 38
M  V30 38 2 38 39
M  V30 39 1 39 40
M  V30 40 1 39 41
M  V30 41 2 41 42
M  V30 42 1 29 43
M  V30 43 1 43 44
M  V30 44 2 18 45
M  V30 45 1 45 46
M  V30 46 1 45 47
M  V30 47 2 47 48
M  V30 48 1 15 49
M  V30 49 1 49 50
M  V30 50 1 10 51
M  V30 51 2 51 52
M  V30 52 1 52 8
M  V30 53 1 50 12
M  V30 54 1 48 16
M  V30 55 1 27 22
M  V30 56 1 35 28
M  V30 57 1 42 36
M  V30 58 1 44 25
M  V30 59 1 1 53
M  V30 60 1 1 54
M  V30 61 1 1 55
M  V30 62 1 2 56
M  V30 63 1 3 57
M  V30 64 1 3 58
M  V30 65 1 3 59
M  V30 66 1 4 60
M  V30 67 1 7 61
M  V30 68 1 7 62
M  V30 69 1 9 63
M  V30 70 1 11 64
M  V30 71 1 11 65
M  V30 72 1 13 66
M  V30 73 1 13 67
M  V30 74 1 14 68
M  V30 75 1 14 69
M  V30 76 1 17 70
M  V30 77 1 21 71
M  V30 78 1 23 72
M  V30 79 1 24 73
M  V30 80 1 27 74
M  V30 81 1 32 75
M  V30 82 1 32 76
M  V30 83 1 37 77
M  V30 84 1 38 78
M  V30 85 1 41 79
M  V30 86 1 42 80
M  V30 87 1 43 81
M  V30 88 1 43 82
M  V30 89 1 44 83
M  V30 90 1 44 84
M  V30 91 1 47 85
M  V30 92 1 49 86
M  V30 93 1 49 87
M  V30 94 1 50 88
M  V30 95 1 50 89
M  V30 96 1 51 90
M  V30 END BOND
M  V30 END CTAB
M  END
>  <Dataset>  (337) 
ChEMBL_Kinases

>  <Ligand_Instance>  (337) 
nan

>  <PDB_ID>  (337) 
nan

>  <Standardized_SMILES>  (337) 
CC(C)NC(=O)Cn1cc(CN2CCN(c3cc(C(=O)Nc4ccc5c(c4)-c4c(c(C(N)=O)nn4-c4ccc(F)cc4)CC5)c(Cl)cn3)CC2)cn1

>  <Name>  (337) 
nan

>  <Pocket>  (337) 
nan

>  <ATP_Site>  (337) 
nan

>  <Peripheral>  (337) 
nan

>  <Num_H_Atoms_ProtBoundConf>  (337) 
nan

>  <Num_Resolved_Atoms>  (337) 
nan

>  <Num_Not_Resolved_Atoms>  (337) 
nan

$$$$
CHEMBL1669600
     RDKit          3D

  0  0  0  0  0  0  0  0  0  0999 V3000
M  V30 BEGIN CTAB
M  V30 COUNTS 84 90 0 0 0
M  V30 BEGIN ATOM
M  V30 1 C 5.300601 -2.460113 2.606607 0
M  V30 2 N 5.728023 -1.113266 2.867226 0
M  V30 3 C 4.769297 -0.195734 3.359736 0
M  V30 4 O 3.565599 -0.174030 3.669159 0
M  V30 5 C 5.094506 1.223052 3.664999 0
M  V30 6 N 3.934533 1.928409 4.159932 0
M  V30 7 C 3.018390 2.607484 3.478915 0
M  V30 8 C 2.047277 3.143955 4.323178 0
M  V30 9 C 0.838649 3.962874 4.157859 0
M  V30 10 N -0.360482 3.191902 3.909603 0
M  V30 11 C -1.475910 4.111973 3.889038 0
M  V30 12 C -2.812200 3.442403 4.132107 0
M  V30 13 N -2.735413 2.028143 3.882869 0
M  V30 14 C -3.419770 1.208775 2.909664 0
M  V30 15 C -2.764768 0.117251 2.377647 0
M  V30 16 C -3.452767 -0.673977 1.455184 0
M  V30 17 C -2.596230 -1.790466 0.976677 0
M  V30 18 O -2.772859 -2.979714 1.340318 0
M  V30 19 N -1.589854 -1.333368 0.082554 0
M  V30 20 C -0.501318 -1.798916 -0.699064 0
M  V30 21 C 0.777315 -1.911157 -0.201025 0
M  V30 22 C 1.841962 -2.364998 -0.996866 0
M  V30 23 C 1.552300 -2.694430 -2.303240 0
M  V30 24 C 0.279536 -2.584864 -2.809241 0
M  V30 25 C -0.771542 -2.141694 -2.036320 0
M  V30 26 C 0.076158 -2.919344 -4.203986 0
M  V30 27 C 1.167350 -3.320697 -4.932561 0
M  V30 28 C 0.697313 -3.575047 -6.183739 0
M  V30 29 C 1.432854 -4.031173 -7.357466 0
M  V30 30 N 0.744970 -4.234262 -8.581311 0
M  V30 31 O 2.653499 -4.257775 -7.351039 0
M  V30 32 N -0.640261 -3.319144 -6.155765 0
M  V30 33 N -1.025874 -2.920768 -4.958921 0
M  V30 34 C -2.380536 -2.600313 -4.698421 0
M  V30 35 C -2.653079 -1.278623 -4.982429 0
M  V30 36 C -3.917027 -0.723627 -4.827317 0
M  V30 37 C -4.926813 -1.557684 -4.365917 0
M  V30 38 F -6.209023 -1.122774 -4.173721 0
M  V30 39 C -4.679935 -2.883059 -4.074885 0
M  V30 40 C -3.431278 -3.406166 -4.234897 0
M  V30 41 C 2.568719 -3.445794 -4.467152 0
M  V30 42 C 2.754135 -3.172157 -3.012504 0
M  V30 43 C -4.746107 -0.418341 1.054915 0
M  V30 44 Cl -5.445503 -1.516195 -0.103138 0
M  V30 45 C -5.324010 0.681617 1.628973 0
M  V30 46 N -4.685768 1.461761 2.518851 0
M  V30 47 C -1.807504 1.462584 4.847851 0
M  V30 48 C -0.546665 2.274274 5.008906 0
M  V30 49 C 2.478236 2.714523 5.587502 0
M  V30 50 N 3.606358 1.995128 5.426693 0
M  V30 51 H 4.308789 -2.689292 3.050492 0
M  V30 52 H 6.013202 -3.210787 3.057697 0
M  V30 53 H 5.225157 -2.710891 1.528014 0
M  V30 54 H 6.701307 -0.787052 2.712598 0
M  V30 55 H 5.472999 1.697026 2.711108 0
M  V30 56 H 5.961362 1.251939 4.355904 0
M  V30 57 H 2.952197 2.774635 2.415223 0
M  V30 58 H 1.006430 4.687217 3.313741 0
M  V30 59 H 0.657160 4.563228 5.064092 0
M  V30 60 H -1.301373 4.794686 4.772809 0
M  V30 61 H -1.487912 4.776257 3.016361 0
M  V30 62 H -3.579542 3.861400 3.431177 0
M  V30 63 H -3.164769 3.595043 5.168912 0
M  V30 64 H -1.760898 -0.052227 2.711636 0
M  V30 65 H -1.491537 -0.307240 -0.188164 0
M  V30 66 H 0.891461 -1.625004 0.835279 0
M  V30 67 H 2.793508 -2.412810 -0.503613 0
M  V30 68 H -1.784515 -2.035146 -2.373280 0
M  V30 69 H -0.034847 -4.481831 -9.195945 0
M  V30 70 H 1.145136 -4.077926 -9.549962 0
M  V30 71 H -1.936021 -0.540044 -5.349427 0
M  V30 72 H -4.214250 0.282885 -5.021806 0
M  V30 73 H -5.432540 -3.594113 -3.707883 0
M  V30 74 H -3.078605 -4.430866 -4.048388 0
M  V30 75 H 3.171941 -2.694155 -5.060443 0
M  V30 76 H 2.977276 -4.448813 -4.724380 0
M  V30 77 H 3.566173 -2.413842 -2.904632 0
M  V30 78 H 3.172782 -4.085296 -2.529722 0
M  V30 79 H -6.355020 0.876211 1.302346 0
M  V30 80 H -2.341612 1.548336 5.839510 0
M  V30 81 H -1.553219 0.415494 4.681726 0
M  V30 82 H -0.539496 2.875895 5.940271 0
M  V30 83 H 0.357067 1.599481 5.084336 0
M  V30 84 H 2.093397 2.848002 6.608707 0
M  V30 END ATOM
M  V30 BEGIN BOND
M  V30 1 1 1 2
M  V30 2 1 2 3
M  V30 3 2 3 4
M  V30 4 1 3 5
M  V30 5 1 5 6
M  V30 6 1 6 7
M  V30 7 2 7 8
M  V30 8 1 8 9
M  V30 9 1 9 10
M  V30 10 1 10 11
M  V30 11 1 11 12
M  V30 12 1 12 13
M  V30 13 1 13 14
M  V30 14 2 14 15
M  V30 15 1 15 16
M  V30 16 1 16 17
M  V30 17 2 17 18
M  V30 18 1 17 19
M  V30 19 1 19 20
M  V30 20 2 20 21
M  V30 21 1 21 22
M  V30 22 2 22 23
M  V30 23 1 23 24
M  V30 24 2 24 25
M  V30 25 1 24 26
M  V30 26 2 26 27
M  V30 27 1 27 28
M  V30 28 1 28 29
M  V30 29 1 29 30
M  V30 30 2 29 31
M  V30 31 2 28 32
M  V30 32 1 32 33
M  V30 33 1 33 34
M  V30 34 2 34 35
M  V30 35 1 35 36
M  V30 36 2 36 37
M  V30 37 1 37 38
M  V30 38 1 37 39
M  V30 39 2 39 40
M  V30 40 1 27 41
M  V30 41 1 41 42
M  V30 42 2 16 43
M  V30 43 1 43 44
M  V30 44 1 43 45
M  V30 45 2 45 46
M  V30 46 1 13 47
M  V30 47 1 47 48
M  V30 48 1 8 49
M  V30 49 2 49 50
M  V30 50 1 50 6
M  V30 51 1 48 10
M  V30 52 1 46 14
M  V30 53 1 25 20
M  V30 54 1 33 26
M  V30 55 1 40 34
M  V30 56 1 42 23
M  V30 57 1 1 51
M  V30 58 1 1 52
M  V30 59 1 1 53
M  V30 60 1 2 54
M  V30 61 1 5 55
M  V30 62 1 5 56
M  V30 63 1 7 57
M  V30 64 1 9 58
M  V30 65 1 9 59
M  V30 66 1 11 60
M  V30 67 1 11 61
M  V30 68 1 12 62
M  V30 69 1 12 63
M  V30 70 1 15 64
M  V30 71 1 19 65
M  V30 72 1 21 66
M  V30 73 1 22 67
M  V30 74 1 25 68
M  V30 75 1 30 69
M  V30 76 1 30 70
M  V30 77 1 35 71
M  V30 78 1 36 72
M  V30 79 1 39 73
M  V30 80 1 40 74
M  V30 81 1 41 75
M  V30 82 1 41 76
M  V30 83 1 42 77
M  V30 84 1 42 78
M  V30 85 1 45 79
M  V30 86 1 47 80
M  V30 87 1 47 81
M  V30 88 1 48 82
M  V30 89 1 48 83
M  V30 90 1 49 84
M  V30 END BOND
M  V30 END CTAB
M  END
>  <Dataset>  (338) 
ChEMBL_Kinases

>  <Ligand_Instance>  (338) 
nan

>  <PDB_ID>  (338) 
nan

>  <Standardized_SMILES>  (338) 
CNC(=O)Cn1cc(CN2CCN(c3cc(C(=O)Nc4ccc5c(c4)-c4c(c(C(N)=O)nn4-c4ccc(F)cc4)CC5)c(Cl)cn3)CC2)cn1

>  <Name>  (338) 
nan

>  <Pocket>  (338) 
nan

>  <ATP_Site>  (338) 
nan

>  <Peripheral>  (338) 
nan

>  <Num_H_Atoms_ProtBoundConf>  (338) 
nan

>  <Num_Resolved_Atoms>  (338) 
nan

>  <Num_Not_Resolved_Atoms>  (338) 
nan

$$$$
CHEMBL1669599
     RDKit          3D

  0  0  0  0  0  0  0  0  0  0999 V3000
M  V30 BEGIN CTAB
M  V30 COUNTS 81 87 0 0 0
M  V30 BEGIN ATOM
M  V30 1 N 1.463372 -4.374704 -0.859158 0
M  V30 2 C 2.785860 -4.704137 -1.241890 0
M  V30 3 O 3.286181 -5.859483 -1.368988 0
M  V30 4 C 3.857732 -3.751019 -1.569951 0
M  V30 5 N 3.472797 -2.362973 -1.439170 0
M  V30 6 C 2.941952 -1.595912 -2.405034 0
M  V30 7 C 2.715066 -0.309963 -1.902361 0
M  V30 8 C 2.160736 0.933036 -2.485092 0
M  V30 9 N 3.149642 1.762229 -3.084340 0
M  V30 10 C 4.186000 2.241732 -2.241568 0
M  V30 11 C 3.733442 3.167700 -1.168568 0
M  V30 12 N 2.530096 3.854683 -1.591038 0
M  V30 13 C 1.412614 4.215341 -0.811054 0
M  V30 14 C 0.994577 3.490767 0.310394 0
M  V30 15 C -0.106126 3.889546 1.069402 0
M  V30 16 C -0.320546 2.918221 2.171573 0
M  V30 17 O -0.090807 3.119606 3.387169 0
M  V30 18 N -0.831359 1.644886 1.834715 0
M  V30 19 C -1.148258 0.492551 2.612152 0
M  V30 20 C -0.938683 0.400473 3.956371 0
M  V30 21 C -1.259574 -0.737336 4.700363 0
M  V30 22 C -1.821163 -1.840834 4.060524 0
M  V30 23 C -2.014263 -1.702607 2.701846 0
M  V30 24 C -1.701603 -0.593930 1.975950 0
M  V30 25 C -2.571379 -2.876234 2.060225 0
M  V30 26 C -2.875281 -4.036462 2.759990 0
M  V30 27 C -3.404575 -4.965515 1.895466 0
M  V30 28 C -3.885383 -6.337351 2.055699 0
M  V30 29 N -3.851062 -7.055889 3.275069 0
M  V30 30 O -4.377489 -7.004729 1.102613 0
M  V30 31 N -3.413207 -4.346103 0.672721 0
M  V30 32 N -2.921402 -3.132342 0.809054 0
M  V30 33 C -2.870597 -2.359928 -0.381943 0
M  V30 34 C -1.772416 -2.398898 -1.241694 0
M  V30 35 C -1.833128 -1.616049 -2.399758 0
M  V30 36 C -2.936877 -0.848555 -2.656358 0
M  V30 37 F -2.942982 -0.107963 -3.795854 0
M  V30 38 C -4.018872 -0.819892 -1.791029 0
M  V30 39 C -4.005030 -1.576785 -0.636586 0
M  V30 40 C -2.637558 -4.207509 4.212901 0
M  V30 41 C -2.150615 -2.993776 4.914618 0
M  V30 42 C -0.809145 5.011772 0.731198 0
M  V30 43 Cl -2.136453 5.360628 1.777676 0
M  V30 44 C -0.368538 5.705229 -0.383485 0
M  V30 45 N 0.692340 5.308648 -1.104341 0
M  V30 46 C 2.556325 4.136362 -3.011581 0
M  V30 47 C 2.507509 2.840582 -3.803175 0
M  V30 48 C 3.145578 -0.386716 -0.600336 0
M  V30 49 N 3.590133 -1.630029 -0.364021 0
M  V30 50 H 0.839923 -5.107209 -1.304789 0
M  V30 51 H 1.311634 -3.532006 -0.248437 0
M  V30 52 H 4.759858 -3.903216 -0.945541 0
M  V30 53 H 4.130310 -3.932999 -2.649662 0
M  V30 54 H 2.694896 -1.820102 -3.413724 0
M  V30 55 H 1.503725 1.452863 -1.738660 0
M  V30 56 H 1.451429 0.627566 -3.309205 0
M  V30 57 H 4.887471 2.820282 -2.909656 0
M  V30 58 H 4.835555 1.419345 -1.850079 0
M  V30 59 H 4.549176 3.887882 -0.925008 0
M  V30 60 H 3.561859 2.601160 -0.244801 0
M  V30 61 H 1.633033 2.612376 0.486949 0
M  V30 62 H -1.000332 1.570403 0.782355 0
M  V30 63 H -0.508913 1.207451 4.521367 0
M  V30 64 H -1.076222 -0.761652 5.759418 0
M  V30 65 H -1.869571 -0.536997 0.920784 0
M  V30 66 H -2.835750 -7.260261 3.147066 0
M  V30 67 H -3.524348 -7.618455 4.078821 0
M  V30 68 H -0.971809 -3.045877 -0.915552 0
M  V30 69 H -0.945235 -1.685539 -3.037296 0
M  V30 70 H -4.886772 -0.185762 -2.035617 0
M  V30 71 H -4.847459 -1.573982 0.058972 0
M  V30 72 H -1.843552 -4.999321 4.372992 0
M  V30 73 H -3.543870 -4.662739 4.672406 0
M  V30 74 H -1.304840 -3.154711 5.603778 0
M  V30 75 H -2.992200 -2.656566 5.594598 0
M  V30 76 H -0.975940 6.592720 -0.597698 0
M  V30 77 H 3.516080 4.639554 -3.230791 0
M  V30 78 H 1.698167 4.751805 -3.341719 0
M  V30 79 H 1.475186 2.571683 -4.062018 0
M  V30 80 H 3.075033 3.001625 -4.734262 0
M  V30 81 H 3.196377 0.293377 0.216869 0
M  V30 END ATOM
M  V30 BEGIN BOND
M  V30 1 1 1 2
M  V30 2 2 2 3
M  V30 3 1 2 4
M  V30 4 1 4 5
M  V30 5 1 5 6
M  V30 6 2 6 7
M  V30 7 1 7 8
M  V30 8 1 8 9
M  V30 9 1 9 10
M  V30 10 1 10 11
M  V30 11 1 11 12
M  V30 12 1 12 13
M  V30 13 2 13 14
M  V30 14 1 14 15
M  V30 15 1 15 16
M  V30 16 2 16 17
M  V30 17 1 16 18
M  V30 18 1 18 19
M  V30 19 2 19 20
M  V30 20 1 20 21
M  V30 21 2 21 22
M  V30 22 1 22 23
M  V30 23 2 23 24
M  V30 24 1 23 25
M  V30 25 2 25 26
M  V30 26 1 26 27
M  V30 27 1 27 28
M  V30 28 1 28 29
M  V30 29 2 28 30
M  V30 30 2 27 31
M  V30 31 1 31 32
M  V30 32 1 32 33
M  V30 33 2 33 34
M  V30 34 1 34 35
M  V30 35 2 35 36
M  V30 36 1 36 37
M  V30 37 1 36 38
M  V30 38 2 38 39
M  V30 39 1 26 40
M  V30 40 1 40 41
M  V30 41 2 15 42
M  V30 42 1 42 43
M  V30 43 1 42 44
M  V30 44 2 44 45
M  V30 45 1 12 46
M  V30 46 1 46 47
M  V30 47 1 7 48
M  V30 48 2 48 49
M  V30 49 1 49 5
M  V30 50 1 47 9
M  V30 51 1 45 13
M  V30 52 1 24 19
M  V30 53 1 32 25
M  V30 54 1 39 33
M  V30 55 1 41 22
M  V30 56 1 1 50
M  V30 57 1 1 51
M  V30 58 1 4 52
M  V30 59 1 4 53
M  V30 60 1 6 54
M  V30 61 1 8 55
M  V30 62 1 8 56
M  V30 63 1 10 57
M  V30 64 1 10 58
M  V30 65 1 11 59
M  V30 66 1 11 60
M  V30 67 1 14 61
M  V30 68 1 18 62
M  V30 69 1 20 63
M  V30 70 1 21 64
M  V30 71 1 24 65
M  V30 72 1 29 66
M  V30 73 1 29 67
M  V30 74 1 34 68
M  V30 75 1 35 69
M  V30 76 1 38 70
M  V30 77 1 39 71
M  V30 78 1 40 72
M  V30 79 1 40 73
M  V30 80 1 41 74
M  V30 81 1 41 75
M  V30 82 1 44 76
M  V30 83 1 46 77
M  V30 84 1 46 78
M  V30 85 1 47 79
M  V30 86 1 47 80
M  V30 87 1 48 81
M  V30 END BOND
M  V30 END CTAB
M  END
>  <Dataset>  (339) 
ChEMBL_Kinases

>  <Ligand_Instance>  (339) 
nan

>  <PDB_ID>  (339) 
nan

>  <Standardized_SMILES>  (339) 
NC(=O)Cn1cc(CN2CCN(c3cc(C(=O)Nc4ccc5c(c4)-c4c(c(C(N)=O)nn4-c4ccc(F)cc4)CC5)c(Cl)cn3)CC2)cn1

>  <Name>  (339) 
nan

>  <Pocket>  (339) 
nan

>  <ATP_Site>  (339) 
nan

>  <Peripheral>  (339) 
nan

>  <Num_H_Atoms_ProtBoundConf>  (339) 
nan

>  <Num_Resolved_Atoms>  (339) 
nan

>  <Num_Not_Resolved_Atoms>  (339) 
nan

$$$$
CHEMBL1669598
     RDKit          3D

  0  0  0  0  0  0  0  0  0  0999 V3000
M  V30 BEGIN CTAB
M  V30 COUNTS 89 95 0 0 0
M  V30 BEGIN ATOM
M  V30 1 C 0.361324 -4.101563 4.082035 0
M  V30 2 C -0.957122 -3.995189 4.819039 0
M  V30 3 O -1.859401 -3.166483 4.083636 0
M  V30 4 C -2.242816 -3.478100 2.796296 0
M  V30 5 O -1.797363 -4.511285 2.238075 0
M  V30 6 C -3.173662 -2.682615 1.956702 0
M  V30 7 C -3.720019 -1.495477 2.718229 0
M  V30 8 N -4.631179 -0.713130 1.905427 0
M  V30 9 C -4.332483 0.324709 1.116692 0
M  V30 10 C -5.536576 0.708054 0.561520 0
M  V30 11 C -5.857655 1.801007 -0.389289 0
M  V30 12 N -5.752061 1.441412 -1.743273 0
M  V30 13 C -6.512345 0.387403 -2.259750 0
M  V30 14 C -5.808976 -0.462387 -3.290944 0
M  V30 15 N -4.406277 -0.095421 -3.459958 0
M  V30 16 C -3.301276 -0.986793 -3.380073 0
M  V30 17 C -1.985060 -0.601086 -3.414163 0
M  V30 18 C -0.951631 -1.541133 -3.336007 0
M  V30 19 C 0.396476 -0.922204 -3.389594 0
M  V30 20 O 1.356530 -0.954894 -4.227063 0
M  V30 21 N 0.594524 -0.133677 -2.218370 0
M  V30 22 C 1.609494 0.687202 -1.662498 0
M  V30 23 C 1.591222 2.033864 -1.969761 0
M  V30 24 C 2.542869 2.929209 -1.474751 0
M  V30 25 C 3.537718 2.421566 -0.642574 0
M  V30 26 C 3.546968 1.077224 -0.342583 0
M  V30 27 C 2.605308 0.208576 -0.836179 0
M  V30 28 C 4.606494 0.618693 0.534906 0
M  V30 29 C 5.527793 1.510328 1.018699 0
M  V30 30 C 6.399355 0.790500 1.809218 0
M  V30 31 C 7.588053 1.175238 2.598602 0
M  V30 32 N 7.978751 2.540130 2.606312 0
M  V30 33 O 8.261008 0.350480 3.257252 0
M  V30 34 N 5.962538 -0.489703 1.761971 0
M  V30 35 N 4.888035 -0.604441 1.000798 0
M  V30 36 C 4.287507 -1.876312 0.827108 0
M  V30 37 C 3.285995 -2.523730 1.560449 0
M  V30 38 C 2.893906 -3.783293 1.174388 0
M  V30 39 C 3.434295 -4.450218 0.098492 0
M  V30 40 F 2.956661 -5.680924 -0.167815 0
M  V30 41 C 4.426377 -3.826845 -0.640681 0
M  V30 42 C 4.831860 -2.563174 -0.267216 0
M  V30 43 C 5.555808 2.966085 0.733233 0
M  V30 44 C 4.484089 3.442429 -0.180374 0
M  V30 45 C -1.270755 -2.877964 -3.222902 0
M  V30 46 Cl 0.109742 -3.943588 -3.135079 0
M  V30 47 C -2.603622 -3.228378 -3.191587 0
M  V30 48 N -3.568385 -2.290711 -3.269402 0
M  V30 49 C -4.315614 1.325879 -3.727431 0
M  V30 50 C -4.859866 2.145104 -2.576700 0
M  V30 51 C -6.547506 -0.123873 1.039376 0
M  V30 52 N -5.934690 -0.987458 1.868978 0
M  V30 53 H 0.222444 -4.920154 3.331453 0
M  V30 54 H 1.147441 -4.442888 4.771670 0
M  V30 55 H 0.678430 -3.151146 3.616076 0
M  V30 56 H -1.357393 -5.002249 4.991540 0
M  V30 57 H -0.705646 -3.501407 5.800926 0
M  V30 58 H -2.725720 -2.408339 1.001472 0
M  V30 59 H -4.054890 -3.361724 1.759167 0
M  V30 60 H -2.830753 -0.844809 2.958486 0
M  V30 61 H -4.126272 -1.803720 3.690117 0
M  V30 62 H -3.389097 0.785846 0.929469 0
M  V30 63 H -6.891140 2.214931 -0.183540 0
M  V30 64 H -5.194957 2.693689 -0.215592 0
M  V30 65 H -6.911217 -0.228495 -1.447490 0
M  V30 66 H -7.415082 0.826502 -2.765768 0
M  V30 67 H -5.885693 -1.535915 -2.991444 0
M  V30 68 H -6.299565 -0.400329 -4.291592 0
M  V30 69 H -1.797940 0.453464 -3.502900 0
M  V30 70 H -0.088378 0.011820 -1.413468 0
M  V30 71 H 0.808177 2.411574 -2.622623 0
M  V30 72 H 2.448054 3.954908 -1.768422 0
M  V30 73 H 2.574347 -0.843054 -0.629707 0
M  V30 74 H 9.022835 2.675484 2.469997 0
M  V30 75 H 7.593302 3.499677 2.702907 0
M  V30 76 H 2.942502 -1.906505 2.375505 0
M  V30 77 H 2.121898 -4.219136 1.780462 0
M  V30 78 H 4.846247 -4.357333 -1.483405 0
M  V30 79 H 5.621878 -2.164293 -0.924870 0
M  V30 80 H 6.571147 3.281856 0.358430 0
M  V30 81 H 5.410063 3.506436 1.711060 0
M  V30 82 H 3.850502 4.260198 0.275095 0
M  V30 83 H 4.970700 3.850988 -1.114954 0
M  V30 84 H -2.786265 -4.281508 -3.103179 0
M  V30 85 H -4.954263 1.530889 -4.611076 0
M  V30 86 H -3.322251 1.692350 -3.977125 0
M  V30 87 H -5.364984 3.075710 -2.954587 0
M  V30 88 H -4.033671 2.533631 -1.939333 0
M  V30 89 H -7.608565 -0.209349 0.896367 0
M  V30 END ATOM
M  V30 BEGIN BOND
M  V30 1 1 1 2
M  V30 2 1 2 3
M  V30 3 1 3 4
M  V30 4 2 4 5
M  V30 5 1 4 6
M  V30 6 1 6 7
M  V30 7 1 7 8
M  V30 8 1 8 9
M  V30 9 2 9 10
M  V30 10 1 10 11
M  V30 11 1 11 12
M  V30 12 1 12 13
M  V30 13 1 13 14
M  V30 14 1 14 15
M  V30 15 1 15 16
M  V30 16 2 16 17
M  V30 17 1 17 18
M  V30 18 1 18 19
M  V30 19 2 19 20
M  V30 20 1 19 21
M  V30 21 1 21 22
M  V30 22 2 22 23
M  V30 23 1 23 24
M  V30 24 2 24 25
M  V30 25 1 25 26
M  V30 26 2 26 27
M  V30 27 1 26 28
M  V30 28 2 28 29
M  V30 29 1 29 30
M  V30 30 1 30 31
M  V30 31 1 31 32
M  V30 32 2 31 33
M  V30 33 2 30 34
M  V30 34 1 34 35
M  V30 35 1 35 36
M  V30 36 2 36 37
M  V30 37 1 37 38
M  V30 38 2 38 39
M  V30 39 1 39 40
M  V30 40 1 39 41
M  V30 41 2 41 42
M  V30 42 1 29 43
M  V30 43 1 43 44
M  V30 44 2 18 45
M  V30 45 1 45 46
M  V30 46 1 45 47
M  V30 47 2 47 48
M  V30 48 1 15 49
M  V30 49 1 49 50
M  V30 50 1 10 51
M  V30 51 2 51 52
M  V30 52 1 52 8
M  V30 53 1 50 12
M  V30 54 1 48 16
M  V30 55 1 27 22
M  V30 56 1 35 28
M  V30 57 1 42 36
M  V30 58 1 44 25
M  V30 59 1 1 53
M  V30 60 1 1 54
M  V30 61 1 1 55
M  V30 62 1 2 56
M  V30 63 1 2 57
M  V30 64 1 6 58
M  V30 65 1 6 59
M  V30 66 1 7 60
M  V30 67 1 7 61
M  V30 68 1 9 62
M  V30 69 1 11 63
M  V30 70 1 11 64
M  V30 71 1 13 65
M  V30 72 1 13 66
M  V30 73 1 14 67
M  V30 74 1 14 68
M  V30 75 1 17 69
M  V30 76 1 21 70
M  V30 77 1 23 71
M  V30 78 1 24 72
M  V30 79 1 27 73
M  V30 80 1 32 74
M  V30 81 1 32 75
M  V30 82 1 37 76
M  V30 83 1 38 77
M  V30 84 1 41 78
M  V30 85 1 42 79
M  V30 86 1 43 80
M  V30 87 1 43 81
M  V30 88 1 44 82
M  V30 89 1 44 83
M  V30 90 1 47 84
M  V30 91 1 49 85
M  V30 92 1 49 86
M  V30 93 1 50 87
M  V30 94 1 50 88
M  V30 95 1 51 89
M  V30 END BOND
M  V30 END CTAB
M  END
>  <Dataset>  (340) 
ChEMBL_Kinases

>  <Ligand_Instance>  (340) 
nan

>  <PDB_ID>  (340) 
nan

>  <Standardized_SMILES>  (340) 
CCOC(=O)CCn1cc(CN2CCN(c3cc(C(=O)Nc4ccc5c(c4)-c4c(c(C(N)=O)nn4-c4ccc(F)cc4)CC5)c(Cl)cn3)CC2)cn1

>  <Name>  (340) 
nan

>  <Pocket>  (340) 
nan

>  <ATP_Site>  (340) 
nan

>  <Peripheral>  (340) 
nan

>  <Num_H_Atoms_ProtBoundConf>  (340) 
nan

>  <Num_Resolved_Atoms>  (340) 
nan

>  <Num_Not_Resolved_Atoms>  (340) 
nan

$$$$
CHEMBL1669597
     RDKit          3D

  0  0  0  0  0  0  0  0  0  0999 V3000
M  V30 BEGIN CTAB
M  V30 COUNTS 90 96 0 0 0
M  V30 BEGIN ATOM
M  V30 1 C -0.741488 -2.878587 5.007635 0
M  V30 2 O -0.994766 -1.747014 5.755538 0
M  V30 3 C -1.107852 -0.569511 5.028685 0
M  V30 4 C 0.154490 -0.235717 4.299240 0
M  V30 5 O 0.101361 0.963123 3.528743 0
M  V30 6 C -0.842741 1.024738 2.529809 0
M  V30 7 O -1.703353 0.140374 2.204893 0
M  V30 8 C -1.563151 1.646778 1.405590 0
M  V30 9 N -2.683028 0.806593 1.036400 0
M  V30 10 C -2.738706 -0.191783 0.144932 0
M  V30 11 C -4.007878 -0.755355 0.058996 0
M  V30 12 C -4.628088 -1.833793 -0.727110 0
M  V30 13 N -5.255861 -1.441362 -1.941657 0
M  V30 14 C -5.907413 -2.562479 -2.606610 0
M  V30 15 C -4.944568 -3.694930 -2.872974 0
M  V30 16 N -3.681312 -3.258178 -3.355440 0
M  V30 17 C -2.423445 -3.905414 -3.328537 0
M  V30 18 C -1.183752 -3.266103 -3.517648 0
M  V30 19 C 0.067178 -3.909722 -3.503343 0
M  V30 20 C 1.061992 -2.831082 -3.723933 0
M  V30 21 O 2.041271 -2.510105 -4.532284 0
M  V30 22 N 1.206820 -1.659930 -2.984082 0
M  V30 23 C 1.433184 -0.451405 -2.306614 0
M  V30 24 C 0.563987 0.475359 -2.955268 0
M  V30 25 C 0.414967 1.817035 -2.539606 0
M  V30 26 C 1.184399 2.120023 -1.466072 0
M  V30 27 C 2.027924 1.264790 -0.822359 0
M  V30 28 C 2.170604 -0.056011 -1.239166 0
M  V30 29 C 2.799148 1.595812 0.360460 0
M  V30 30 C 2.557428 2.921974 0.773743 0
M  V30 31 C 3.332238 3.081929 1.929357 0
M  V30 32 C 3.439254 4.243068 2.854474 0
M  V30 33 N 2.520319 5.317313 2.568687 0
M  V30 34 O 4.321868 4.146408 3.780567 0
M  V30 35 N 3.951132 1.912098 2.114104 0
M  V30 36 N 3.647908 1.022236 1.193861 0
M  V30 37 C 4.198189 -0.279367 1.137933 0
M  V30 38 C 3.834393 -1.501512 1.727270 0
M  V30 39 C 4.664520 -2.572357 1.474651 0
M  V30 40 C 5.794336 -2.553106 0.709896 0
M  V30 41 F 6.481344 -3.700821 0.578130 0
M  V30 42 C 6.105065 -1.364764 0.163389 0
M  V30 43 C 5.358871 -0.175416 0.327808 0
M  V30 44 C 1.736938 3.956003 0.149108 0
M  V30 45 C 0.941150 3.523141 -1.031177 0
M  V30 46 C 0.092192 -5.260939 -3.289401 0
M  V30 47 Cl 1.726099 -5.831169 -3.324086 0
M  V30 48 C -1.120514 -5.876213 -3.107352 0
M  V30 49 N -2.269033 -5.215387 -3.131900 0
M  V30 50 C -3.900647 -1.952812 -3.938677 0
M  V30 51 C -4.279701 -0.928320 -2.870936 0
M  V30 52 C -4.720183 0.005581 0.992948 0
M  V30 53 N -3.899226 0.888501 1.522098 0
M  V30 54 H 0.174931 -2.879925 4.423920 0
M  V30 55 H -1.591434 -3.059849 4.321834 0
M  V30 56 H -0.716914 -3.769152 5.693155 0
M  V30 57 H -2.012232 -0.625131 4.369946 0
M  V30 58 H -1.287245 0.247524 5.783016 0
M  V30 59 H 0.943335 -0.105128 5.082197 0
M  V30 60 H 0.444201 -1.072751 3.609279 0
M  V30 61 H -1.912887 2.645925 1.723439 0
M  V30 62 H -0.885163 1.786732 0.521312 0
M  V30 63 H -1.918442 -0.571967 -0.472850 0
M  V30 64 H -5.447452 -2.285140 -0.088945 0
M  V30 65 H -3.881825 -2.667491 -0.884190 0
M  V30 66 H -6.299837 -2.210080 -3.575889 0
M  V30 67 H -6.754575 -2.947786 -2.034035 0
M  V30 68 H -5.369315 -4.452969 -3.560272 0
M  V30 69 H -4.767176 -4.279062 -1.917042 0
M  V30 70 H -1.347577 -2.192378 -3.666130 0
M  V30 71 H 0.465233 -1.925514 -2.203046 0
M  V30 72 H -0.063114 0.247675 -3.829706 0
M  V30 73 H -0.241299 2.481751 -3.049492 0
M  V30 74 H 2.789029 -0.822883 -0.836561 0
M  V30 75 H 1.723108 4.810621 3.028692 0
M  V30 76 H 3.362586 5.789949 2.112674 0
M  V30 77 H 2.932644 -1.313551 2.281939 0
M  V30 78 H 4.254028 -3.449861 2.000413 0
M  V30 79 H 7.014122 -1.295899 -0.451728 0
M  V30 80 H 5.760952 0.688915 -0.185903 0
M  V30 81 H 1.067624 4.478720 0.872418 0
M  V30 82 H 2.438680 4.764707 -0.185795 0
M  V30 83 H -0.147580 3.612922 -0.781347 0
M  V30 84 H 1.144829 4.165047 -1.917068 0
M  V30 85 H -0.956689 -6.934544 -2.954029 0
M  V30 86 H -4.689391 -1.979198 -4.723832 0
M  V30 87 H -2.986178 -1.548275 -4.463448 0
M  V30 88 H -3.362845 -0.646060 -2.327905 0
M  V30 89 H -4.637758 0.013993 -3.352526 0
M  V30 90 H -5.765986 0.002821 1.344307 0
M  V30 END ATOM
M  V30 BEGIN BOND
M  V30 1 1 1 2
M  V30 2 1 2 3
M  V30 3 1 3 4
M  V30 4 1 4 5
M  V30 5 1 5 6
M  V30 6 2 6 7
M  V30 7 1 6 8
M  V30 8 1 8 9
M  V30 9 1 9 10
M  V30 10 2 10 11
M  V30 11 1 11 12
M  V30 12 1 12 13
M  V30 13 1 13 14
M  V30 14 1 14 15
M  V30 15 1 15 16
M  V30 16 1 16 17
M  V30 17 2 17 18
M  V30 18 1 18 19
M  V30 19 1 19 20
M  V30 20 2 20 21
M  V30 21 1 20 22
M  V30 22 1 22 23
M  V30 23 2 23 24
M  V30 24 1 24 25
M  V30 25 2 25 26
M  V30 26 1 26 27
M  V30 27 2 27 28
M  V30 28 1 27 29
M  V30 29 2 29 30
M  V30 30 1 30 31
M  V30 31 1 31 32
M  V30 32 1 32 33
M  V30 33 2 32 34
M  V30 34 2 31 35
M  V30 35 1 35 36
M  V30 36 1 36 37
M  V30 37 2 37 38
M  V30 38 1 38 39
M  V30 39 2 39 40
M  V30 40 1 40 41
M  V30 41 1 40 42
M  V30 42 2 42 43
M  V30 43 1 30 44
M  V30 44 1 44 45
M  V30 45 2 19 46
M  V30 46 1 46 47
M  V30 47 1 46 48
M  V30 48 2 48 49
M  V30 49 1 16 50
M  V30 50 1 50 51
M  V30 51 1 11 52
M  V30 52 2 52 53
M  V30 53 1 53 9
M  V30 54 1 51 13
M  V30 55 1 49 17
M  V30 56 1 28 23
M  V30 57 1 36 29
M  V30 58 1 43 37
M  V30 59 1 45 26
M  V30 60 1 1 54
M  V30 61 1 1 55
M  V30 62 1 1 56
M  V30 63 1 3 57
M  V30 64 1 3 58
M  V30 65 1 4 59
M  V30 66 1 4 60
M  V30 67 1 8 61
M  V30 68 1 8 62
M  V30 69 1 10 63
M  V30 70 1 12 64
M  V30 71 1 12 65
M  V30 72 1 14 66
M  V30 73 1 14 67
M  V30 74 1 15 68
M  V30 75 1 15 69
M  V30 76 1 18 70
M  V30 77 1 22 71
M  V30 78 1 24 72
M  V30 79 1 25 73
M  V30 80 1 28 74
M  V30 81 1 33 75
M  V30 82 1 33 76
M  V30 83 1 38 77
M  V30 84 1 39 78
M  V30 85 1 42 79
M  V30 86 1 43 80
M  V30 87 1 44 81
M  V30 88 1 44 82
M  V30 89 1 45 83
M  V30 90 1 45 84
M  V30 91 1 48 85
M  V30 92 1 50 86
M  V30 93 1 50 87
M  V30 94 1 51 88
M  V30 95 1 51 89
M  V30 96 1 52 90
M  V30 END BOND
M  V30 END CTAB
M  END
>  <Dataset>  (341) 
ChEMBL_Kinases

>  <Ligand_Instance>  (341) 
nan

>  <PDB_ID>  (341) 
nan

>  <Standardized_SMILES>  (341) 
COCCOC(=O)Cn1cc(CN2CCN(c3cc(C(=O)Nc4ccc5c(c4)-c4c(c(C(N)=O)nn4-c4ccc(F)cc4)CC5)c(Cl)cn3)CC2)cn1

>  <Name>  (341) 
nan

>  <Pocket>  (341) 
nan

>  <ATP_Site>  (341) 
nan

>  <Peripheral>  (341) 
nan

>  <Num_H_Atoms_ProtBoundConf>  (341) 
nan

>  <Num_Resolved_Atoms>  (341) 
nan

>  <Num_Not_Resolved_Atoms>  (341) 
nan

$$$$
CHEMBL1669596
     RDKit          3D

  0  0  0  0  0  0  0  0  0  0999 V3000
M  V30 BEGIN CTAB
M  V30 COUNTS 83 89 0 0 0
M  V30 BEGIN ATOM
M  V30 1 C 4.662468 -3.988881 0.866636 0
M  V30 2 O 4.924777 -2.875983 0.071250 0
M  V30 3 C 4.409329 -2.631130 -1.185732 0
M  V30 4 O 3.714879 -3.665592 -1.264042 0
M  V30 5 C 4.823187 -1.416214 -1.846247 0
M  V30 6 N 4.167769 -0.186309 -1.760611 0
M  V30 7 C 3.165936 0.419355 -2.516180 0
M  V30 8 C 2.925746 1.761710 -2.150695 0
M  V30 9 C 1.942398 2.643776 -2.817860 0
M  V30 10 N 0.769885 3.045064 -2.047803 0
M  V30 11 C -0.268978 3.393191 -3.034490 0
M  V30 12 C -1.450503 4.028661 -2.336594 0
M  V30 13 N -1.340677 4.153145 -0.917545 0
M  V30 14 C -2.397174 3.748137 -0.044117 0
M  V30 15 C -2.224807 3.256378 1.252927 0
M  V30 16 C -3.219845 2.747116 2.214349 0
M  V30 17 C -2.247188 2.334516 3.344882 0
M  V30 18 O -1.643872 2.326207 4.409664 0
M  V30 19 N -1.474492 1.135379 2.885572 0
M  V30 20 C -0.708998 -0.052291 2.430929 0
M  V30 21 C 0.128288 0.753838 1.656379 0
M  V30 22 C 0.704699 0.149106 0.502545 0
M  V30 23 C 0.294992 -1.154801 0.390992 0
M  V30 24 C -0.524811 -1.879235 1.217757 0
M  V30 25 C -1.130139 -1.335530 2.392955 0
M  V30 26 C -1.051873 -3.100363 0.675686 0
M  V30 27 C -0.922315 -3.662224 -0.552387 0
M  V30 28 C -1.321442 -4.934327 -0.585077 0
M  V30 29 C -1.348576 -5.690113 -1.862806 0
M  V30 30 N -1.735584 -4.918493 -3.036919 0
M  V30 31 O -1.119145 -6.867576 -2.133801 0
M  V30 32 N -1.725892 -5.195755 0.701961 0
M  V30 33 N -1.559803 -4.092434 1.442538 0
M  V30 34 C -1.867653 -4.405624 2.777685 0
M  V30 35 C -0.594802 -4.676364 3.383842 0
M  V30 36 C -0.396844 -5.111421 4.667514 0
M  V30 37 C -1.523578 -5.314929 5.470034 0
M  V30 38 F -1.466163 -5.747737 6.746781 0
M  V30 39 C -2.745016 -5.053293 4.905550 0
M  V30 40 C -2.909837 -4.610565 3.599763 0
M  V30 41 C -0.361882 -2.648804 -1.479068 0
M  V30 42 C 0.719077 -1.797206 -0.916810 0
M  V30 43 C -4.487833 2.782961 1.737954 0
M  V30 44 Cl -5.392171 2.114098 3.062325 0
M  V30 45 C -4.659039 3.253010 0.474397 0
M  V30 46 N -3.688517 3.693730 -0.332956 0
M  V30 47 C -0.057159 4.692921 -0.523246 0
M  V30 48 C 1.042090 4.401707 -1.493083 0
M  V30 49 C 3.830168 1.920152 -1.136006 0
M  V30 50 N 4.546865 0.796201 -0.915028 0
M  V30 51 H 5.591386 -4.662960 0.892392 0
M  V30 52 H 3.850428 -4.660700 0.529207 0
M  V30 53 H 4.443753 -3.727328 1.943298 0
M  V30 54 H 4.962072 -1.670975 -2.982244 0
M  V30 55 H 5.932070 -1.223247 -1.599422 0
M  V30 56 H 2.661062 -0.175543 -3.309069 0
M  V30 57 H 1.636175 2.206131 -3.822792 0
M  V30 58 H 2.460967 3.589887 -3.124074 0
M  V30 59 H -0.509298 2.470024 -3.574288 0
M  V30 60 H 0.188878 4.146444 -3.700834 0
M  V30 61 H -2.344389 3.371357 -2.597360 0
M  V30 62 H -1.707299 5.020992 -2.807302 0
M  V30 63 H -1.134405 3.345311 1.415629 0
M  V30 64 H -2.311104 0.985289 2.155358 0
M  V30 65 H 0.472178 1.756242 1.765972 0
M  V30 66 H 1.361411 0.568179 -0.203597 0
M  V30 67 H -1.760725 -1.758984 3.086999 0
M  V30 68 H -1.912920 -4.372599 -3.937285 0
M  V30 69 H -2.729288 -4.637630 -2.793759 0
M  V30 70 H 0.410094 -4.588336 2.929923 0
M  V30 71 H 0.527703 -5.331327 5.176047 0
M  V30 72 H -3.688394 -5.180079 5.438912 0
M  V30 73 H -3.798438 -4.389098 3.041814 0
M  V30 74 H -1.189792 -1.951321 -1.826691 0
M  V30 75 H -0.001912 -3.129035 -2.398270 0
M  V30 76 H 0.846626 -0.960874 -1.701515 0
M  V30 77 H 1.649483 -2.299769 -0.852860 0
M  V30 78 H -5.707706 3.189480 0.286935 0
M  V30 79 H 0.316880 4.264478 0.453118 0
M  V30 80 H -0.164013 5.802546 -0.421579 0
M  V30 81 H 2.026477 4.453436 -0.999273 0
M  V30 82 H 0.976514 5.111726 -2.355893 0
M  V30 83 H 3.916038 2.882446 -0.591856 0
M  V30 END ATOM
M  V30 BEGIN BOND
M  V30 1 1 1 2
M  V30 2 1 2 3
M  V30 3 2 3 4
M  V30 4 1 3 5
M  V30 5 1 5 6
M  V30 6 1 6 7
M  V30 7 2 7 8
M  V30 8 1 8 9
M  V30 9 1 9 10
M  V30 10 1 10 11
M  V30 11 1 11 12
M  V30 12 1 12 13
M  V30 13 1 13 14
M  V30 14 2 14 15
M  V30 15 1 15 16
M  V30 16 1 16 17
M  V30 17 2 17 18
M  V30 18 1 17 19
M  V30 19 1 19 20
M  V30 20 2 20 21
M  V30 21 1 21 22
M  V30 22 2 22 23
M  V30 23 1 23 24
M  V30 24 2 24 25
M  V30 25 1 24 26
M  V30 26 2 26 27
M  V30 27 1 27 28
M  V30 28 1 28 29
M  V30 29 1 29 30
M  V30 30 2 29 31
M  V30 31 2 28 32
M  V30 32 1 32 33
M  V30 33 1 33 34
M  V30 34 2 34 35
M  V30 35 1 35 36
M  V30 36 2 36 37
M  V30 37 1 37 38
M  V30 38 1 37 39
M  V30 39 2 39 40
M  V30 40 1 27 41
M  V30 41 1 41 42
M  V30 42 2 16 43
M  V30 43 1 43 44
M  V30 44 1 43 45
M  V30 45 2 45 46
M  V30 46 1 13 47
M  V30 47 1 47 48
M  V30 48 1 8 49
M  V30 49 2 49 50
M  V30 50 1 50 6
M  V30 51 1 48 10
M  V30 52 1 46 14
M  V30 53 1 25 20
M  V30 54 1 33 26
M  V30 55 1 40 34
M  V30 56 1 42 23
M  V30 57 1 1 51
M  V30 58 1 1 52
M  V30 59 1 1 53
M  V30 60 1 5 54
M  V30 61 1 5 55
M  V30 62 1 7 56
M  V30 63 1 9 57
M  V30 64 1 9 58
M  V30 65 1 11 59
M  V30 66 1 11 60
M  V30 67 1 12 61
M  V30 68 1 12 62
M  V30 69 1 15 63
M  V30 70 1 19 64
M  V30 71 1 21 65
M  V30 72 1 22 66
M  V30 73 1 25 67
M  V30 74 1 30 68
M  V30 75 1 30 69
M  V30 76 1 35 70
M  V30 77 1 36 71
M  V30 78 1 39 72
M  V30 79 1 40 73
M  V30 80 1 41 74
M  V30 81 1 41 75
M  V30 82 1 42 76
M  V30 83 1 42 77
M  V30 84 1 45 78
M  V30 85 1 47 79
M  V30 86 1 47 80
M  V30 87 1 48 81
M  V30 88 1 48 82
M  V30 89 1 49 83
M  V30 END BOND
M  V30 END CTAB
M  END
>  <Dataset>  (342) 
ChEMBL_Kinases

>  <Ligand_Instance>  (342) 
nan

>  <PDB_ID>  (342) 
nan

>  <Standardized_SMILES>  (342) 
COC(=O)Cn1cc(CN2CCN(c3cc(C(=O)Nc4ccc5c(c4)-c4c(c(C(N)=O)nn4-c4ccc(F)cc4)CC5)c(Cl)cn3)CC2)cn1

>  <Name>  (342) 
nan

>  <Pocket>  (342) 
nan

>  <ATP_Site>  (342) 
nan

>  <Peripheral>  (342) 
nan

>  <Num_H_Atoms_ProtBoundConf>  (342) 
nan

>  <Num_Resolved_Atoms>  (342) 
nan

>  <Num_Not_Resolved_Atoms>  (342) 
nan

$$$$
CHEMBL1669559
     RDKit          3D

  0  0  0  0  0  0  0  0  0  0999 V3000
M  V30 BEGIN CTAB
M  V30 COUNTS 68 73 0 0 0
M  V30 BEGIN ATOM
M  V30 1 C 2.057353 -5.549930 6.297158 0
M  V30 2 N 1.846696 -4.316696 5.580152 0
M  V30 3 C 2.775959 -3.331892 6.035225 0
M  V30 4 C 3.752046 -2.953340 4.939293 0
M  V30 5 N 3.051136 -2.424875 3.792332 0
M  V30 6 C 3.303289 -1.194144 3.131275 0
M  V30 7 C 2.615213 -0.752089 2.047976 0
M  V30 8 C 3.002864 0.471227 1.541262 0
M  V30 9 C 2.327359 1.037206 0.378728 0
M  V30 10 O 2.812543 1.309084 -0.760008 0
M  V30 11 N 0.961573 1.304316 0.580753 0
M  V30 12 C -0.120375 1.831187 -0.175133 0
M  V30 13 C -0.313168 3.217996 -0.105658 0
M  V30 14 C -1.354373 3.822881 -0.818069 0
M  V30 15 C -2.193433 3.040890 -1.592826 0
M  V30 16 C -1.973639 1.682258 -1.637055 0
M  V30 17 C -0.962791 1.080143 -0.947661 0
M  V30 18 C -2.865347 0.897963 -2.452760 0
M  V30 19 C -3.860259 1.579697 -3.116692 0
M  V30 20 C -4.560596 0.617003 -3.812322 0
M  V30 21 C -5.718185 0.744576 -4.690191 0
M  V30 22 N -6.263100 2.041120 -4.907580 0
M  V30 23 O -6.337055 -0.176859 -5.316310 0
M  V30 24 N -3.959595 -0.574166 -3.534731 0
M  V30 25 N -2.933467 -0.393097 -2.710071 0
M  V30 26 C -2.155698 -1.499295 -2.283291 0
M  V30 27 C -2.291888 -2.348729 -1.177768 0
M  V30 28 C -1.397722 -3.355109 -1.006480 0
M  V30 29 C -0.350289 -3.590303 -1.870894 0
M  V30 30 O 0.537760 -4.634003 -1.650982 0
M  V30 31 C -0.195403 -2.760389 -2.974493 0
M  V30 32 Cl 1.144415 -3.092836 -4.044744 0
M  V30 33 C -1.093600 -1.731356 -3.166957 0
M  V30 34 C -4.151614 3.028457 -3.113774 0
M  V30 35 C -3.232296 3.845148 -2.271710 0
M  V30 36 C 4.029592 1.250244 2.066057 0
M  V30 37 Cl 4.469547 2.794300 1.372870 0
M  V30 38 C 4.677341 0.712097 3.178236 0
M  V30 39 N 4.307382 -0.478950 3.679924 0
M  V30 40 C 2.002306 -3.303731 3.338683 0
M  V30 41 C 1.948201 -4.579681 4.152407 0
M  V30 42 H 2.965135 -6.028067 5.896265 0
M  V30 43 H 2.150075 -5.327375 7.377365 0
M  V30 44 H 1.147998 -6.186488 6.180862 0
M  V30 45 H 3.334112 -3.719845 6.894137 0
M  V30 46 H 2.223020 -2.415659 6.320961 0
M  V30 47 H 4.463810 -2.228681 5.365576 0
M  V30 48 H 4.364546 -3.839453 4.632785 0
M  V30 49 H 1.819591 -1.340621 1.629850 0
M  V30 50 H 0.423657 1.128355 1.476340 0
M  V30 51 H 0.356571 3.817474 0.509026 0
M  V30 52 H -1.415751 4.897693 -0.695638 0
M  V30 53 H -0.748100 0.049943 -0.943970 0
M  V30 54 H -6.872261 2.799232 -4.495812 0
M  V30 55 H -6.499387 2.961688 -5.341189 0
M  V30 56 H -3.139265 -2.062051 -0.587163 0
M  V30 57 H -1.554657 -3.969503 -0.143789 0
M  V30 58 H 1.082045 -5.027549 -2.419796 0
M  V30 59 H -0.866663 -1.155930 -4.061038 0
M  V30 60 H -4.086686 3.397823 -4.162819 0
M  V30 61 H -5.205963 3.233651 -2.795753 0
M  V30 62 H -3.841098 4.396234 -1.494884 0
M  V30 63 H -2.748801 4.664431 -2.848619 0
M  V30 64 H 5.472096 1.288420 3.604778 0
M  V30 65 H 1.010058 -2.808585 3.502079 0
M  V30 66 H 2.130553 -3.617054 2.282784 0
M  V30 67 H 1.042035 -5.161052 3.892126 0
M  V30 68 H 2.837424 -5.194216 3.986130 0
M  V30 END ATOM
M  V30 BEGIN BOND
M  V30 1 1 1 2
M  V30 2 1 2 3
M  V30 3 1 3 4
M  V30 4 1 4 5
M  V30 5 1 5 6
M  V30 6 2 6 7
M  V30 7 1 7 8
M  V30 8 1 8 9
M  V30 9 2 9 10
M  V30 10 1 9 11
M  V30 11 1 11 12
M  V30 12 2 12 13
M  V30 13 1 13 14
M  V30 14 2 14 15
M  V30 15 1 15 16
M  V30 16 2 16 17
M  V30 17 1 16 18
M  V30 18 2 18 19
M  V30 19 1 19 20
M  V30 20 1 20 21
M  V30 21 1 21 22
M  V30 22 2 21 23
M  V30 23 2 20 24
M  V30 24 1 24 25
M  V30 25 1 25 26
M  V30 26 2 26 27
M  V30 27 1 27 28
M  V30 28 2 28 29
M  V30 29 1 29 30
M  V30 30 1 29 31
M  V30 31 1 31 32
M  V30 32 2 31 33
M  V30 33 1 19 34
M  V30 34 1 34 35
M  V30 35 2 8 36
M  V30 36 1 36 37
M  V30 37 1 36 38
M  V30 38 2 38 39
M  V30 39 1 5 40
M  V30 40 1 40 41
M  V30 41 1 41 2
M  V30 42 1 39 6
M  V30 43 1 17 12
M  V30 44 1 25 18
M  V30 45 1 33 26
M  V30 46 1 35 15
M  V30 47 1 1 42
M  V30 48 1 1 43
M  V30 49 1 1 44
M  V30 50 1 3 45
M  V30 51 1 3 46
M  V30 52 1 4 47
M  V30 53 1 4 48
M  V30 54 1 7 49
M  V30 55 1 11 50
M  V30 56 1 13 51
M  V30 57 1 14 52
M  V30 58 1 17 53
M  V30 59 1 22 54
M  V30 60 1 22 55
M  V30 61 1 27 56
M  V30 62 1 28 57
M  V30 63 1 30 58
M  V30 64 1 33 59
M  V30 65 1 34 60
M  V30 66 1 34 61
M  V30 67 1 35 62
M  V30 68 1 35 63
M  V30 69 1 38 64
M  V30 70 1 40 65
M  V30 71 1 40 66
M  V30 72 1 41 67
M  V30 73 1 41 68
M  V30 END BOND
M  V30 END CTAB
M  END
>  <Dataset>  (343) 
ChEMBL_Kinases

>  <Ligand_Instance>  (343) 
nan

>  <PDB_ID>  (343) 
nan

>  <Standardized_SMILES>  (343) 
CN1CCN(c2cc(C(=O)Nc3ccc4c(c3)-c3c(c(C(N)=O)nn3-c3ccc(O)c(Cl)c3)CC4)c(Cl)cn2)CC1

>  <Name>  (343) 
nan

>  <Pocket>  (343) 
nan

>  <ATP_Site>  (343) 
nan

>  <Peripheral>  (343) 
nan

>  <Num_H_Atoms_ProtBoundConf>  (343) 
nan

>  <Num_Resolved_Atoms>  (343) 
nan

>  <Num_Not_Resolved_Atoms>  (343) 
nan

$$$$
CHEMBL1669560
     RDKit          3D

  0  0  0  0  0  0  0  0  0  0999 V3000
M  V30 BEGIN CTAB
M  V30 COUNTS 68 73 0 0 0
M  V30 BEGIN ATOM
M  V30 1 C 2.222919 -5.501825 5.173529 0
M  V30 2 N 1.311372 -4.403598 5.097517 0
M  V30 3 C 1.771808 -3.285726 5.866084 0
M  V30 4 C 3.039426 -2.758695 5.226735 0
M  V30 5 N 2.771597 -2.300917 3.856825 0
M  V30 6 C 3.032530 -0.972092 3.420026 0
M  V30 7 C 2.679008 -0.370124 2.235775 0
M  V30 8 C 3.032637 0.941654 1.972163 0
M  V30 9 C 2.548639 1.395065 0.644313 0
M  V30 10 O 3.256366 1.647969 -0.383334 0
M  V30 11 N 1.133467 1.541468 0.589720 0
M  V30 12 C 0.023216 1.895014 -0.230080 0
M  V30 13 C -0.247330 3.265673 -0.225746 0
M  V30 14 C -1.312058 3.807535 -0.967796 0
M  V30 15 C -2.047899 2.884628 -1.682361 0
M  V30 16 C -1.789274 1.536240 -1.691558 0
M  V30 17 C -0.746624 1.020311 -0.963770 0
M  V30 18 C -2.637020 0.641412 -2.451613 0
M  V30 19 C -3.684080 1.211426 -3.139759 0
M  V30 20 C -4.300242 0.146115 -3.752510 0
M  V30 21 C -5.476149 0.110626 -4.622051 0
M  V30 22 N -6.124415 1.361867 -4.911776 0
M  V30 23 O -6.065660 -0.837016 -5.196532 0
M  V30 24 N -3.617056 -0.963912 -3.413030 0
M  V30 25 N -2.593842 -0.684549 -2.616529 0
M  V30 26 C -1.749717 -1.688364 -2.141203 0
M  V30 27 C -1.968917 -2.400958 -0.953566 0
M  V30 28 C -1.116342 -3.396906 -0.530606 0
M  V30 29 C -0.004181 -3.718838 -1.286099 0
M  V30 30 Cl 1.089817 -4.983859 -0.764367 0
M  V30 31 C 0.237384 -3.024678 -2.472145 0
M  V30 32 O 1.375557 -3.381105 -3.209495 0
M  V30 33 C -0.622887 -2.011478 -2.910039 0
M  V30 34 C -4.041447 2.627014 -3.187240 0
M  V30 35 C -3.145381 3.553845 -2.449244 0
M  V30 36 C 3.749565 1.699190 2.875598 0
M  V30 37 Cl 4.128984 3.339757 2.412174 0
M  V30 38 C 4.092152 1.060765 4.065664 0
M  V30 39 N 3.730544 -0.209465 4.282572 0
M  V30 40 C 2.230124 -3.372641 3.046322 0
M  V30 41 C 1.063619 -4.077153 3.718430 0
M  V30 42 H 2.663648 -5.604175 6.202926 0
M  V30 43 H 1.729513 -6.470019 4.899482 0
M  V30 44 H 3.078659 -5.420228 4.458578 0
M  V30 45 H 1.980125 -3.588256 6.890643 0
M  V30 46 H 1.038838 -2.456785 5.880259 0
M  V30 47 H 3.411895 -1.877621 5.808953 0
M  V30 48 H 3.860065 -3.500215 5.235765 0
M  V30 49 H 2.113548 -1.010705 1.553992 0
M  V30 50 H 0.532661 1.331238 1.446926 0
M  V30 51 H 0.365507 3.973571 0.359239 0
M  V30 52 H -1.465831 4.859331 -0.923959 0
M  V30 53 H -0.447700 0.016140 -0.889832 0
M  V30 54 H -6.510800 2.084734 -5.553691 0
M  V30 55 H -6.590595 2.262578 -5.101975 0
M  V30 56 H -2.851193 -2.123715 -0.384455 0
M  V30 57 H -1.313209 -3.933774 0.395533 0
M  V30 58 H 1.844794 -2.723745 -3.823545 0
M  V30 59 H -0.340374 -1.544903 -3.835498 0
M  V30 60 H -4.095949 2.963024 -4.260978 0
M  V30 61 H -5.111502 2.725658 -2.834777 0
M  V30 62 H -3.756505 4.113704 -1.698770 0
M  V30 63 H -2.732067 4.355324 -3.106428 0
M  V30 64 H 4.653580 1.674837 4.757826 0
M  V30 65 H 1.820023 -2.936426 2.114051 0
M  V30 66 H 3.047483 -4.106924 2.809093 0
M  V30 67 H 0.124085 -3.516671 3.600007 0
M  V30 68 H 0.903868 -5.070515 3.204403 0
M  V30 END ATOM
M  V30 BEGIN BOND
M  V30 1 1 1 2
M  V30 2 1 2 3
M  V30 3 1 3 4
M  V30 4 1 4 5
M  V30 5 1 5 6
M  V30 6 2 6 7
M  V30 7 1 7 8
M  V30 8 1 8 9
M  V30 9 2 9 10
M  V30 10 1 9 11
M  V30 11 1 11 12
M  V30 12 2 12 13
M  V30 13 1 13 14
M  V30 14 2 14 15
M  V30 15 1 15 16
M  V30 16 2 16 17
M  V30 17 1 16 18
M  V30 18 2 18 19
M  V30 19 1 19 20
M  V30 20 1 20 21
M  V30 21 1 21 22
M  V30 22 2 21 23
M  V30 23 2 20 24
M  V30 24 1 24 25
M  V30 25 1 25 26
M  V30 26 2 26 27
M  V30 27 1 27 28
M  V30 28 2 28 29
M  V30 29 1 29 30
M  V30 30 1 29 31
M  V30 31 1 31 32
M  V30 32 2 31 33
M  V30 33 1 19 34
M  V30 34 1 34 35
M  V30 35 2 8 36
M  V30 36 1 36 37
M  V30 37 1 36 38
M  V30 38 2 38 39
M  V30 39 1 5 40
M  V30 40 1 40 41
M  V30 41 1 41 2
M  V30 42 1 39 6
M  V30 43 1 17 12
M  V30 44 1 25 18
M  V30 45 1 33 26
M  V30 46 1 35 15
M  V30 47 1 1 42
M  V30 48 1 1 43
M  V30 49 1 1 44
M  V30 50 1 3 45
M  V30 51 1 3 46
M  V30 52 1 4 47
M  V30 53 1 4 48
M  V30 54 1 7 49
M  V30 55 1 11 50
M  V30 56 1 13 51
M  V30 57 1 14 52
M  V30 58 1 17 53
M  V30 59 1 22 54
M  V30 60 1 22 55
M  V30 61 1 27 56
M  V30 62 1 28 57
M  V30 63 1 32 58
M  V30 64 1 33 59
M  V30 65 1 34 60
M  V30 66 1 34 61
M  V30 67 1 35 62
M  V30 68 1 35 63
M  V30 69 1 38 64
M  V30 70 1 40 65
M  V30 71 1 40 66
M  V30 72 1 41 67
M  V30 73 1 41 68
M  V30 END BOND
M  V30 END CTAB
M  END
>  <Dataset>  (344) 
ChEMBL_Kinases

>  <Ligand_Instance>  (344) 
nan

>  <PDB_ID>  (344) 
nan

>  <Standardized_SMILES>  (344) 
CN1CCN(c2cc(C(=O)Nc3ccc4c(c3)-c3c(c(C(N)=O)nn3-c3ccc(Cl)c(O)c3)CC4)c(Cl)cn2)CC1

>  <Name>  (344) 
nan

>  <Pocket>  (344) 
nan

>  <ATP_Site>  (344) 
nan

>  <Peripheral>  (344) 
nan

>  <Num_H_Atoms_ProtBoundConf>  (344) 
nan

>  <Num_Resolved_Atoms>  (344) 
nan

>  <Num_Not_Resolved_Atoms>  (344) 
nan

$$$$
CHEMBL1669561
     RDKit          3D

  0  0  0  0  0  0  0  0  0  0999 V3000
M  V30 BEGIN CTAB
M  V30 COUNTS 71 76 0 0 0
M  V30 BEGIN ATOM
M  V30 1 C 5.794727 -0.978128 1.271529 0
M  V30 2 O 4.748436 -0.998905 0.285136 0
M  V30 3 C 3.458828 -1.364588 0.721249 0
M  V30 4 C 3.408110 -1.619676 2.099161 0
M  V30 5 C 2.184750 -1.980998 2.575262 0
M  V30 6 C 0.919431 -2.158519 1.948625 0
M  V30 7 N -0.210243 -2.505326 2.647903 0
M  V30 8 N -0.538942 -3.779965 2.868467 0
M  V30 9 C -1.680406 -3.793017 3.574258 0
M  V30 10 C -2.540120 -4.801710 4.088590 0
M  V30 11 N -3.408506 -5.721282 4.607566 0
M  V30 12 O -1.796020 -5.824227 3.648351 0
M  V30 13 C -2.116799 -2.470105 3.826053 0
M  V30 14 C -1.137125 -1.724053 3.209001 0
M  V30 15 C -1.227230 -0.289520 3.309933 0
M  V30 16 C -0.438438 0.623440 2.635222 0
M  V30 17 C -0.608531 2.023930 2.629200 0
M  V30 18 N 0.349327 2.653034 1.803181 0
M  V30 19 C -0.356706 2.577935 0.526328 0
M  V30 20 O -1.495097 2.005934 0.831202 0
M  V30 21 C -0.298217 2.866732 -0.896446 0
M  V30 22 C -0.276666 1.689984 -1.602285 0
M  V30 23 C -0.231957 1.633063 -3.009989 0
M  V30 24 N -0.243495 0.398485 -3.727810 0
M  V30 25 C 0.086532 0.353075 -5.141314 0
M  V30 26 C -0.162831 -0.958444 -5.808986 0
M  V30 27 N -0.271619 -2.045566 -4.881750 0
M  V30 28 C -0.580052 -3.260036 -5.614650 0
M  V30 29 C -1.271120 -1.753953 -3.887920 0
M  V30 30 C -0.638819 -0.758489 -2.909416 0
M  V30 31 N -0.212170 2.834251 -3.592430 0
M  V30 32 C -0.232714 3.975806 -2.907303 0
M  V30 33 C -0.276111 4.077905 -1.544615 0
M  V30 34 Cl -0.301626 5.467507 -0.501460 0
M  V30 35 C -1.656662 2.518064 3.366045 0
M  V30 36 C -2.482216 1.678638 4.067983 0
M  V30 37 C -2.216698 0.362310 3.996805 0
M  V30 38 C -3.134254 -0.441910 4.842758 0
M  V30 39 C -3.300642 -1.872022 4.489450 0
M  V30 40 C 1.179380 -1.858027 0.582517 0
M  V30 41 C 2.316319 -1.492716 -0.022914 0
M  V30 42 H 5.574822 -0.322599 2.121280 0
M  V30 43 H 6.763612 -0.789601 0.808157 0
M  V30 44 H 5.795306 -2.029145 1.711506 0
M  V30 45 H 4.203264 -1.575293 2.862685 0
M  V30 46 H 2.123428 -2.186383 3.665423 0
M  V30 47 H -3.998875 -4.901436 4.255526 0
M  V30 48 H -3.391400 -6.641030 5.068109 0
M  V30 49 H 0.381211 0.217669 2.078768 0
M  V30 50 H 1.215849 3.127778 1.532600 0
M  V30 51 H -0.278067 0.700803 -1.142665 0
M  V30 52 H 1.141940 0.670246 -5.286878 0
M  V30 53 H -0.529679 1.114770 -5.700217 0
M  V30 54 H -1.113245 -0.979579 -6.420707 0
M  V30 55 H 0.671855 -1.221432 -6.533102 0
M  V30 56 H -0.097449 -3.242021 -6.629736 0
M  V30 57 H -1.678404 -3.355511 -5.769920 0
M  V30 58 H -0.161326 -4.143363 -5.114569 0
M  V30 59 H -1.576881 -2.647710 -3.296676 0
M  V30 60 H -2.205630 -1.317929 -4.305686 0
M  V30 61 H -1.447515 -0.467271 -2.215204 0
M  V30 62 H 0.209483 -1.175125 -2.366281 0
M  V30 63 H -0.217227 4.960175 -3.387512 0
M  V30 64 H -1.688383 3.609586 3.304819 0
M  V30 65 H -3.273984 2.141865 4.623700 0
M  V30 66 H -4.134744 0.047862 4.986318 0
M  V30 67 H -2.693067 -0.423233 5.887067 0
M  V30 68 H -3.537179 -2.433693 5.424710 0
M  V30 69 H -4.196903 -1.909723 3.787975 0
M  V30 70 H 0.264852 -1.961923 -0.021473 0
M  V30 71 H 2.407802 -1.285095 -1.060908 0
M  V30 END ATOM
M  V30 BEGIN BOND
M  V30 1 1 1 2
M  V30 2 1 2 3
M  V30 3 2 3 4
M  V30 4 1 4 5
M  V30 5 2 5 6
M  V30 6 1 6 7
M  V30 7 1 7 8
M  V30 8 2 8 9
M  V30 9 1 9 10
M  V30 10 1 10 11
M  V30 11 2 10 12
M  V30 12 1 9 13
M  V30 13 2 13 14
M  V30 14 1 14 15
M  V30 15 2 15 16
M  V30 16 1 16 17
M  V30 17 1 17 18
M  V30 18 1 18 19
M  V30 19 2 19 20
M  V30 20 1 19 21
M  V30 21 2 21 22
M  V30 22 1 22 23
M  V30 23 1 23 24
M  V30 24 1 24 25
M  V30 25 1 25 26
M  V30 26 1 26 27
M  V30 27 1 27 28
M  V30 28 1 27 29
M  V30 29 1 29 30
M  V30 30 2 23 31
M  V30 31 1 31 32
M  V30 32 2 32 33
M  V30 33 1 33 34
M  V30 34 2 17 35
M  V30 35 1 35 36
M  V30 36 2 36 37
M  V30 37 1 37 38
M  V30 38 1 38 39
M  V30 39 1 6 40
M  V30 40 2 40 41
M  V30 41 1 41 3
M  V30 42 1 14 7
M  V30 43 1 37 15
M  V30 44 1 39 13
M  V30 45 1 33 21
M  V30 46 1 30 24
M  V30 47 1 1 42
M  V30 48 1 1 43
M  V30 49 1 1 44
M  V30 50 1 4 45
M  V30 51 1 5 46
M  V30 52 1 11 47
M  V30 53 1 11 48
M  V30 54 1 16 49
M  V30 55 1 18 50
M  V30 56 1 22 51
M  V30 57 1 25 52
M  V30 58 1 25 53
M  V30 59 1 26 54
M  V30 60 1 26 55
M  V30 61 1 28 56
M  V30 62 1 28 57
M  V30 63 1 28 58
M  V30 64 1 29 59
M  V30 65 1 29 60
M  V30 66 1 30 61
M  V30 67 1 30 62
M  V30 68 1 32 63
M  V30 69 1 35 64
M  V30 70 1 36 65
M  V30 71 1 38 66
M  V30 72 1 38 67
M  V30 73 1 39 68
M  V30 74 1 39 69
M  V30 75 1 40 70
M  V30 76 1 41 71
M  V30 END BOND
M  V30 END CTAB
M  END
>  <Dataset>  (345) 
ChEMBL_Kinases

>  <Ligand_Instance>  (345) 
nan

>  <PDB_ID>  (345) 
nan

>  <Standardized_SMILES>  (345) 
COc1ccc(-n2nc(C(N)=O)c3c2-c2cc(NC(=O)c4cc(N5CCN(C)CC5)ncc4Cl)ccc2CC3)cc1

>  <Name>  (345) 
nan

>  <Pocket>  (345) 
nan

>  <ATP_Site>  (345) 
nan

>  <Peripheral>  (345) 
nan

>  <Num_H_Atoms_ProtBoundConf>  (345) 
nan

>  <Num_Resolved_Atoms>  (345) 
nan

>  <Num_Not_Resolved_Atoms>  (345) 
nan

$$$$
CHEMBL1669562
     RDKit          3D

  0  0  0  0  0  0  0  0  0  0999 V3000
M  V30 BEGIN CTAB
M  V30 COUNTS 66 71 0 0 0
M  V30 BEGIN ATOM
M  V30 1 N 5.578732 2.173040 6.819912 0
M  V30 2 C 4.176133 2.081852 7.016715 0
M  V30 3 O 3.676913 2.406423 8.136148 0
M  V30 4 C 3.267587 1.624260 5.973187 0
M  V30 5 N 1.935888 1.521655 6.122260 0
M  V30 6 N 1.351119 1.082273 5.021480 0
M  V30 7 C -0.051553 0.895186 4.944538 0
M  V30 8 C -0.805754 1.997468 4.515094 0
M  V30 9 C -2.192098 1.923446 4.416568 0
M  V30 10 C -2.843796 0.774596 4.736944 0
M  V30 11 F -4.191439 0.737375 4.630528 0
M  V30 12 C -2.130175 -0.325529 5.162095 0
M  V30 13 C -0.743996 -0.280284 5.269835 0
M  V30 14 C 2.338625 0.896794 4.137005 0
M  V30 15 C 3.558177 1.223002 4.687215 0
M  V30 16 C 4.876757 1.158161 4.054847 0
M  V30 17 C 4.867509 0.697755 2.639247 0
M  V30 18 C 3.526291 0.350061 2.103168 0
M  V30 19 C 3.599967 -0.094505 0.779127 0
M  V30 20 C 2.381900 -0.444338 0.181836 0
M  V30 21 C 1.150767 -0.365022 0.842194 0
M  V30 22 N -0.003011 -0.764154 0.082530 0
M  V30 23 C -0.928730 -0.151051 -0.780652 0
M  V30 24 O -0.786099 1.071821 -1.007876 0
M  V30 25 C -1.910091 -1.156911 -1.243754 0
M  V30 26 C -1.813052 -1.647394 -2.529908 0
M  V30 27 C -2.670940 -2.584677 -3.050639 0
M  V30 28 N -2.605652 -3.122079 -4.367094 0
M  V30 29 C -3.583192 -4.108949 -4.817945 0
M  V30 30 C -3.975917 -3.839551 -6.259255 0
M  V30 31 C -3.687338 -2.406264 -6.639966 0
M  V30 32 O -4.247632 -2.208269 -7.901911 0
M  V30 33 C -2.209041 -2.181259 -6.619962 0
M  V30 34 C -1.637313 -2.796355 -5.364727 0
M  V30 35 N -3.636130 -3.013192 -2.225918 0
M  V30 36 C -3.774612 -2.568417 -0.966518 0
M  V30 37 C -2.914979 -1.616947 -0.415869 0
M  V30 38 Cl -3.055216 -1.005277 1.221100 0
M  V30 39 C 1.142945 0.080744 2.147367 0
M  V30 40 C 2.321522 0.432007 2.763186 0
M  V30 41 H 6.294768 2.600989 6.208219 0
M  V30 42 H 6.159478 1.637019 7.505972 0
M  V30 43 H -0.307570 2.933050 4.252354 0
M  V30 44 H -2.699978 2.813883 4.078287 0
M  V30 45 H -2.624574 -1.249118 5.423925 0
M  V30 46 H -0.141175 -1.101677 5.592590 0
M  V30 47 H 5.282562 2.212504 4.071834 0
M  V30 48 H 5.623861 0.595727 4.685822 0
M  V30 49 H 5.361008 1.438550 1.967529 0
M  V30 50 H 5.556097 -0.198382 2.585526 0
M  V30 51 H 4.491174 -0.185375 0.201304 0
M  V30 52 H 2.399859 -0.796128 -0.854609 0
M  V30 53 H 0.057539 -1.777730 0.401973 0
M  V30 54 H -1.026284 -1.275952 -3.152044 0
M  V30 55 H -3.166326 -5.151602 -4.713730 0
M  V30 56 H -4.487928 -4.085558 -4.158765 0
M  V30 57 H -3.357932 -4.471139 -6.935933 0
M  V30 58 H -5.068589 -4.004635 -6.380486 0
M  V30 59 H -4.164188 -1.676139 -5.974954 0
M  V30 60 H -3.950315 -2.975353 -8.466558 0
M  V30 61 H -1.966585 -1.092688 -6.710486 0
M  V30 62 H -1.777570 -2.643988 -7.541432 0
M  V30 63 H -1.057731 -3.705122 -5.688314 0
M  V30 64 H -0.846170 -2.073070 -5.014420 0
M  V30 65 H -4.559119 -2.912562 -0.286055 0
M  V30 66 H 0.179395 0.122698 2.607557 0
M  V30 END ATOM
M  V30 BEGIN BOND
M  V30 1 1 1 2
M  V30 2 2 2 3
M  V30 3 1 2 4
M  V30 4 2 4 5
M  V30 5 1 5 6
M  V30 6 1 6 7
M  V30 7 2 7 8
M  V30 8 1 8 9
M  V30 9 2 9 10
M  V30 10 1 10 11
M  V30 11 1 10 12
M  V30 12 2 12 13
M  V30 13 1 6 14
M  V30 14 2 14 15
M  V30 15 1 15 16
M  V30 16 1 16 17
M  V30 17 1 17 18
M  V30 18 2 18 19
M  V30 19 1 19 20
M  V30 20 2 20 21
M  V30 21 1 21 22
M  V30 22 1 22 23
M  V30 23 2 23 24
M  V30 24 1 23 25
M  V30 25 2 25 26
M  V30 26 1 26 27
M  V30 27 1 27 28
M  V30 28 1 28 29
M  V30 29 1 29 30
M  V30 30 1 30 31
M  V30 31 1 31 32
M  V30 32 1 31 33
M  V30 33 1 33 34
M  V30 34 2 27 35
M  V30 35 1 35 36
M  V30 36 2 36 37
M  V30 37 1 37 38
M  V30 38 1 21 39
M  V30 39 2 39 40
M  V30 40 1 15 4
M  V30 41 1 40 18
M  V30 42 1 13 7
M  V30 43 1 40 14
M  V30 44 1 37 25
M  V30 45 1 34 28
M  V30 46 1 1 41
M  V30 47 1 1 42
M  V30 48 1 8 43
M  V30 49 1 9 44
M  V30 50 1 12 45
M  V30 51 1 13 46
M  V30 52 1 16 47
M  V30 53 1 16 48
M  V30 54 1 17 49
M  V30 55 1 17 50
M  V30 56 1 19 51
M  V30 57 1 20 52
M  V30 58 1 22 53
M  V30 59 1 26 54
M  V30 60 1 29 55
M  V30 61 1 29 56
M  V30 62 1 30 57
M  V30 63 1 30 58
M  V30 64 1 31 59
M  V30 65 1 32 60
M  V30 66 1 33 61
M  V30 67 1 33 62
M  V30 68 1 34 63
M  V30 69 1 34 64
M  V30 70 1 36 65
M  V30 71 1 39 66
M  V30 END BOND
M  V30 END CTAB
M  END
>  <Dataset>  (346) 
ChEMBL_Kinases

>  <Ligand_Instance>  (346) 
nan

>  <PDB_ID>  (346) 
nan

>  <Standardized_SMILES>  (346) 
NC(=O)c1nn(-c2ccc(F)cc2)c2c1CCc1ccc(NC(=O)c3cc(N4CCC(O)CC4)ncc3Cl)cc1-2

>  <Name>  (346) 
nan

>  <Pocket>  (346) 
nan

>  <ATP_Site>  (346) 
nan

>  <Peripheral>  (346) 
nan

>  <Num_H_Atoms_ProtBoundConf>  (346) 
nan

>  <Num_Resolved_Atoms>  (346) 
nan

>  <Num_Not_Resolved_Atoms>  (346) 
nan

$$$$
CHEMBL1669563
     RDKit          3D

  0  0  0  0  0  0  0  0  0  0999 V3000
M  V30 BEGIN CTAB
M  V30 COUNTS 62 66 0 0 0
M  V30 BEGIN ATOM
M  V30 1 C 6.371465 -5.019849 3.789118 0
M  V30 2 O 5.119217 -4.848705 4.330048 0
M  V30 3 C 4.765131 -3.544373 4.570280 0
M  V30 4 C 4.772413 -2.718456 3.278519 0
M  V30 5 N 4.385560 -1.372858 3.659993 0
M  V30 6 C 4.233698 -0.210152 2.853135 0
M  V30 7 C 2.965250 -0.044137 2.339316 0
M  V30 8 C 2.610825 1.023629 1.530331 0
M  V30 9 C 1.323970 1.287632 0.947676 0
M  V30 10 O 0.584542 1.401959 1.961961 0
M  V30 11 N 1.024160 1.383823 -0.437487 0
M  V30 12 C -0.374447 1.659306 -0.659780 0
M  V30 13 C -0.852854 2.958681 -0.739314 0
M  V30 14 C -2.198115 3.225476 -0.953103 0
M  V30 15 C -3.092164 2.182717 -1.091627 0
M  V30 16 C -2.618161 0.891050 -1.012819 0
M  V30 17 C -1.286753 0.620790 -0.801211 0
M  V30 18 C -3.583868 -0.168065 -1.162691 0
M  V30 19 C -4.901160 0.174146 -1.372286 0
M  V30 20 C -5.572913 -1.010831 -1.475312 0
M  V30 21 C -6.992819 -1.355433 -1.699313 0
M  V30 22 N -7.938100 -0.302093 -1.852600 0
M  V30 23 O -7.503615 -2.512925 -1.776521 0
M  V30 24 N -4.655431 -2.002333 -1.327200 0
M  V30 25 N -3.441523 -1.494831 -1.136375 0
M  V30 26 C -2.328242 -2.347933 -0.957572 0
M  V30 27 C -1.854026 -2.844533 0.264068 0
M  V30 28 C -0.753981 -3.682169 0.274269 0
M  V30 29 C -0.109344 -4.041592 -0.900381 0
M  V30 30 F 0.963758 -4.865986 -0.825632 0
M  V30 31 C -0.584412 -3.545078 -2.115247 0
M  V30 32 C -1.674905 -2.713265 -2.138383 0
M  V30 33 C -5.454277 1.533421 -1.463479 0
M  V30 34 C -4.483623 2.643579 -1.313318 0
M  V30 35 C 3.619766 1.952286 1.247945 0
M  V30 36 Cl 3.386565 3.388663 0.237407 0
M  V30 37 C 4.871620 1.736574 1.788777 0
M  V30 38 N 5.214453 0.687773 2.581738 0
M  V30 39 H 7.203244 -4.629977 4.422193 0
M  V30 40 H 6.447482 -4.694973 2.728613 0
M  V30 41 H 6.558538 -6.128245 3.752221 0
M  V30 42 H 3.736984 -3.544881 4.986153 0
M  V30 43 H 5.415769 -3.079447 5.340346 0
M  V30 44 H 5.743862 -2.781576 2.783131 0
M  V30 45 H 3.959793 -3.147132 2.635048 0
M  V30 46 H 4.153220 -1.063157 4.640651 0
M  V30 47 H 2.149467 -0.724505 2.521732 0
M  V30 48 H 1.819899 1.250165 -1.101756 0
M  V30 49 H -0.139968 3.771072 -0.628826 0
M  V30 50 H -2.456311 4.281857 -0.997088 0
M  V30 51 H -0.874811 -0.348294 -0.733149 0
M  V30 52 H -8.109425 -0.109611 -0.842734 0
M  V30 53 H -8.604435 0.440055 -2.180083 0
M  V30 54 H -2.405564 -2.523063 1.144016 0
M  V30 55 H -0.406385 -4.054608 1.244868 0
M  V30 56 H -0.057214 -3.843748 -3.033045 0
M  V30 57 H -1.979834 -2.370949 -3.130136 0
M  V30 58 H -6.313969 1.655538 -0.742924 0
M  V30 59 H -5.911493 1.608807 -2.495193 0
M  V30 60 H -4.511831 3.355147 -2.185229 0
M  V30 61 H -4.835562 3.294596 -0.458293 0
M  V30 62 H 5.659703 2.458780 1.570263 0
M  V30 END ATOM
M  V30 BEGIN BOND
M  V30 1 1 1 2
M  V30 2 1 2 3
M  V30 3 1 3 4
M  V30 4 1 4 5
M  V30 5 1 5 6
M  V30 6 2 6 7
M  V30 7 1 7 8
M  V30 8 1 8 9
M  V30 9 2 9 10
M  V30 10 1 9 11
M  V30 11 1 11 12
M  V30 12 2 12 13
M  V30 13 1 13 14
M  V30 14 2 14 15
M  V30 15 1 15 16
M  V30 16 2 16 17
M  V30 17 1 16 18
M  V30 18 2 18 19
M  V30 19 1 19 20
M  V30 20 1 20 21
M  V30 21 1 21 22
M  V30 22 2 21 23
M  V30 23 2 20 24
M  V30 24 1 24 25
M  V30 25 1 25 26
M  V30 26 2 26 27
M  V30 27 1 27 28
M  V30 28 2 28 29
M  V30 29 1 29 30
M  V30 30 1 29 31
M  V30 31 2 31 32
M  V30 32 1 19 33
M  V30 33 1 33 34
M  V30 34 2 8 35
M  V30 35 1 35 36
M  V30 36 1 35 37
M  V30 37 2 37 38
M  V30 38 1 38 6
M  V30 39 1 17 12
M  V30 40 1 25 18
M  V30 41 1 32 26
M  V30 42 1 34 15
M  V30 43 1 1 39
M  V30 44 1 1 40
M  V30 45 1 1 41
M  V30 46 1 3 42
M  V30 47 1 3 43
M  V30 48 1 4 44
M  V30 49 1 4 45
M  V30 50 1 5 46
M  V30 51 1 7 47
M  V30 52 1 11 48
M  V30 53 1 13 49
M  V30 54 1 14 50
M  V30 55 1 17 51
M  V30 56 1 22 52
M  V30 57 1 22 53
M  V30 58 1 27 54
M  V30 59 1 28 55
M  V30 60 1 31 56
M  V30 61 1 32 57
M  V30 62 1 33 58
M  V30 63 1 33 59
M  V30 64 1 34 60
M  V30 65 1 34 61
M  V30 66 1 37 62
M  V30 END BOND
M  V30 END CTAB
M  END
>  <Dataset>  (347) 
ChEMBL_Kinases

>  <Ligand_Instance>  (347) 
nan

>  <PDB_ID>  (347) 
nan

>  <Standardized_SMILES>  (347) 
COCCNc1cc(C(=O)Nc2ccc3c(c2)-c2c(c(C(N)=O)nn2-c2ccc(F)cc2)CC3)c(Cl)cn1

>  <Name>  (347) 
nan

>  <Pocket>  (347) 
nan

>  <ATP_Site>  (347) 
nan

>  <Peripheral>  (347) 
nan

>  <Num_H_Atoms_ProtBoundConf>  (347) 
nan

>  <Num_Resolved_Atoms>  (347) 
nan

>  <Num_Not_Resolved_Atoms>  (347) 
nan

$$$$
CHEMBL1669564
     RDKit          3D

  0  0  0  0  0  0  0  0  0  0999 V3000
M  V30 BEGIN CTAB
M  V30 COUNTS 77 83 0 0 0
M  V30 BEGIN ATOM
M  V30 1 C 0.986098 -6.892680 1.160931 0
M  V30 2 N 2.053766 -6.713161 0.204102 0
M  V30 3 C 2.809050 -5.608856 0.269337 0
M  V30 4 C 3.751962 -5.650601 -0.727986 0
M  V30 5 C 4.854970 -4.765082 -1.182743 0
M  V30 6 N 4.367824 -3.817154 -2.169999 0
M  V30 7 C 5.369413 -2.946281 -2.660223 0
M  V30 8 C 4.981201 -1.585306 -3.093553 0
M  V30 9 N 3.668650 -1.143223 -2.675551 0
M  V30 10 C 3.405786 0.187639 -2.249400 0
M  V30 11 C 2.209882 0.684897 -1.783755 0
M  V30 12 C 2.051611 1.998650 -1.395280 0
M  V30 13 C 0.698728 2.362013 -0.919164 0
M  V30 14 O -0.238405 2.209400 -1.747110 0
M  V30 15 N 0.520401 2.856753 0.421709 0
M  V30 16 C -0.868329 3.131477 0.630199 0
M  V30 17 C -1.392713 4.373999 0.336422 0
M  V30 18 C -2.752185 4.644634 0.538704 0
M  V30 19 C -3.612313 3.661282 1.044317 0
M  V30 20 C -3.036145 2.440146 1.320348 0
M  V30 21 C -1.722340 2.152966 1.132793 0
M  V30 22 C -3.935174 1.421645 1.840016 0
M  V30 23 C -5.245852 1.819294 1.984533 0
M  V30 24 C -5.881062 0.686232 2.492815 0
M  V30 25 C -7.286078 0.497088 2.851467 0
M  V30 26 N -8.230180 1.545158 2.704441 0
M  V30 27 O -7.840290 -0.535281 3.309170 0
M  V30 28 N -4.943065 -0.286236 2.615982 0
M  V30 29 N -3.762690 0.167051 2.218013 0
M  V30 30 C -2.622843 -0.650880 2.249529 0
M  V30 31 C -2.102809 -1.508162 1.267565 0
M  V30 32 C -0.956765 -2.228728 1.541274 0
M  V30 33 C -0.310816 -2.126029 2.756210 0
M  V30 34 C -0.795002 -1.284371 3.760538 0
M  V30 35 F -0.144518 -1.199598 4.944783 0
M  V30 36 C -1.938955 -0.573723 3.470009 0
M  V30 37 C -5.894593 3.105136 1.690943 0
M  V30 38 C -4.976069 4.156637 1.178934 0
M  V30 39 C 3.120897 2.866086 -1.467835 0
M  V30 40 Cl 2.866557 4.512768 -0.965448 0
M  V30 41 C 4.308325 2.345277 -1.937257 0
M  V30 42 N 4.437884 1.064015 -2.309306 0
M  V30 43 C 2.676356 -2.199189 -2.745174 0
M  V30 44 C 3.143918 -3.234275 -1.729460 0
M  V30 45 C 3.527600 -6.851461 -1.409446 0
M  V30 46 N 2.480486 -7.472762 -0.809396 0
M  V30 47 H 0.255604 -7.634124 0.765841 0
M  V30 48 H 0.415914 -5.944524 1.336417 0
M  V30 49 H 1.326747 -7.275624 2.137332 0
M  V30 50 H 2.801889 -4.743057 0.933661 0
M  V30 51 H 5.729496 -5.318887 -1.517923 0
M  V30 52 H 5.182423 -4.154499 -0.291582 0
M  V30 53 H 5.944051 -3.511587 -3.453070 0
M  V30 54 H 6.123002 -2.823735 -1.824386 0
M  V30 55 H 5.771234 -0.845999 -2.837362 0
M  V30 56 H 4.948530 -1.574057 -4.224740 0
M  V30 57 H 1.389129 -0.012064 -1.735390 0
M  V30 58 H 1.344374 2.962803 1.067876 0
M  V30 59 H -0.714207 5.130070 -0.056703 0
M  V30 60 H -3.032261 5.666853 0.264737 0
M  V30 61 H -1.265275 1.223373 1.339543 0
M  V30 62 H -8.579785 2.298974 3.373024 0
M  V30 63 H -8.575574 1.449922 1.702707 0
M  V30 64 H -2.699079 -1.498453 0.364433 0
M  V30 65 H -0.615889 -2.867092 0.737363 0
M  V30 66 H 0.592201 -2.716102 2.924809 0
M  V30 67 H -2.256518 0.064602 4.310340 0
M  V30 68 H -6.787370 2.990712 1.031661 0
M  V30 69 H -6.313166 3.470185 2.674918 0
M  V30 70 H -5.366427 4.520570 0.202696 0
M  V30 71 H -4.969256 5.052095 1.836618 0
M  V30 72 H 5.145172 3.015868 -1.995874 0
M  V30 73 H 1.658412 -1.855220 -2.554882 0
M  V30 74 H 2.783630 -2.709742 -3.735772 0
M  V30 75 H 3.406094 -2.633250 -0.808232 0
M  V30 76 H 2.371150 -3.985484 -1.561707 0
M  V30 77 H 4.045324 -7.272724 -2.257672 0
M  V30 END ATOM
M  V30 BEGIN BOND
M  V30 1 1 1 2
M  V30 2 1 2 3
M  V30 3 2 3 4
M  V30 4 1 4 5
M  V30 5 1 5 6
M  V30 6 1 6 7
M  V30 7 1 7 8
M  V30 8 1 8 9
M  V30 9 1 9 10
M  V30 10 2 10 11
M  V30 11 1 11 12
M  V30 12 1 12 13
M  V30 13 2 13 14
M  V30 14 1 13 15
M  V30 15 1 15 16
M  V30 16 2 16 17
M  V30 17 1 17 18
M  V30 18 2 18 19
M  V30 19 1 19 20
M  V30 20 2 20 21
M  V30 21 1 20 22
M  V30 22 2 22 23
M  V30 23 1 23 24
M  V30 24 1 24 25
M  V30 25 1 25 26
M  V30 26 2 25 27
M  V30 27 2 24 28
M  V30 28 1 28 29
M  V30 29 1 29 30
M  V30 30 2 30 31
M  V30 31 1 31 32
M  V30 32 2 32 33
M  V30 33 1 33 34
M  V30 34 1 34 35
M  V30 35 2 34 36
M  V30 36 1 23 37
M  V30 37 1 37 38
M  V30 38 2 12 39
M  V30 39 1 39 40
M  V30 40 1 39 41
M  V30 41 2 41 42
M  V30 42 1 9 43
M  V30 43 1 43 44
M  V30 44 1 4 45
M  V30 45 2 45 46
M  V30 46 1 46 2
M  V30 47 1 44 6
M  V30 48 1 42 10
M  V30 49 1 21 16
M  V30 50 1 29 22
M  V30 51 1 36 30
M  V30 52 1 38 19
M  V30 53 1 1 47
M  V30 54 1 1 48
M  V30 55 1 1 49
M  V30 56 1 3 50
M  V30 57 1 5 51
M  V30 58 1 5 52
M  V30 59 1 7 53
M  V30 60 1 7 54
M  V30 61 1 8 55
M  V30 62 1 8 56
M  V30 63 1 11 57
M  V30 64 1 15 58
M  V30 65 1 17 59
M  V30 66 1 18 60
M  V30 67 1 21 61
M  V30 68 1 26 62
M  V30 69 1 26 63
M  V30 70 1 31 64
M  V30 71 1 32 65
M  V30 72 1 33 66
M  V30 73 1 36 67
M  V30 74 1 37 68
M  V30 75 1 37 69
M  V30 76 1 38 70
M  V30 77 1 38 71
M  V30 78 1 41 72
M  V30 79 1 43 73
M  V30 80 1 43 74
M  V30 81 1 44 75
M  V30 82 1 44 76
M  V30 83 1 45 77
M  V30 END BOND
M  V30 END CTAB
M  END
>  <Dataset>  (348) 
ChEMBL_Kinases

>  <Ligand_Instance>  (348) 
nan

>  <PDB_ID>  (348) 
nan

>  <Standardized_SMILES>  (348) 
Cn1cc(CN2CCN(c3cc(C(=O)Nc4ccc5c(c4)-c4c(c(C(N)=O)nn4-c4cccc(F)c4)CC5)c(Cl)cn3)CC2)cn1

>  <Name>  (348) 
nan

>  <Pocket>  (348) 
nan

>  <ATP_Site>  (348) 
nan

>  <Peripheral>  (348) 
nan

>  <Num_H_Atoms_ProtBoundConf>  (348) 
nan

>  <Num_Resolved_Atoms>  (348) 
nan

>  <Num_Not_Resolved_Atoms>  (348) 
nan

$$$$
CHEMBL1669565
     RDKit          3D

  0  0  0  0  0  0  0  0  0  0999 V3000
M  V30 BEGIN CTAB
M  V30 COUNTS 86 92 0 0 0
M  V30 BEGIN ATOM
M  V30 1 C -0.420244 -2.932993 3.782522 0
M  V30 2 C 0.810790 -2.741577 4.670930 0
M  V30 3 O 0.841518 -1.454884 5.228815 0
M  V30 4 C 1.826552 -0.988382 6.066069 0
M  V30 5 O 2.783411 -1.736209 6.377552 0
M  V30 6 C 1.643914 0.415000 6.532692 0
M  V30 7 N 2.295760 1.242150 5.509597 0
M  V30 8 C 1.613993 1.707012 4.429640 0
M  V30 9 C 2.484239 2.459318 3.628867 0
M  V30 10 C 2.047618 3.093775 2.389643 0
M  V30 11 N 1.556615 4.425292 2.479236 0
M  V30 12 C 0.414914 4.634566 3.326587 0
M  V30 13 C -0.871992 4.774765 2.544148 0
M  V30 14 N -0.946283 3.826840 1.452065 0
M  V30 15 C -1.885061 2.775532 1.259532 0
M  V30 16 C -1.951054 1.810768 0.266508 0
M  V30 17 C -2.965306 0.895387 0.296965 0
M  V30 18 C -2.919843 -0.069254 -0.799055 0
M  V30 19 O -2.766747 -1.184813 -0.239490 0
M  V30 20 N -3.010913 0.052583 -2.217157 0
M  V30 21 C -2.895619 -1.251457 -2.744059 0
M  V30 22 C -4.042750 -1.988670 -2.933851 0
M  V30 23 C -3.957373 -3.286822 -3.451877 0
M  V30 24 C -2.698658 -3.787654 -3.758556 0
M  V30 25 C -1.585221 -3.006778 -3.548557 0
M  V30 26 C -1.640809 -1.738199 -3.044933 0
M  V30 27 C -0.314176 -3.613366 -3.896021 0
M  V30 28 C -0.310574 -4.893836 -4.398771 0
M  V30 29 C 1.017146 -5.190314 -4.626071 0
M  V30 30 C 1.676168 -6.391883 -5.152881 0
M  V30 31 N 0.817428 -7.462006 -5.504965 0
M  V30 32 O 2.922582 -6.539862 -5.312131 0
M  V30 33 N 1.741882 -4.098788 -4.258424 0
M  V30 34 N 0.937154 -3.145180 -3.817184 0
M  V30 35 C 1.474135 -1.908945 -3.377221 0
M  V30 36 C 1.707319 -0.769592 -4.159986 0
M  V30 37 C 2.245660 0.347984 -3.583875 0
M  V30 38 C 2.577985 0.413377 -2.244442 0
M  V30 39 F 3.111870 1.577395 -1.756244 0
M  V30 40 C 2.356396 -0.701531 -1.450115 0
M  V30 41 C 1.811138 -1.843286 -2.018202 0
M  V30 42 C -1.467775 -5.780136 -4.651330 0
M  V30 43 C -2.776488 -5.157043 -4.287491 0
M  V30 44 C -3.936790 0.882536 1.275143 0
M  V30 45 Cl -5.174303 -0.339920 1.196169 0
M  V30 46 C -3.840697 1.865371 2.257319 0
M  V30 47 N -2.837910 2.777109 2.235028 0
M  V30 48 C 0.136827 4.102497 0.505217 0
M  V30 49 C 1.226370 4.924617 1.157308 0
M  V30 50 C 3.680885 2.389132 4.316951 0
M  V30 51 N 3.567501 1.655413 5.451011 0
M  V30 52 H -0.581677 -4.026828 3.689995 0
M  V30 53 H -1.308030 -2.487617 4.268803 0
M  V30 54 H -0.212609 -2.511214 2.769916 0
M  V30 55 H 0.752622 -3.468703 5.486803 0
M  V30 56 H 1.712841 -2.972462 4.062503 0
M  V30 57 H 0.581779 0.683495 6.596194 0
M  V30 58 H 2.110648 0.564716 7.514893 0
M  V30 59 H 0.555213 1.519065 4.225131 0
M  V30 60 H 2.918438 3.110042 1.702754 0
M  V30 61 H 1.283713 2.483259 1.866646 0
M  V30 62 H 0.269477 3.896821 4.111148 0
M  V30 63 H 0.571683 5.612122 3.834923 0
M  V30 64 H -1.722338 4.668482 3.249091 0
M  V30 65 H -0.961731 5.788926 2.098278 0
M  V30 66 H -1.161752 1.901484 -0.440271 0
M  V30 67 H -3.135313 1.054846 -2.470729 0
M  V30 68 H -4.991930 -1.543792 -2.676097 0
M  V30 69 H -4.899285 -3.782593 -3.564714 0
M  V30 70 H -0.812956 -1.111847 -2.871142 0
M  V30 71 H 0.662888 -8.489072 -5.551266 0
M  V30 72 H 0.182224 -8.239880 -5.765685 0
M  V30 73 H 1.427210 -0.880900 -5.202292 0
M  V30 74 H 2.409046 1.215267 -4.240113 0
M  V30 75 H 2.615991 -0.651147 -0.401250 0
M  V30 76 H 1.671270 -2.667218 -1.326007 0
M  V30 77 H -1.460591 -5.965640 -5.765763 0
M  V30 78 H -1.332681 -6.767539 -4.114199 0
M  V30 79 H -3.439848 -5.103722 -5.198040 0
M  V30 80 H -3.328128 -5.810332 -3.577052 0
M  V30 81 H -4.603200 1.844338 3.013512 0
M  V30 82 H -0.214772 4.694962 -0.370488 0
M  V30 83 H 0.549314 3.160470 0.088495 0
M  V30 84 H 0.961800 5.996900 1.149375 0
M  V30 85 H 2.139392 4.812942 0.535339 0
M  V30 86 H 4.567592 2.899335 3.916061 0
M  V30 END ATOM
M  V30 BEGIN BOND
M  V30 1 1 1 2
M  V30 2 1 2 3
M  V30 3 1 3 4
M  V30 4 2 4 5
M  V30 5 1 4 6
M  V30 6 1 6 7
M  V30 7 1 7 8
M  V30 8 2 8 9
M  V30 9 1 9 10
M  V30 10 1 10 11
M  V30 11 1 11 12
M  V30 12 1 12 13
M  V30 13 1 13 14
M  V30 14 1 14 15
M  V30 15 2 15 16
M  V30 16 1 16 17
M  V30 17 1 17 18
M  V30 18 2 18 19
M  V30 19 1 18 20
M  V30 20 1 20 21
M  V30 21 2 21 22
M  V30 22 1 22 23
M  V30 23 2 23 24
M  V30 24 1 24 25
M  V30 25 2 25 26
M  V30 26 1 25 27
M  V30 27 2 27 28
M  V30 28 1 28 29
M  V30 29 1 29 30
M  V30 30 1 30 31
M  V30 31 2 30 32
M  V30 32 2 29 33
M  V30 33 1 33 34
M  V30 34 1 34 35
M  V30 35 2 35 36
M  V30 36 1 36 37
M  V30 37 2 37 38
M  V30 38 1 38 39
M  V30 39 1 38 40
M  V30 40 2 40 41
M  V30 41 1 28 42
M  V30 42 1 42 43
M  V30 43 2 17 44
M  V30 44 1 44 45
M  V30 45 1 44 46
M  V30 46 2 46 47
M  V30 47 1 14 48
M  V30 48 1 48 49
M  V30 49 1 9 50
M  V30 50 2 50 51
M  V30 51 1 51 7
M  V30 52 1 49 11
M  V30 53 1 47 15
M  V30 54 1 26 21
M  V30 55 1 34 27
M  V30 56 1 41 35
M  V30 57 1 43 24
M  V30 58 1 1 52
M  V30 59 1 1 53
M  V30 60 1 1 54
M  V30 61 1 2 55
M  V30 62 1 2 56
M  V30 63 1 6 57
M  V30 64 1 6 58
M  V30 65 1 8 59
M  V30 66 1 10 60
M  V30 67 1 10 61
M  V30 68 1 12 62
M  V30 69 1 12 63
M  V30 70 1 13 64
M  V30 71 1 13 65
M  V30 72 1 16 66
M  V30 73 1 20 67
M  V30 74 1 22 68
M  V30 75 1 23 69
M  V30 76 1 26 70
M  V30 77 1 31 71
M  V30 78 1 31 72
M  V30 79 1 36 73
M  V30 80 1 37 74
M  V30 81 1 40 75
M  V30 82 1 41 76
M  V30 83 1 42 77
M  V30 84 1 42 78
M  V30 85 1 43 79
M  V30 86 1 43 80
M  V30 87 1 46 81
M  V30 88 1 48 82
M  V30 89 1 48 83
M  V30 90 1 49 84
M  V30 91 1 49 85
M  V30 92 1 50 86
M  V30 END BOND
M  V30 END CTAB
M  END
>  <Dataset>  (349) 
ChEMBL_Kinases

>  <Ligand_Instance>  (349) 
nan

>  <PDB_ID>  (349) 
nan

>  <Standardized_SMILES>  (349) 
CCOC(=O)Cn1cc(CN2CCN(c3cc(C(=O)Nc4ccc5c(c4)-c4c(c(C(N)=O)nn4-c4ccc(F)cc4)CC5)c(Cl)cn3)CC2)cn1

>  <Name>  (349) 
nan

>  <Pocket>  (349) 
nan

>  <ATP_Site>  (349) 
nan

>  <Peripheral>  (349) 
nan

>  <Num_H_Atoms_ProtBoundConf>  (349) 
nan

>  <Num_Resolved_Atoms>  (349) 
nan

>  <Num_Not_Resolved_Atoms>  (349) 
nan

$$$$
CHEMBL1669566
     RDKit          3D

  0  0  0  0  0  0  0  0  0  0999 V3000
M  V30 BEGIN CTAB
M  V30 COUNTS 86 92 0 0 0
M  V30 BEGIN ATOM
M  V30 1 C -0.988740 -2.318642 3.798431 0
M  V30 2 C -0.319909 -2.442265 5.149125 0
M  V30 3 O 0.873303 -1.681232 5.117235 0
M  V30 4 C 0.907262 -0.315062 4.875202 0
M  V30 5 O -0.146430 0.339929 4.664985 0
M  V30 6 C 2.280233 0.262090 4.892836 0
M  V30 7 N 2.238611 1.694926 4.631874 0
M  V30 8 C 2.308873 2.313233 3.438043 0
M  V30 9 C 2.233562 3.700739 3.603155 0
M  V30 10 C 2.278786 4.705182 2.509290 0
M  V30 11 N 1.044737 5.061363 1.949989 0
M  V30 12 C 0.029071 5.628133 2.726784 0
M  V30 13 C -1.293682 5.376074 1.987945 0
M  V30 14 N -1.138015 4.228031 1.100319 0
M  V30 15 C -1.782672 2.969644 1.252893 0
M  V30 16 C -1.622846 1.880194 0.431914 0
M  V30 17 C -2.297468 0.702905 0.668954 0
M  V30 18 C -1.999366 -0.334871 -0.303868 0
M  V30 19 O -0.799178 -0.667918 -0.330837 0
M  V30 20 N -2.937794 -0.948944 -1.167527 0
M  V30 21 C -2.706823 -1.960513 -2.132435 0
M  V30 22 C -3.804091 -2.388179 -2.849382 0
M  V30 23 C -3.702653 -3.366845 -3.815945 0
M  V30 24 C -2.499592 -3.976087 -4.123557 0
M  V30 25 C -1.409894 -3.539287 -3.399067 0
M  V30 26 C -1.513585 -2.573828 -2.446491 0
M  V30 27 C -0.146927 -4.170602 -3.711042 0
M  V30 28 C -0.153037 -5.138152 -4.691562 0
M  V30 29 C 1.157325 -5.589467 -4.811256 0
M  V30 30 C 1.877662 -6.583247 -5.633387 0
M  V30 31 N 1.177681 -7.353690 -6.601264 0
M  V30 32 O 3.124921 -6.853236 -5.580618 0
M  V30 33 N 1.881125 -4.874665 -3.901632 0
M  V30 34 N 1.084586 -4.032239 -3.254150 0
M  V30 35 C 1.602217 -3.171484 -2.250820 0
M  V30 36 C 2.089986 -1.890299 -2.544680 0
M  V30 37 C 2.609197 -1.042436 -1.587912 0
M  V30 38 C 2.663213 -1.449088 -0.271080 0
M  V30 39 C 2.190693 -2.708597 0.058690 0
M  V30 40 F 2.188864 -3.227563 1.320410 0
M  V30 41 C 1.672990 -3.550817 -0.902799 0
M  V30 42 C -1.275675 -5.661894 -5.507802 0
M  V30 43 C -2.584262 -4.991431 -5.179128 0
M  V30 44 C -3.140200 0.647891 1.756147 0
M  V30 45 Cl -3.955206 -0.898494 1.972321 0
M  V30 46 C -3.303593 1.741804 2.584160 0
M  V30 47 N -2.614813 2.889090 2.311784 0
M  V30 48 C -0.218944 4.570192 0.031305 0
M  V30 49 C 0.987766 5.352268 0.565953 0
M  V30 50 C 2.113845 3.845404 4.983202 0
M  V30 51 N 2.120414 2.624235 5.567553 0
M  V30 52 H -1.772121 -3.108996 3.729402 0
M  V30 53 H -1.477411 -1.343390 3.734326 0
M  V30 54 H -0.170393 -2.475316 3.044410 0
M  V30 55 H -0.980912 -2.178614 5.995017 0
M  V30 56 H 0.004178 -3.507323 5.261907 0
M  V30 57 H 2.733584 0.070681 5.873379 0
M  V30 58 H 2.933713 -0.228234 4.137425 0
M  V30 59 H 2.408000 1.743767 2.532718 0
M  V30 60 H 2.839220 5.588866 2.889205 0
M  V30 61 H 2.915427 4.275800 1.709049 0
M  V30 62 H 0.008138 5.318528 3.763861 0
M  V30 63 H 0.147323 6.750364 2.727589 0
M  V30 64 H -2.061488 5.194554 2.779145 0
M  V30 65 H -1.606678 6.241008 1.384114 0
M  V30 66 H -0.945465 2.045964 -0.373890 0
M  V30 67 H -3.886930 -0.550286 -1.008459 0
M  V30 68 H -4.785080 -1.943694 -2.651402 0
M  V30 69 H -4.626765 -3.629048 -4.319855 0
M  V30 70 H -0.662963 -2.266026 -1.913745 0
M  V30 71 H 0.731267 -7.592543 -7.535047 0
M  V30 72 H 0.928049 -8.261862 -6.153222 0
M  V30 73 H 2.057385 -1.544021 -3.585583 0
M  V30 74 H 2.978650 -0.058742 -1.845416 0
M  V30 75 H 3.051385 -0.848147 0.527701 0
M  V30 76 H 1.287982 -4.550009 -0.702173 0
M  V30 77 H -0.993664 -5.450186 -6.579868 0
M  V30 78 H -1.348521 -6.775654 -5.406107 0
M  V30 79 H -2.945734 -4.497072 -6.127274 0
M  V30 80 H -3.354527 -5.765813 -4.977324 0
M  V30 81 H -3.979012 1.631681 3.417679 0
M  V30 82 H -0.796266 5.206888 -0.686558 0
M  V30 83 H 0.198488 3.725223 -0.509313 0
M  V30 84 H 0.735196 6.437230 0.465423 0
M  V30 85 H 1.911164 5.149652 0.037032 0
M  V30 86 H 2.030730 4.834526 5.460971 0
M  V30 END ATOM
M  V30 BEGIN BOND
M  V30 1 1 1 2
M  V30 2 1 2 3
M  V30 3 1 3 4
M  V30 4 2 4 5
M  V30 5 1 4 6
M  V30 6 1 6 7
M  V30 7 1 7 8
M  V30 8 2 8 9
M  V30 9 1 9 10
M  V30 10 1 10 11
M  V30 11 1 11 12
M  V30 12 1 12 13
M  V30 13 1 13 14
M  V30 14 1 14 15
M  V30 15 2 15 16
M  V30 16 1 16 17
M  V30 17 1 17 18
M  V30 18 2 18 19
M  V30 19 1 18 20
M  V30 20 1 20 21
M  V30 21 2 21 22
M  V30 22 1 22 23
M  V30 23 2 23 24
M  V30 24 1 24 25
M  V30 25 2 25 26
M  V30 26 1 25 27
M  V30 27 2 27 28
M  V30 28 1 28 29
M  V30 29 1 29 30
M  V30 30 1 30 31
M  V30 31 2 30 32
M  V30 32 2 29 33
M  V30 33 1 33 34
M  V30 34 1 34 35
M  V30 35 2 35 36
M  V30 36 1 36 37
M  V30 37 2 37 38
M  V30 38 1 38 39
M  V30 39 1 39 40
M  V30 40 2 39 41
M  V30 41 1 28 42
M  V30 42 1 42 43
M  V30 43 2 17 44
M  V30 44 1 44 45
M  V30 45 1 44 46
M  V30 46 2 46 47
M  V30 47 1 14 48
M  V30 48 1 48 49
M  V30 49 1 9 50
M  V30 50 2 50 51
M  V30 51 1 51 7
M  V30 52 1 49 11
M  V30 53 1 47 15
M  V30 54 1 26 21
M  V30 55 1 34 27
M  V30 56 1 41 35
M  V30 57 1 43 24
M  V30 58 1 1 52
M  V30 59 1 1 53
M  V30 60 1 1 54
M  V30 61 1 2 55
M  V30 62 1 2 56
M  V30 63 1 6 57
M  V30 64 1 6 58
M  V30 65 1 8 59
M  V30 66 1 10 60
M  V30 67 1 10 61
M  V30 68 1 12 62
M  V30 69 1 12 63
M  V30 70 1 13 64
M  V30 71 1 13 65
M  V30 72 1 16 66
M  V30 73 1 20 67
M  V30 74 1 22 68
M  V30 75 1 23 69
M  V30 76 1 26 70
M  V30 77 1 31 71
M  V30 78 1 31 72
M  V30 79 1 36 73
M  V30 80 1 37 74
M  V30 81 1 38 75
M  V30 82 1 41 76
M  V30 83 1 42 77
M  V30 84 1 42 78
M  V30 85 1 43 79
M  V30 86 1 43 80
M  V30 87 1 46 81
M  V30 88 1 48 82
M  V30 89 1 48 83
M  V30 90 1 49 84
M  V30 91 1 49 85
M  V30 92 1 50 86
M  V30 END BOND
M  V30 END CTAB
M  END
>  <Dataset>  (350) 
ChEMBL_Kinases

>  <Ligand_Instance>  (350) 
nan

>  <PDB_ID>  (350) 
nan

>  <Standardized_SMILES>  (350) 
CCOC(=O)Cn1cc(CN2CCN(c3cc(C(=O)Nc4ccc5c(c4)-c4c(c(C(N)=O)nn4-c4cccc(F)c4)CC5)c(Cl)cn3)CC2)cn1

>  <Name>  (350) 
nan

>  <Pocket>  (350) 
nan

>  <ATP_Site>  (350) 
nan

>  <Peripheral>  (350) 
nan

>  <Num_H_Atoms_ProtBoundConf>  (350) 
nan

>  <Num_Resolved_Atoms>  (350) 
nan

>  <Num_Not_Resolved_Atoms>  (350) 
nan

$$$$
CHEMBL1669595
     RDKit          3D

  0  0  0  0  0  0  0  0  0  0999 V3000
M  V30 BEGIN CTAB
M  V30 COUNTS 84 90 0 0 0
M  V30 BEGIN ATOM
M  V30 1 N 0.479894 -6.894402 -4.437768 0
M  V30 2 C -0.541299 -7.029758 -3.427596 0
M  V30 3 O -1.004652 -8.176302 -3.124797 0
M  V30 4 C -1.029819 -5.803845 -2.760424 0
M  V30 5 N -0.600834 -4.548374 -3.014912 0
M  V30 6 N -1.240304 -3.683198 -2.250499 0
M  V30 7 C -0.909865 -2.317589 -2.408521 0
M  V30 8 C 0.032597 -1.501168 -1.802198 0
M  V30 9 C 0.105493 -0.185925 -2.197916 0
M  V30 10 C -0.709013 0.367623 -3.165853 0
M  V30 11 F -0.557992 1.665815 -3.479496 0
M  V30 12 C -1.654812 -0.430657 -3.783836 0
M  V30 13 C -1.743579 -1.762380 -3.397171 0
M  V30 14 C -2.086887 -4.393730 -1.497036 0
M  V30 15 C -1.993926 -5.739881 -1.778846 0
M  V30 16 C -2.796661 -6.762731 -1.108822 0
M  V30 17 C -3.774305 -6.268625 -0.112350 0
M  V30 18 C -3.813498 -4.832478 0.128818 0
M  V30 19 C -4.716354 -4.389115 1.071113 0
M  V30 20 C -4.849714 -3.055224 1.394347 0
M  V30 21 C -4.068516 -2.106189 0.769894 0
M  V30 22 N -4.086219 -0.677373 0.978863 0
M  V30 23 C -3.257734 -0.281366 2.088822 0
M  V30 24 O -2.639560 -1.158638 2.746383 0
M  V30 25 C -3.247760 1.182858 2.311150 0
M  V30 26 C -1.937068 1.669663 2.420761 0
M  V30 27 C -1.719819 3.016632 2.633777 0
M  V30 28 N -0.392474 3.507997 2.767989 0
M  V30 29 C 0.775061 2.735105 3.140889 0
M  V30 30 C 1.720198 2.681322 1.993676 0
M  V30 31 N 1.777345 3.795420 1.132449 0
M  V30 32 C 2.134273 3.519624 -0.222013 0
M  V30 33 C 3.495538 2.886507 -0.322656 0
M  V30 34 C 4.744838 3.455091 -0.477765 0
M  V30 35 N 5.674613 2.498182 -0.519419 0
M  V30 36 N 5.112530 1.314111 -0.399461 0
M  V30 37 C 5.927166 0.136682 -0.427124 0
M  V30 38 C 6.439164 -0.307347 0.902708 0
M  V30 39 C 5.373851 -0.632688 1.901970 0
M  V30 40 O 4.594746 0.486139 2.130740 0
M  V30 41 C 3.789674 1.529889 -0.280278 0
M  V30 42 C 0.987417 4.931715 1.376460 0
M  V30 43 C 0.051117 4.875494 2.538710 0
M  V30 44 N -2.791658 3.802821 2.725493 0
M  V30 45 C -4.055244 3.343969 2.620334 0
M  V30 46 C -4.307228 2.020180 2.410164 0
M  V30 47 Cl -5.865313 1.265350 2.248820 0
M  V30 48 C -3.149549 -2.566087 -0.190699 0
M  V30 49 C -3.024384 -3.883164 -0.503613 0
M  V30 50 H 1.436176 -6.442691 -4.340448 0
M  V30 51 H 1.385948 -6.424439 -4.213292 0
M  V30 52 H 0.592153 -2.067632 -1.071820 0
M  V30 53 H 0.860619 0.372968 -1.676324 0
M  V30 54 H -2.272148 0.036690 -4.539538 0
M  V30 55 H -2.534881 -2.266040 -3.972482 0
M  V30 56 H -3.291741 -7.351920 -1.936751 0
M  V30 57 H -2.081249 -7.499813 -0.645055 0
M  V30 58 H -3.627253 -6.856213 0.842095 0
M  V30 59 H -4.804558 -6.579714 -0.454605 0
M  V30 60 H -5.401497 -5.001872 1.647954 0
M  V30 61 H -5.549846 -2.654426 2.129524 0
M  V30 62 H -4.669582 -0.089758 0.336053 0
M  V30 63 H -1.062363 1.037213 2.343273 0
M  V30 64 H 1.269567 3.225898 4.015954 0
M  V30 65 H 0.504003 1.683587 3.413321 0
M  V30 66 H 2.750256 2.503298 2.412974 0
M  V30 67 H 1.509176 1.759331 1.382168 0
M  V30 68 H 1.444939 2.781198 -0.697269 0
M  V30 69 H 2.130523 4.446613 -0.814739 0
M  V30 70 H 4.889508 4.534030 -0.549864 0
M  V30 71 H 5.334235 -0.729809 -0.837871 0
M  V30 72 H 6.807857 0.235493 -1.106767 0
M  V30 73 H 7.124902 -1.182127 0.740649 0
M  V30 74 H 7.065449 0.506077 1.338549 0
M  V30 75 H 5.869156 -0.947767 2.833504 0
M  V30 76 H 4.754472 -1.514490 1.585170 0
M  V30 77 H 5.080180 1.089867 2.762430 0
M  V30 78 H 3.110009 0.719026 -0.167713 0
M  V30 79 H 1.673521 5.797823 1.556393 0
M  V30 80 H 0.393067 5.140540 0.453992 0
M  V30 81 H -0.798504 5.575461 2.455695 0
M  V30 82 H 0.614031 5.195613 3.447394 0
M  V30 83 H -4.935134 3.992079 2.693591 0
M  V30 84 H -2.554191 -1.837210 -0.659075 0
M  V30 END ATOM
M  V30 BEGIN BOND
M  V30 1 1 1 2
M  V30 2 2 2 3
M  V30 3 1 2 4
M  V30 4 2 4 5
M  V30 5 1 5 6
M  V30 6 1 6 7
M  V30 7 2 7 8
M  V30 8 1 8 9
M  V30 9 2 9 10
M  V30 10 1 10 11
M  V30 11 1 10 12
M  V30 12 2 12 13
M  V30 13 1 6 14
M  V30 14 2 14 15
M  V30 15 1 15 16
M  V30 16 1 16 17
M  V30 17 1 17 18
M  V30 18 2 18 19
M  V30 19 1 19 20
M  V30 20 2 20 21
M  V30 21 1 21 22
M  V30 22 1 22 23
M  V30 23 2 23 24
M  V30 24 1 23 25
M  V30 25 2 25 26
M  V30 26 1 26 27
M  V30 27 1 27 28
M  V30 28 1 28 29
M  V30 29 1 29 30
M  V30 30 1 30 31
M  V30 31 1 31 32
M  V30 32 1 32 33
M  V30 33 1 33 34
M  V30 34 2 34 35
M  V30 35 1 35 36
M  V30 36 1 36 37
M  V30 37 1 37 38
M  V30 38 1 38 39
M  V30 39 1 39 40
M  V30 40 1 36 41
M  V30 41 1 31 42
M  V30 42 1 42 43
M  V30 43 2 27 44
M  V30 44 1 44 45
M  V30 45 2 45 46
M  V30 46 1 46 47
M  V30 47 1 21 48
M  V30 48 2 48 49
M  V30 49 1 15 4
M  V30 50 1 49 18
M  V30 51 1 13 7
M  V30 52 1 49 14
M  V30 53 1 46 25
M  V30 54 1 43 28
M  V30 55 2 41 33
M  V30 56 1 1 50
M  V30 57 1 1 51
M  V30 58 1 8 52
M  V30 59 1 9 53
M  V30 60 1 12 54
M  V30 61 1 13 55
M  V30 62 1 16 56
M  V30 63 1 16 57
M  V30 64 1 17 58
M  V30 65 1 17 59
M  V30 66 1 19 60
M  V30 67 1 20 61
M  V30 68 1 22 62
M  V30 69 1 26 63
M  V30 70 1 29 64
M  V30 71 1 29 65
M  V30 72 1 30 66
M  V30 73 1 30 67
M  V30 74 1 32 68
M  V30 75 1 32 69
M  V30 76 1 34 70
M  V30 77 1 37 71
M  V30 78 1 37 72
M  V30 79 1 38 73
M  V30 80 1 38 74
M  V30 81 1 39 75
M  V30 82 1 39 76
M  V30 83 1 40 77
M  V30 84 1 41 78
M  V30 85 1 42 79
M  V30 86 1 42 80
M  V30 87 1 43 81
M  V30 88 1 43 82
M  V30 89 1 45 83
M  V30 90 1 48 84
M  V30 END BOND
M  V30 END CTAB
M  END
>  <Dataset>  (351) 
ChEMBL_Kinases

>  <Ligand_Instance>  (351) 
nan

>  <PDB_ID>  (351) 
nan

>  <Standardized_SMILES>  (351) 
NC(=O)c1nn(-c2ccc(F)cc2)c2c1CCc1ccc(NC(=O)c3cc(N4CCN(Cc5cnn(CCCO)c5)CC4)ncc3Cl)cc1-2

>  <Name>  (351) 
nan

>  <Pocket>  (351) 
nan

>  <ATP_Site>  (351) 
nan

>  <Peripheral>  (351) 
nan

>  <Num_H_Atoms_ProtBoundConf>  (351) 
nan

>  <Num_Resolved_Atoms>  (351) 
nan

>  <Num_Not_Resolved_Atoms>  (351) 
nan

$$$$
CHEMBL1669568
     RDKit          3D

  0  0  0  0  0  0  0  0  0  0999 V3000
M  V30 BEGIN CTAB
M  V30 COUNTS 80 86 0 0 0
M  V30 BEGIN ATOM
M  V30 1 C 2.830260 -4.935705 -2.966766 0
M  V30 2 C 2.491080 -4.787062 -1.536741 0
M  V30 3 C 3.310016 -4.206041 -0.570022 0
M  V30 4 C 4.639151 -3.580532 -0.656233 0
M  V30 5 N 4.680771 -2.247787 -1.120234 0
M  V30 6 C 4.118093 -1.934312 -2.362839 0
M  V30 7 C 4.161686 -0.475555 -2.740986 0
M  V30 8 N 4.660411 0.353519 -1.673187 0
M  V30 9 C 4.052072 1.467171 -1.045681 0
M  V30 10 C 2.722130 1.798542 -1.167083 0
M  V30 11 C 2.213058 2.931504 -0.518086 0
M  V30 12 C 0.765546 3.080810 -0.793986 0
M  V30 13 O 0.334762 3.904842 -1.630749 0
M  V30 14 N -0.176436 2.283109 -0.108106 0
M  V30 15 C -1.573686 2.232232 -0.194810 0
M  V30 16 C -2.369466 2.963329 -1.052748 0
M  V30 17 C -3.749885 2.895477 -1.116489 0
M  V30 18 C -4.416496 2.030795 -0.260230 0
M  V30 19 C -3.637287 1.292578 0.605844 0
M  V30 20 C -2.273494 1.388776 0.637334 0
M  V30 21 C -4.373975 0.395291 1.479964 0
M  V30 22 C -5.748811 0.318629 1.411871 0
M  V30 23 C -6.137805 -0.596650 2.367853 0
M  V30 24 C -7.471216 -1.071765 2.738982 0
M  V30 25 N -8.656904 -0.608230 2.108360 0
M  V30 26 O -7.716385 -1.930378 3.643221 0
M  V30 27 N -5.017680 -1.026868 2.959996 0
M  V30 28 N -3.949021 -0.440377 2.438063 0
M  V30 29 C -2.676284 -0.767852 2.941871 0
M  V30 30 C -2.260106 0.028506 4.003516 0
M  V30 31 C -1.031577 -0.196701 4.596803 0
M  V30 32 C -0.252516 -1.221279 4.103040 0
M  V30 33 F 0.981363 -1.511014 4.636044 0
M  V30 34 C -0.668209 -2.008073 3.051025 0
M  V30 35 C -1.903777 -1.815654 2.420698 0
M  V30 36 C -6.613384 1.074223 0.474656 0
M  V30 37 C -5.890931 2.029086 -0.400961 0
M  V30 38 C 3.051149 3.701273 0.234077 0
M  V30 39 Cl 2.268070 5.070727 0.973921 0
M  V30 40 C 4.378556 3.345141 0.338535 0
M  V30 41 N 4.842852 2.253958 -0.292870 0
M  V30 42 C 5.963567 -0.128172 -1.259834 0
M  V30 43 C 5.786076 -1.473933 -0.659178 0
M  V30 44 C 2.533283 -4.336785 0.581248 0
M  V30 45 N 1.362553 -4.943728 0.299976 0
M  V30 46 N 1.333449 -5.219990 -0.993930 0
M  V30 47 C 0.256403 -5.874171 -1.726051 0
M  V30 48 H 3.946838 -4.929539 -3.064571 0
M  V30 49 H 2.345840 -4.109970 -3.525320 0
M  V30 50 H 2.422840 -5.923068 -3.327774 0
M  V30 51 H 5.067221 -3.584774 0.388329 0
M  V30 52 H 5.356633 -4.220827 -1.238407 0
M  V30 53 H 3.012504 -2.166320 -2.298693 0
M  V30 54 H 4.515589 -2.599532 -3.150712 0
M  V30 55 H 4.919767 -0.403341 -3.578351 0
M  V30 56 H 3.218262 -0.104460 -3.194188 0
M  V30 57 H 2.160074 1.117623 -1.786246 0
M  V30 58 H 0.303698 1.627346 0.577354 0
M  V30 59 H -1.901495 3.651455 -1.740942 0
M  V30 60 H -4.291569 3.521786 -1.837548 0
M  V30 61 H -1.710711 0.799877 1.321793 0
M  V30 62 H -9.066070 -0.256128 1.203871 0
M  V30 63 H -9.087013 -0.251239 1.204170 0
M  V30 64 H -2.852038 0.831297 4.404230 0
M  V30 65 H -0.589645 0.340515 5.420620 0
M  V30 66 H -0.040949 -2.808402 2.676407 0
M  V30 67 H -2.272527 -2.399541 1.602176 0
M  V30 68 H -7.466778 1.516113 1.038637 0
M  V30 69 H -7.104249 0.273762 -0.160226 0
M  V30 70 H -6.123133 1.782815 -1.479549 0
M  V30 71 H -6.340266 3.057212 -0.282340 0
M  V30 72 H 4.975545 4.003455 0.950421 0
M  V30 73 H 6.417912 0.541438 -0.492482 0
M  V30 74 H 6.603260 -0.201192 -2.163507 0
M  V30 75 H 6.711257 -2.073468 -0.908491 0
M  V30 76 H 5.776994 -1.395664 0.443244 0
M  V30 77 H 2.736351 -4.036903 1.590240 0
M  V30 78 H -0.171295 -5.219372 -2.526858 0
M  V30 79 H -0.571695 -6.155374 -1.053370 0
M  V30 80 H 0.699240 -6.755032 -2.247207 0
M  V30 END ATOM
M  V30 BEGIN BOND
M  V30 1 1 1 2
M  V30 2 2 2 3
M  V30 3 1 3 4
M  V30 4 1 4 5
M  V30 5 1 5 6
M  V30 6 1 6 7
M  V30 7 1 7 8
M  V30 8 1 8 9
M  V30 9 2 9 10
M  V30 10 1 10 11
M  V30 11 1 11 12
M  V30 12 2 12 13
M  V30 13 1 12 14
M  V30 14 1 14 15
M  V30 15 2 15 16
M  V30 16 1 16 17
M  V30 17 2 17 18
M  V30 18 1 18 19
M  V30 19 2 19 20
M  V30 20 1 19 21
M  V30 21 2 21 22
M  V30 22 1 22 23
M  V30 23 1 23 24
M  V30 24 1 24 25
M  V30 25 2 24 26
M  V30 26 2 23 27
M  V30 27 1 27 28
M  V30 28 1 28 29
M  V30 29 2 29 30
M  V30 30 1 30 31
M  V30 31 2 31 32
M  V30 32 1 32 33
M  V30 33 1 32 34
M  V30 34 2 34 35
M  V30 35 1 22 36
M  V30 36 1 36 37
M  V30 37 2 11 38
M  V30 38 1 38 39
M  V30 39 1 38 40
M  V30 40 2 40 41
M  V30 41 1 8 42
M  V30 42 1 42 43
M  V30 43 1 3 44
M  V30 44 2 44 45
M  V30 45 1 45 46
M  V30 46 1 46 47
M  V30 47 1 46 2
M  V30 48 1 43 5
M  V30 49 1 41 9
M  V30 50 1 20 15
M  V30 51 1 28 21
M  V30 52 1 35 29
M  V30 53 1 37 18
M  V30 54 1 1 48
M  V30 55 1 1 49
M  V30 56 1 1 50
M  V30 57 1 4 51
M  V30 58 1 4 52
M  V30 59 1 6 53
M  V30 60 1 6 54
M  V30 61 1 7 55
M  V30 62 1 7 56
M  V30 63 1 10 57
M  V30 64 1 14 58
M  V30 65 1 16 59
M  V30 66 1 17 60
M  V30 67 1 20 61
M  V30 68 1 25 62
M  V30 69 1 25 63
M  V30 70 1 30 64
M  V30 71 1 31 65
M  V30 72 1 34 66
M  V30 73 1 35 67
M  V30 74 1 36 68
M  V30 75 1 36 69
M  V30 76 1 37 70
M  V30 77 1 37 71
M  V30 78 1 40 72
M  V30 79 1 42 73
M  V30 80 1 42 74
M  V30 81 1 43 75
M  V30 82 1 43 76
M  V30 83 1 44 77
M  V30 84 1 47 78
M  V30 85 1 47 79
M  V30 86 1 47 80
M  V30 END BOND
M  V30 END CTAB
M  END
>  <Dataset>  (352) 
ChEMBL_Kinases

>  <Ligand_Instance>  (352) 
nan

>  <PDB_ID>  (352) 
nan

>  <Standardized_SMILES>  (352) 
Cc1c(CN2CCN(c3cc(C(=O)Nc4ccc5c(c4)-c4c(c(C(N)=O)nn4-c4ccc(F)cc4)CC5)c(Cl)cn3)CC2)cnn1C

>  <Name>  (352) 
nan

>  <Pocket>  (352) 
nan

>  <ATP_Site>  (352) 
nan

>  <Peripheral>  (352) 
nan

>  <Num_H_Atoms_ProtBoundConf>  (352) 
nan

>  <Num_Resolved_Atoms>  (352) 
nan

>  <Num_Not_Resolved_Atoms>  (352) 
nan

$$$$
CHEMBL1669569
     RDKit          3D

  0  0  0  0  0  0  0  0  0  0999 V3000
M  V30 BEGIN CTAB
M  V30 COUNTS 80 86 0 0 0
M  V30 BEGIN ATOM
M  V30 1 C -0.659710 -4.700330 -0.612687 0
M  V30 2 N 0.758613 -4.892317 -0.822837 0
M  V30 3 C 1.453852 -4.571593 -1.936817 0
M  V30 4 C 2.801679 -4.903403 -1.773421 0
M  V30 5 C 3.784679 -4.658516 -2.843379 0
M  V30 6 N 4.429558 -3.393447 -2.816915 0
M  V30 7 C 5.184125 -3.077749 -1.650728 0
M  V30 8 C 5.512413 -1.583423 -1.740082 0
M  V30 9 N 4.268683 -0.838123 -1.542853 0
M  V30 10 C 4.175438 0.298495 -0.688967 0
M  V30 11 C 2.954052 0.836408 -0.347427 0
M  V30 12 C 2.900972 1.944415 0.468527 0
M  V30 13 C 1.611505 2.549278 0.857199 0
M  V30 14 O 1.098322 3.644256 0.589891 0
M  V30 15 N 0.947029 1.617803 1.673174 0
M  V30 16 C -0.320247 1.613798 2.352380 0
M  V30 17 C -0.317829 2.132755 3.649475 0
M  V30 18 C -1.482417 2.189972 4.427257 0
M  V30 19 C -2.677389 1.720686 3.905148 0
M  V30 20 C -2.641389 1.216402 2.624019 0
M  V30 21 C -1.515393 1.150096 1.844302 0
M  V30 22 C -3.918785 0.743682 2.118902 0
M  V30 23 C -5.003959 0.845349 2.947444 0
M  V30 24 C -6.052806 0.323111 2.206926 0
M  V30 25 C -7.447767 0.198554 2.640347 0
M  V30 26 N -8.384265 -0.341801 1.731827 0
M  V30 27 O -7.831119 0.553405 3.780367 0
M  V30 28 N -5.559952 -0.054864 1.005892 0
M  V30 29 N -4.266911 0.198770 0.949465 0
M  V30 30 C -3.537469 -0.118216 -0.221788 0
M  V30 31 C -3.526324 0.928092 -1.153710 0
M  V30 32 C -2.886530 0.827234 -2.374677 0
M  V30 33 C -2.238569 -0.361515 -2.667316 0
M  V30 34 F -1.597958 -0.522235 -3.845223 0
M  V30 35 C -2.238564 -1.398955 -1.764938 0
M  V30 36 C -2.873319 -1.309135 -0.544528 0
M  V30 37 C -5.112614 1.373453 4.305098 0
M  V30 38 C -3.790286 1.847134 4.839960 0
M  V30 39 C 4.055114 2.535234 0.957329 0
M  V30 40 Cl 3.950369 3.957290 2.002260 0
M  V30 41 C 5.258021 1.960778 0.588281 0
M  V30 42 N 5.280551 0.876302 -0.211393 0
M  V30 43 C 3.139561 -1.344586 -2.296035 0
M  V30 44 C 2.444589 -0.252423 -3.029734 0
M  V30 45 O 1.438520 -0.433523 -3.760250 0
M  V30 46 O 2.406843 1.099805 -3.313589 0
M  V30 47 C 3.673771 -2.314597 -3.354914 0
M  V30 48 C 2.854061 -5.435969 -0.501048 0
M  V30 49 N 1.617942 -5.411377 0.030466 0
M  V30 50 H -1.193030 -4.623972 -1.579286 0
M  V30 51 H -1.121883 -5.506526 -0.024270 0
M  V30 52 H -0.822867 -3.738851 -0.068666 0
M  V30 53 H 0.977725 -4.124475 -2.798345 0
M  V30 54 H 4.588412 -5.435593 -2.715222 0
M  V30 55 H 3.340450 -4.805252 -3.842532 0
M  V30 56 H 4.628583 -3.242355 -0.703102 0
M  V30 57 H 6.154547 -3.613190 -1.695561 0
M  V30 58 H 6.223779 -1.275913 -0.961992 0
M  V30 59 H 5.950939 -1.354472 -2.724331 0
M  V30 60 H 2.018530 0.420410 -0.693547 0
M  V30 61 H 1.214714 0.645430 2.011147 0
M  V30 62 H 0.619195 2.502616 4.064275 0
M  V30 63 H -1.352124 2.614754 5.418517 0
M  V30 64 H -1.481892 0.759196 0.847537 0
M  V30 65 H -9.196622 -0.599078 1.165186 0
M  V30 66 H -8.211726 -1.084126 1.012661 0
M  V30 67 H -4.006976 1.888086 -1.004603 0
M  V30 68 H -2.858532 1.599987 -3.102625 0
M  V30 69 H -1.749613 -2.326606 -1.958636 0
M  V30 70 H -2.940279 -2.051453 0.237630 0
M  V30 71 H -5.540974 0.616214 5.013591 0
M  V30 72 H -5.825850 2.228905 4.269668 0
M  V30 73 H -3.518374 1.253142 5.758368 0
M  V30 74 H -3.880599 2.924340 5.136345 0
M  V30 75 H 6.129037 2.468487 1.003188 0
M  V30 76 H 2.455571 -1.856446 -1.624694 0
M  V30 77 H 2.982695 1.531061 -4.033810 0
M  V30 78 H 4.380743 -1.701994 -3.970698 0
M  V30 79 H 2.871345 -2.620818 -4.038603 0
M  V30 80 H 3.817799 -5.784520 -0.114456 0
M  V30 END ATOM
M  V30 BEGIN BOND
M  V30 1 1 1 2
M  V30 2 1 2 3
M  V30 3 2 3 4
M  V30 4 1 4 5
M  V30 5 1 5 6
M  V30 6 1 6 7
M  V30 7 1 7 8
M  V30 8 1 8 9
M  V30 9 1 9 10
M  V30 10 2 10 11
M  V30 11 1 11 12
M  V30 12 1 12 13
M  V30 13 2 13 14
M  V30 14 1 13 15
M  V30 15 1 15 16
M  V30 16 2 16 17
M  V30 17 1 17 18
M  V30 18 2 18 19
M  V30 19 1 19 20
M  V30 20 2 20 21
M  V30 21 1 20 22
M  V30 22 2 22 23
M  V30 23 1 23 24
M  V30 24 1 24 25
M  V30 25 1 25 26
M  V30 26 2 25 27
M  V30 27 2 24 28
M  V30 28 1 28 29
M  V30 29 1 29 30
M  V30 30 2 30 31
M  V30 31 1 31 32
M  V30 32 2 32 33
M  V30 33 1 33 34
M  V30 34 1 33 35
M  V30 35 2 35 36
M  V30 36 1 23 37
M  V30 37 1 37 38
M  V30 38 2 12 39
M  V30 39 1 39 40
M  V30 40 1 39 41
M  V30 41 2 41 42
M  V30 42 1 9 43
M  V30 43 1 43 44
M  V30 44 2 44 45
M  V30 45 1 44 46
M  V30 46 1 43 47
M  V30 47 1 4 48
M  V30 48 2 48 49
M  V30 49 1 49 2
M  V30 50 1 47 6
M  V30 51 1 42 10
M  V30 52 1 21 16
M  V30 53 1 29 22
M  V30 54 1 36 30
M  V30 55 1 38 19
M  V30 56 1 1 50
M  V30 57 1 1 51
M  V30 58 1 1 52
M  V30 59 1 3 53
M  V30 60 1 5 54
M  V30 61 1 5 55
M  V30 62 1 7 56
M  V30 63 1 7 57
M  V30 64 1 8 58
M  V30 65 1 8 59
M  V30 66 1 11 60
M  V30 67 1 15 61
M  V30 68 1 17 62
M  V30 69 1 18 63
M  V30 70 1 21 64
M  V30 71 1 26 65
M  V30 72 1 26 66
M  V30 73 1 31 67
M  V30 74 1 32 68
M  V30 75 1 35 69
M  V30 76 1 36 70
M  V30 77 1 37 71
M  V30 78 1 37 72
M  V30 79 1 38 73
M  V30 80 1 38 74
M  V30 81 1 41 75
M  V30 82 1 43 76
M  V30 83 1 46 77
M  V30 84 1 47 78
M  V30 85 1 47 79
M  V30 86 1 48 80
M  V30 END BOND
M  V30 END CTAB
M  END
>  <Dataset>  (353) 
ChEMBL_Kinases

>  <Ligand_Instance>  (353) 
nan

>  <PDB_ID>  (353) 
nan

>  <Standardized_SMILES>  (353) 
Cn1cc(CN2CCN(c3cc(C(=O)Nc4ccc5c(c4)-c4c(c(C(N)=O)nn4-c4ccc(F)cc4)CC5)c(Cl)cn3)C(C(=O)O)C2)cn1

>  <Name>  (353) 
nan

>  <Pocket>  (353) 
nan

>  <ATP_Site>  (353) 
nan

>  <Peripheral>  (353) 
nan

>  <Num_H_Atoms_ProtBoundConf>  (353) 
nan

>  <Num_Resolved_Atoms>  (353) 
nan

>  <Num_Not_Resolved_Atoms>  (353) 
nan

$$$$
CHEMBL1669570
     RDKit          3D

  0  0  0  0  0  0  0  0  0  0999 V3000
M  V30 BEGIN CTAB
M  V30 COUNTS 80 86 0 0 0
M  V30 BEGIN ATOM
M  V30 1 C 2.409115 -7.102480 0.307624 0
M  V30 2 N 3.274655 -6.242536 -0.479190 0
M  V30 3 C 2.864003 -5.322852 -1.384641 0
M  V30 4 C 4.003463 -4.715958 -1.913291 0
M  V30 5 C 3.783543 -3.646715 -2.954408 0
M  V30 6 N 3.653467 -2.360957 -2.312512 0
M  V30 7 C 4.877048 -2.069248 -1.635183 0
M  V30 8 C 5.256557 -0.604148 -1.716230 0
M  V30 9 N 4.048364 0.224288 -1.564139 0
M  V30 10 C 3.819398 1.142232 -0.495778 0
M  V30 11 C 2.623212 1.688812 -0.163048 0
M  V30 12 C 2.491338 2.590778 0.884843 0
M  V30 13 C 1.098029 3.058404 1.083164 0
M  V30 14 O 0.560388 4.112711 0.661354 0
M  V30 15 N 0.428420 2.104554 1.853097 0
M  V30 16 C -0.883911 1.910673 2.403800 0
M  V30 17 C -1.028669 2.447481 3.692690 0
M  V30 18 C -2.221983 2.377303 4.430406 0
M  V30 19 C -3.295013 1.744304 3.841035 0
M  V30 20 C -3.144830 1.221573 2.577397 0
M  V30 21 C -1.982170 1.286407 1.851373 0
M  V30 22 C -4.309034 0.578968 2.005931 0
M  V30 23 C -5.463734 0.531552 2.739342 0
M  V30 24 C -6.401409 -0.141052 1.943891 0
M  V30 25 C -7.807301 -0.449804 2.290423 0
M  V30 26 N -8.548487 -1.148614 1.265764 0
M  V30 27 O -8.255122 -0.099876 3.410117 0
M  V30 28 N -5.746575 -0.441590 0.809181 0
M  V30 29 N -4.495198 -0.020375 0.825888 0
M  V30 30 C -3.667850 -0.256546 -0.298183 0
M  V30 31 C -3.751634 0.785214 -1.232533 0
M  V30 32 C -3.037973 0.753707 -2.412111 0
M  V30 33 C -2.223711 -0.328481 -2.676604 0
M  V30 34 F -1.474267 -0.483400 -3.791149 0
M  V30 35 C -2.138924 -1.354528 -1.759726 0
M  V30 36 C -2.839141 -1.353040 -0.572089 0
M  V30 37 C -5.701970 1.075215 4.080496 0
M  V30 38 C -4.490057 1.705794 4.680253 0
M  V30 39 C 3.609860 2.945092 1.611964 0
M  V30 40 Cl 3.341391 4.072270 2.892871 0
M  V30 41 C 4.818654 2.375083 1.254597 0
M  V30 42 N 4.921962 1.493963 0.225143 0
M  V30 43 C 3.125021 0.009238 -2.636186 0
M  V30 44 C 3.239004 -1.369326 -3.244843 0
M  V30 45 C 1.897533 -1.760688 -3.798325 0
M  V30 46 O 1.027826 -2.665217 -3.706539 0
M  V30 47 O 1.532508 -0.755494 -4.717569 0
M  V30 48 C 5.074125 -5.314557 -1.285023 0
M  V30 49 N 4.609681 -6.231621 -0.424708 0
M  V30 50 H 2.175576 -8.065080 -0.205207 0
M  V30 51 H 2.903519 -7.359392 1.278136 0
M  V30 52 H 1.456199 -6.582642 0.463237 0
M  V30 53 H 1.803125 -5.159179 -1.593530 0
M  V30 54 H 4.712917 -3.565115 -3.595366 0
M  V30 55 H 2.986658 -3.918587 -3.641421 0
M  V30 56 H 4.760504 -2.390760 -0.580616 0
M  V30 57 H 5.701134 -2.655040 -2.093465 0
M  V30 58 H 5.917161 -0.375749 -0.848681 0
M  V30 59 H 5.795821 -0.366128 -2.647568 0
M  V30 60 H 1.791541 1.369111 -0.771364 0
M  V30 61 H 0.794314 1.186345 2.249958 0
M  V30 62 H -0.185609 2.960005 4.187662 0
M  V30 63 H -2.236968 2.822557 5.418612 0
M  V30 64 H -1.809149 0.897939 0.868507 0
M  V30 65 H -8.382276 -2.165304 1.022020 0
M  V30 66 H -9.315948 -0.988397 0.561480 0
M  V30 67 H -4.356837 1.675071 -1.123976 0
M  V30 68 H -3.083960 1.548098 -3.157194 0
M  V30 69 H -1.530605 -2.246461 -1.870949 0
M  V30 70 H -2.852536 -2.091111 0.213817 0
M  V30 71 H -6.131265 0.265634 4.719416 0
M  V30 72 H -6.518356 1.853654 4.036979 0
M  V30 73 H -4.267407 1.147519 5.629502 0
M  V30 74 H -4.745686 2.736566 5.016324 0
M  V30 75 H 5.678275 2.677798 1.851721 0
M  V30 76 H 3.446377 0.724428 -3.451586 0
M  V30 77 H 2.078821 0.226127 -2.431526 0
M  V30 78 H 3.933854 -1.389150 -4.102100 0
M  V30 79 H 0.718662 -0.829656 -5.316049 0
M  V30 80 H 6.053954 -4.968158 -1.571599 0
M  V30 END ATOM
M  V30 BEGIN BOND
M  V30 1 1 1 2
M  V30 2 1 2 3
M  V30 3 2 3 4
M  V30 4 1 4 5
M  V30 5 1 5 6
M  V30 6 1 6 7
M  V30 7 1 7 8
M  V30 8 1 8 9
M  V30 9 1 9 10
M  V30 10 2 10 11
M  V30 11 1 11 12
M  V30 12 1 12 13
M  V30 13 2 13 14
M  V30 14 1 13 15
M  V30 15 1 15 16
M  V30 16 2 16 17
M  V30 17 1 17 18
M  V30 18 2 18 19
M  V30 19 1 19 20
M  V30 20 2 20 21
M  V30 21 1 20 22
M  V30 22 2 22 23
M  V30 23 1 23 24
M  V30 24 1 24 25
M  V30 25 1 25 26
M  V30 26 2 25 27
M  V30 27 2 24 28
M  V30 28 1 28 29
M  V30 29 1 29 30
M  V30 30 2 30 31
M  V30 31 1 31 32
M  V30 32 2 32 33
M  V30 33 1 33 34
M  V30 34 1 33 35
M  V30 35 2 35 36
M  V30 36 1 23 37
M  V30 37 1 37 38
M  V30 38 2 12 39
M  V30 39 1 39 40
M  V30 40 1 39 41
M  V30 41 2 41 42
M  V30 42 1 9 43
M  V30 43 1 43 44
M  V30 44 1 44 45
M  V30 45 2 45 46
M  V30 46 1 45 47
M  V30 47 1 4 48
M  V30 48 2 48 49
M  V30 49 1 49 2
M  V30 50 1 44 6
M  V30 51 1 42 10
M  V30 52 1 21 16
M  V30 53 1 29 22
M  V30 54 1 36 30
M  V30 55 1 38 19
M  V30 56 1 1 50
M  V30 57 1 1 51
M  V30 58 1 1 52
M  V30 59 1 3 53
M  V30 60 1 5 54
M  V30 61 1 5 55
M  V30 62 1 7 56
M  V30 63 1 7 57
M  V30 64 1 8 58
M  V30 65 1 8 59
M  V30 66 1 11 60
M  V30 67 1 15 61
M  V30 68 1 17 62
M  V30 69 1 18 63
M  V30 70 1 21 64
M  V30 71 1 26 65
M  V30 72 1 26 66
M  V30 73 1 31 67
M  V30 74 1 32 68
M  V30 75 1 35 69
M  V30 76 1 36 70
M  V30 77 1 37 71
M  V30 78 1 37 72
M  V30 79 1 38 73
M  V30 80 1 38 74
M  V30 81 1 41 75
M  V30 82 1 43 76
M  V30 83 1 43 77
M  V30 84 1 44 78
M  V30 85 1 47 79
M  V30 86 1 48 80
M  V30 END BOND
M  V30 END CTAB
M  END
>  <Dataset>  (354) 
ChEMBL_Kinases

>  <Ligand_Instance>  (354) 
nan

>  <PDB_ID>  (354) 
nan

>  <Standardized_SMILES>  (354) 
Cn1cc(CN2CCN(c3cc(C(=O)Nc4ccc5c(c4)-c4c(c(C(N)=O)nn4-c4ccc(F)cc4)CC5)c(Cl)cn3)CC2C(=O)O)cn1

>  <Name>  (354) 
nan

>  <Pocket>  (354) 
nan

>  <ATP_Site>  (354) 
nan

>  <Peripheral>  (354) 
nan

>  <Num_H_Atoms_ProtBoundConf>  (354) 
nan

>  <Num_Resolved_Atoms>  (354) 
nan

>  <Num_Not_Resolved_Atoms>  (354) 
nan

$$$$
CHEMBL1669571
     RDKit          3D

  0  0  0  0  0  0  0  0  0  0999 V3000
M  V30 BEGIN CTAB
M  V30 COUNTS 74 80 0 0 0
M  V30 BEGIN ATOM
M  V30 1 N -0.606750 6.368133 6.123310 0
M  V30 2 C 0.239922 5.948060 5.065655 0
M  V30 3 O 1.182624 6.696876 4.677440 0
M  V30 4 C 0.092682 4.681388 4.380153 0
M  V30 5 N 0.895368 4.278038 3.377391 0
M  V30 6 N 0.507837 3.068779 2.950583 0
M  V30 7 C 1.234862 2.468565 1.889659 0
M  V30 8 C 2.352419 1.630942 2.010801 0
M  V30 9 C 2.967923 1.126556 0.891549 0
M  V30 10 C 2.528466 1.411540 -0.380176 0
M  V30 11 F 3.115488 0.928593 -1.500597 0
M  V30 12 C 1.434738 2.228838 -0.567601 0
M  V30 13 C 0.834558 2.722358 0.570368 0
M  V30 14 C -0.534916 2.683184 3.663188 0
M  V30 15 C -0.838654 3.665756 4.581121 0
M  V30 16 C -1.913798 3.679127 5.580956 0
M  V30 17 C -2.757711 2.454550 5.573839 0
M  V30 18 C -2.371013 1.442008 4.554694 0
M  V30 19 C -3.169609 0.296793 4.545972 0
M  V30 20 C -2.888282 -0.700410 3.635587 0
M  V30 21 C -1.864205 -0.651543 2.720943 0
M  V30 22 N -1.546526 -1.652691 1.771383 0
M  V30 23 C -2.170651 -2.898284 1.521996 0
M  V30 24 O -3.164039 -3.233036 2.209568 0
M  V30 25 C -1.748597 -3.854210 0.507022 0
M  V30 26 C -1.806219 -3.412535 -0.820376 0
M  V30 27 C -1.417610 -4.274187 -1.820031 0
M  V30 28 N -1.438913 -3.918151 -3.193104 0
M  V30 29 C -1.838615 -2.661655 -3.790142 0
M  V30 30 C -0.615262 -2.064246 -4.462073 0
M  V30 31 N 0.527982 -2.960325 -4.329958 0
M  V30 32 C 1.683585 -2.377293 -4.940431 0
M  V30 33 C 2.901467 -3.248568 -4.840075 0
M  V30 34 C 3.816464 -3.200445 -3.784054 0
M  V30 35 N 4.791905 -4.120045 -4.013331 0
M  V30 36 N 4.527883 -4.741926 -5.166568 0
M  V30 37 C 3.395208 -4.228940 -5.674670 0
M  V30 38 C 0.224141 -4.273347 -4.869495 0
M  V30 39 C -1.035545 -4.827187 -4.244486 0
M  V30 40 N -0.994917 -5.507729 -1.516717 0
M  V30 41 C -0.919781 -5.979962 -0.272565 0
M  V30 42 C -1.302918 -5.136991 0.745018 0
M  V30 43 Cl -1.236181 -5.672204 2.395574 0
M  V30 44 C -1.086725 0.484102 2.742935 0
M  V30 45 C -1.337117 1.489430 3.629952 0
M  V30 46 H -0.859584 6.285565 7.131915 0
M  V30 47 H -0.873936 6.294042 7.145257 0
M  V30 48 H 2.661461 1.434906 3.027475 0
M  V30 49 H 3.831139 0.480321 1.008807 0
M  V30 50 H 1.032994 2.496404 -1.532134 0
M  V30 51 H -0.039453 3.375990 0.431781 0
M  V30 52 H -1.540924 3.866487 6.612037 0
M  V30 53 H -2.568536 4.564051 5.327560 0
M  V30 54 H -3.829784 2.734270 5.393762 0
M  V30 55 H -2.754499 1.976778 6.577550 0
M  V30 56 H -4.011899 0.177294 5.246712 0
M  V30 57 H -3.533307 -1.561402 3.670513 0
M  V30 58 H -0.742171 -1.524751 1.120370 0
M  V30 59 H -2.147269 -2.423037 -1.040673 0
M  V30 60 H -2.151935 -1.924234 -3.009266 0
M  V30 61 H -2.644719 -2.804327 -4.544974 0
M  V30 62 H -0.298632 -1.104928 -3.991555 0
M  V30 63 H -0.852039 -1.848433 -5.511237 0
M  V30 64 H 1.519309 -2.198377 -6.034749 0
M  V30 65 H 1.934886 -1.424880 -4.433785 0
M  V30 66 H 3.809823 -2.555977 -2.891920 0
M  V30 67 H 5.128886 -5.491245 -5.562847 0
M  V30 68 H 2.891993 -4.490698 -6.583610 0
M  V30 69 H 0.076746 -4.200630 -5.973228 0
M  V30 70 H 1.110559 -4.923829 -4.634059 0
M  V30 71 H -1.842501 -4.895318 -5.027226 0
M  V30 72 H -0.858053 -5.855071 -3.845399 0
M  V30 73 H -0.570902 -6.987674 -0.071553 0
M  V30 74 H -0.292414 0.555789 2.055735 0
M  V30 END ATOM
M  V30 BEGIN BOND
M  V30 1 1 1 2
M  V30 2 2 2 3
M  V30 3 1 2 4
M  V30 4 2 4 5
M  V30 5 1 5 6
M  V30 6 1 6 7
M  V30 7 2 7 8
M  V30 8 1 8 9
M  V30 9 2 9 10
M  V30 10 1 10 11
M  V30 11 1 10 12
M  V30 12 2 12 13
M  V30 13 1 6 14
M  V30 14 2 14 15
M  V30 15 1 15 16
M  V30 16 1 16 17
M  V30 17 1 17 18
M  V30 18 2 18 19
M  V30 19 1 19 20
M  V30 20 2 20 21
M  V30 21 1 21 22
M  V30 22 1 22 23
M  V30 23 2 23 24
M  V30 24 1 23 25
M  V30 25 2 25 26
M  V30 26 1 26 27
M  V30 27 1 27 28
M  V30 28 1 28 29
M  V30 29 1 29 30
M  V30 30 1 30 31
M  V30 31 1 31 32
M  V30 32 1 32 33
M  V30 33 1 33 34
M  V30 34 2 34 35
M  V30 35 1 35 36
M  V30 36 1 36 37
M  V30 37 1 31 38
M  V30 38 1 38 39
M  V30 39 2 27 40
M  V30 40 1 40 41
M  V30 41 2 41 42
M  V30 42 1 42 43
M  V30 43 1 21 44
M  V30 44 2 44 45
M  V30 45 1 15 4
M  V30 46 1 45 18
M  V30 47 1 13 7
M  V30 48 1 45 14
M  V30 49 1 42 25
M  V30 50 1 39 28
M  V30 51 2 37 33
M  V30 52 1 1 46
M  V30 53 1 1 47
M  V30 54 1 8 48
M  V30 55 1 9 49
M  V30 56 1 12 50
M  V30 57 1 13 51
M  V30 58 1 16 52
M  V30 59 1 16 53
M  V30 60 1 17 54
M  V30 61 1 17 55
M  V30 62 1 19 56
M  V30 63 1 20 57
M  V30 64 1 22 58
M  V30 65 1 26 59
M  V30 66 1 29 60
M  V30 67 1 29 61
M  V30 68 1 30 62
M  V30 69 1 30 63
M  V30 70 1 32 64
M  V30 71 1 32 65
M  V30 72 1 34 66
M  V30 73 1 36 67
M  V30 74 1 37 68
M  V30 75 1 38 69
M  V30 76 1 38 70
M  V30 77 1 39 71
M  V30 78 1 39 72
M  V30 79 1 41 73
M  V30 80 1 44 74
M  V30 END BOND
M  V30 END CTAB
M  END
>  <Dataset>  (355) 
ChEMBL_Kinases

>  <Ligand_Instance>  (355) 
nan

>  <PDB_ID>  (355) 
nan

>  <Standardized_SMILES>  (355) 
NC(=O)c1nn(-c2ccc(F)cc2)c2c1CCc1ccc(NC(=O)c3cc(N4CCN(Cc5cn[nH]c5)CC4)ncc3Cl)cc1-2

>  <Name>  (355) 
nan

>  <Pocket>  (355) 
nan

>  <ATP_Site>  (355) 
nan

>  <Peripheral>  (355) 
nan

>  <Num_H_Atoms_ProtBoundConf>  (355) 
nan

>  <Num_Resolved_Atoms>  (355) 
nan

>  <Num_Not_Resolved_Atoms>  (355) 
nan

$$$$
CHEMBL1669572
     RDKit          3D

  0  0  0  0  0  0  0  0  0  0999 V3000
M  V30 BEGIN CTAB
M  V30 COUNTS 80 86 0 0 0
M  V30 BEGIN ATOM
M  V30 1 C 4.775516 -7.144650 2.991192 0
M  V30 2 C 3.395510 -6.563590 3.106799 0
M  V30 3 N 3.381065 -5.117054 2.940138 0
M  V30 4 C 3.226133 -4.501177 1.739885 0
M  V30 5 C 3.256223 -3.131781 1.906403 0
M  V30 6 C 3.114373 -2.176106 0.780141 0
M  V30 7 N 4.349388 -1.827074 0.174676 0
M  V30 8 C 5.302188 -1.175600 1.033211 0
M  V30 9 C 5.313762 0.321612 0.945806 0
M  V30 10 N 4.013493 0.795035 0.510028 0
M  V30 11 C 3.172767 1.612337 1.324579 0
M  V30 12 C 1.890887 1.994228 0.998300 0
M  V30 13 C 1.142180 2.805586 1.852561 0
M  V30 14 C -0.204305 3.109211 1.318485 0
M  V30 15 O -0.809546 4.080889 0.821638 0
M  V30 16 N -0.972965 1.895231 1.441209 0
M  V30 17 C -2.319899 1.573939 1.095481 0
M  V30 18 C -3.277415 1.840552 2.049902 0
M  V30 19 C -4.627616 1.559906 1.811517 0
M  V30 20 C -5.044334 0.999954 0.596907 0
M  V30 21 C -4.063765 0.746508 -0.331955 0
M  V30 22 C -2.743997 1.023143 -0.094335 0
M  V30 23 C -4.511295 0.175700 -1.571441 0
M  V30 24 C -5.865973 -0.040190 -1.665644 0
M  V30 25 C -6.006657 -0.597820 -2.945406 0
M  V30 26 C -7.245006 -1.038674 -3.607950 0
M  V30 27 N -7.196748 -1.586438 -4.918666 0
M  V30 28 O -8.359939 -0.950630 -3.057366 0
M  V30 29 N -4.783251 -0.675429 -3.508274 0
M  V30 30 N -3.869698 -0.207983 -2.681115 0
M  V30 31 C -2.494440 -0.171933 -3.017185 0
M  V30 32 C -2.053911 0.996700 -3.653519 0
M  V30 33 C -0.736218 1.108189 -4.023329 0
M  V30 34 C 0.176985 0.112882 -3.793731 0
M  V30 35 F 1.489608 0.135782 -4.121724 0
M  V30 36 C -0.249545 -1.045561 -3.165629 0
M  V30 37 C -1.567279 -1.196273 -2.778045 0
M  V30 38 C -6.969594 0.212355 -0.741612 0
M  V30 39 C -6.503942 0.783990 0.562309 0
M  V30 40 C 1.705620 3.228548 3.044781 0
M  V30 41 Cl 0.634578 4.232630 3.987350 0
M  V30 42 C 2.984590 2.830974 3.341319 0
M  V30 43 N 3.673380 2.050729 2.495862 0
M  V30 44 C 3.713770 0.347052 -0.813657 0
M  V30 45 C 4.212665 -1.064409 -1.038860 0
M  V30 46 C 3.436728 -2.994864 3.268005 0
M  V30 47 N 3.510492 -4.170837 3.878975 0
M  V30 48 H 5.594523 -6.425996 3.081348 0
M  V30 49 H 4.883518 -7.956528 3.757802 0
M  V30 50 H 4.822476 -7.690382 2.007804 0
M  V30 51 H 2.950050 -6.827559 4.091465 0
M  V30 52 H 2.704951 -7.003821 2.336415 0
M  V30 53 H 3.099297 -5.024284 0.799225 0
M  V30 54 H 2.712438 -1.238140 1.257011 0
M  V30 55 H 2.435808 -2.605318 0.047518 0
M  V30 56 H 6.313776 -1.533582 0.671238 0
M  V30 57 H 5.225082 -1.544239 2.077896 0
M  V30 58 H 6.050802 0.659638 0.160227 0
M  V30 59 H 5.623690 0.803992 1.897141 0
M  V30 60 H 1.520810 1.632913 0.066999 0
M  V30 61 H -0.715285 0.936113 1.823574 0
M  V30 62 H -2.984648 2.276335 3.003561 0
M  V30 63 H -5.302910 1.814853 2.644079 0
M  V30 64 H -1.971360 0.829009 -0.811539 0
M  V30 65 H -6.677476 -2.258766 -5.523298 0
M  V30 66 H -7.909575 -1.236480 -5.570915 0
M  V30 67 H -2.661967 1.851013 -3.893278 0
M  V30 68 H -0.331389 1.982457 -4.517458 0
M  V30 69 H 0.429933 -1.883421 -2.950695 0
M  V30 70 H -1.995145 -2.066438 -2.280888 0
M  V30 71 H -7.643222 0.958213 -1.229272 0
M  V30 72 H -7.592324 -0.712048 -0.564112 0
M  V30 73 H -6.841128 0.167496 1.434471 0
M  V30 74 H -6.955016 1.818100 0.661732 0
M  V30 75 H 3.344370 3.206470 4.289888 0
M  V30 76 H 2.682700 0.519452 -1.162382 0
M  V30 77 H 4.339896 0.999292 -1.496252 0
M  V30 78 H 5.195622 -1.069937 -1.598496 0
M  V30 79 H 3.527606 -1.612160 -1.751036 0
M  V30 80 H 3.500946 -1.990382 3.716024 0
M  V30 END ATOM
M  V30 BEGIN BOND
M  V30 1 1 1 2
M  V30 2 1 2 3
M  V30 3 1 3 4
M  V30 4 2 4 5
M  V30 5 1 5 6
M  V30 6 1 6 7
M  V30 7 1 7 8
M  V30 8 1 8 9
M  V30 9 1 9 10
M  V30 10 1 10 11
M  V30 11 2 11 12
M  V30 12 1 12 13
M  V30 13 1 13 14
M  V30 14 2 14 15
M  V30 15 1 14 16
M  V30 16 1 16 17
M  V30 17 2 17 18
M  V30 18 1 18 19
M  V30 19 2 19 20
M  V30 20 1 20 21
M  V30 21 2 21 22
M  V30 22 1 21 23
M  V30 23 2 23 24
M  V30 24 1 24 25
M  V30 25 1 25 26
M  V30 26 1 26 27
M  V30 27 2 26 28
M  V30 28 2 25 29
M  V30 29 1 29 30
M  V30 30 1 30 31
M  V30 31 2 31 32
M  V30 32 1 32 33
M  V30 33 2 33 34
M  V30 34 1 34 35
M  V30 35 1 34 36
M  V30 36 2 36 37
M  V30 37 1 24 38
M  V30 38 1 38 39
M  V30 39 2 13 40
M  V30 40 1 40 41
M  V30 41 1 40 42
M  V30 42 2 42 43
M  V30 43 1 10 44
M  V30 44 1 44 45
M  V30 45 1 5 46
M  V30 46 2 46 47
M  V30 47 1 47 3
M  V30 48 1 45 7
M  V30 49 1 43 11
M  V30 50 1 22 17
M  V30 51 1 30 23
M  V30 52 1 37 31
M  V30 53 1 39 20
M  V30 54 1 1 48
M  V30 55 1 1 49
M  V30 56 1 1 50
M  V30 57 1 2 51
M  V30 58 1 2 52
M  V30 59 1 4 53
M  V30 60 1 6 54
M  V30 61 1 6 55
M  V30 62 1 8 56
M  V30 63 1 8 57
M  V30 64 1 9 58
M  V30 65 1 9 59
M  V30 66 1 12 60
M  V30 67 1 16 61
M  V30 68 1 18 62
M  V30 69 1 19 63
M  V30 70 1 22 64
M  V30 71 1 27 65
M  V30 72 1 27 66
M  V30 73 1 32 67
M  V30 74 1 33 68
M  V30 75 1 36 69
M  V30 76 1 37 70
M  V30 77 1 38 71
M  V30 78 1 38 72
M  V30 79 1 39 73
M  V30 80 1 39 74
M  V30 81 1 42 75
M  V30 82 1 44 76
M  V30 83 1 44 77
M  V30 84 1 45 78
M  V30 85 1 45 79
M  V30 86 1 46 80
M  V30 END BOND
M  V30 END CTAB
M  END
>  <Dataset>  (356) 
ChEMBL_Kinases

>  <Ligand_Instance>  (356) 
nan

>  <PDB_ID>  (356) 
nan

>  <Standardized_SMILES>  (356) 
CCn1cc(CN2CCN(c3cc(C(=O)Nc4ccc5c(c4)-c4c(c(C(N)=O)nn4-c4ccc(F)cc4)CC5)c(Cl)cn3)CC2)cn1

>  <Name>  (356) 
nan

>  <Pocket>  (356) 
nan

>  <ATP_Site>  (356) 
nan

>  <Peripheral>  (356) 
nan

>  <Num_H_Atoms_ProtBoundConf>  (356) 
nan

>  <Num_Resolved_Atoms>  (356) 
nan

>  <Num_Not_Resolved_Atoms>  (356) 
nan

$$$$
CHEMBL1669573
     RDKit          3D

  0  0  0  0  0  0  0  0  0  0999 V3000
M  V30 BEGIN CTAB
M  V30 COUNTS 81 87 0 0 0
M  V30 BEGIN ATOM
M  V30 1 N 3.684597 -3.780646 3.822955 0
M  V30 2 C 4.081065 -3.275152 2.860467 0
M  V30 3 C 4.607958 -2.643055 1.632250 0
M  V30 4 C 4.289078 -1.177411 1.746515 0
M  V30 5 N 4.738014 -0.405943 0.610965 0
M  V30 6 C 3.934594 -0.220570 -0.462179 0
M  V30 7 C 4.561171 0.558459 -1.447158 0
M  V30 8 C 3.901091 0.920903 -2.743962 0
M  V30 9 N 3.153845 2.099072 -2.685023 0
M  V30 10 C 3.737622 3.341091 -2.429591 0
M  V30 11 C 2.675238 4.330628 -1.958415 0
M  V30 12 N 1.511206 3.553815 -1.578633 0
M  V30 13 C 1.098960 3.407488 -0.233105 0
M  V30 14 C 0.241941 2.428545 0.243985 0
M  V30 15 C -0.068179 2.433717 1.611140 0
M  V30 16 C -0.979070 1.336138 2.005740 0
M  V30 17 O -0.286092 0.258179 1.918461 0
M  V30 18 N -2.349886 1.192456 2.431226 0
M  V30 19 C -2.409269 -0.218147 2.609129 0
M  V30 20 C -2.125613 -0.664917 3.879813 0
M  V30 21 C -2.149268 -2.040300 4.112036 0
M  V30 22 C -2.455433 -2.869886 3.053103 0
M  V30 23 C -2.733529 -2.388366 1.796701 0
M  V30 24 C -2.716557 -1.039960 1.546641 0
M  V30 25 C -3.030061 -3.318083 0.751726 0
M  V30 26 C -3.022764 -4.643375 1.054581 0
M  V30 27 C -3.329678 -5.307151 -0.114338 0
M  V30 28 C -3.487025 -6.695354 -0.523259 0
M  V30 29 N -3.298005 -7.772630 0.373766 0
M  V30 30 O -3.792049 -7.141028 -1.648383 0
M  V30 31 N -3.503196 -4.339187 -1.049544 0
M  V30 32 N -3.324991 -3.132449 -0.539477 0
M  V30 33 C -3.455272 -1.964720 -1.339668 0
M  V30 34 C -2.459619 -1.303189 -2.077689 0
M  V30 35 C -2.812950 -0.185993 -2.803761 0
M  V30 36 C -4.099110 0.292621 -2.824401 0
M  V30 37 F -4.357037 1.395345 -3.564404 0
M  V30 38 C -5.102513 -0.331839 -2.111325 0
M  V30 39 C -4.761691 -1.451526 -1.380367 0
M  V30 40 C -2.746104 -5.266512 2.369767 0
M  V30 41 C -2.437842 -4.297732 3.456262 0
M  V30 42 C 0.430653 3.350359 2.479628 0
M  V30 43 Cl -0.004753 3.282393 4.149774 0
M  V30 44 C 1.279901 4.297559 1.928777 0
M  V30 45 N 1.591298 4.310677 0.620642 0
M  V30 46 C 0.912291 3.006483 -2.811794 0
M  V30 47 C 2.014733 2.207447 -3.542775 0
M  V30 48 C 5.806365 0.819851 -0.867053 0
M  V30 49 N 5.847504 0.232323 0.328291 0
M  V30 50 H 4.186753 -3.136626 0.757619 0
M  V30 51 H 5.709136 -2.782853 1.659059 0
M  V30 52 H 3.190437 -1.031201 1.933339 0
M  V30 53 H 4.812450 -0.785487 2.642731 0
M  V30 54 H 2.924835 -0.608690 -0.585700 0
M  V30 55 H 4.661682 0.886144 -3.573486 0
M  V30 56 H 3.210598 0.076887 -2.992131 0
M  V30 57 H 4.156490 3.765809 -3.387914 0
M  V30 58 H 4.608990 3.334571 -1.742118 0
M  V30 59 H 2.394214 5.020916 -2.770173 0
M  V30 60 H 3.051531 4.926329 -1.095944 0
M  V30 61 H -0.138739 1.713180 -0.477160 0
M  V30 62 H -2.744092 2.143672 2.440950 0
M  V30 63 H -1.890865 0.024147 4.679195 0
M  V30 64 H -1.920436 -2.349663 5.127457 0
M  V30 65 H -2.914429 -0.566437 0.628282 0
M  V30 66 H -2.951814 -8.719973 0.193776 0
M  V30 67 H -3.446094 -7.902078 1.413937 0
M  V30 68 H -1.503066 -1.793445 -1.963943 0
M  V30 69 H -1.972935 0.250422 -3.337225 0
M  V30 70 H -6.122841 0.028745 -2.114026 0
M  V30 71 H -5.589579 -1.921435 -0.825469 0
M  V30 72 H -1.875901 -5.984618 2.295398 0
M  V30 73 H -3.599860 -5.899079 2.704836 0
M  V30 74 H -1.451413 -4.547195 3.952267 0
M  V30 75 H -3.166746 -4.371338 4.300592 0
M  V30 76 H 1.692038 5.046077 2.618637 0
M  V30 77 H 0.495133 3.796180 -3.457925 0
M  V30 78 H 0.110013 2.316288 -2.530983 0
M  V30 79 H 1.632389 1.221888 -3.881043 0
M  V30 80 H 2.293741 2.823400 -4.419191 0
M  V30 81 H 6.517295 1.418100 -1.420509 0
M  V30 END ATOM
M  V30 BEGIN BOND
M  V30 1 3 1 2
M  V30 2 1 2 3
M  V30 3 1 3 4
M  V30 4 1 4 5
M  V30 5 1 5 6
M  V30 6 2 6 7
M  V30 7 1 7 8
M  V30 8 1 8 9
M  V30 9 1 9 10
M  V30 10 1 10 11
M  V30 11 1 11 12
M  V30 12 1 12 13
M  V30 13 2 13 14
M  V30 14 1 14 15
M  V30 15 1 15 16
M  V30 16 2 16 17
M  V30 17 1 16 18
M  V30 18 1 18 19
M  V30 19 2 19 20
M  V30 20 1 20 21
M  V30 21 2 21 22
M  V30 22 1 22 23
M  V30 23 2 23 24
M  V30 24 1 23 25
M  V30 25 2 25 26
M  V30 26 1 26 27
M  V30 27 1 27 28
M  V30 28 1 28 29
M  V30 29 2 28 30
M  V30 30 2 27 31
M  V30 31 1 31 32
M  V30 32 1 32 33
M  V30 33 2 33 34
M  V30 34 1 34 35
M  V30 35 2 35 36
M  V30 36 1 36 37
M  V30 37 1 36 38
M  V30 38 2 38 39
M  V30 39 1 26 40
M  V30 40 1 40 41
M  V30 41 2 15 42
M  V30 42 1 42 43
M  V30 43 1 42 44
M  V30 44 2 44 45
M  V30 45 1 12 46
M  V30 46 1 46 47
M  V30 47 1 7 48
M  V30 48 2 48 49
M  V30 49 1 49 5
M  V30 50 1 47 9
M  V30 51 1 45 13
M  V30 52 1 24 19
M  V30 53 1 32 25
M  V30 54 1 39 33
M  V30 55 1 41 22
M  V30 56 1 3 50
M  V30 57 1 3 51
M  V30 58 1 4 52
M  V30 59 1 4 53
M  V30 60 1 6 54
M  V30 61 1 8 55
M  V30 62 1 8 56
M  V30 63 1 10 57
M  V30 64 1 10 58
M  V30 65 1 11 59
M  V30 66 1 11 60
M  V30 67 1 14 61
M  V30 68 1 18 62
M  V30 69 1 20 63
M  V30 70 1 21 64
M  V30 71 1 24 65
M  V30 72 1 29 66
M  V30 73 1 29 67
M  V30 74 1 34 68
M  V30 75 1 35 69
M  V30 76 1 38 70
M  V30 77 1 39 71
M  V30 78 1 40 72
M  V30 79 1 40 73
M  V30 80 1 41 74
M  V30 81 1 41 75
M  V30 82 1 44 76
M  V30 83 1 46 77
M  V30 84 1 46 78
M  V30 85 1 47 79
M  V30 86 1 47 80
M  V30 87 1 48 81
M  V30 END BOND
M  V30 END CTAB
M  END
>  <Dataset>  (357) 
ChEMBL_Kinases

>  <Ligand_Instance>  (357) 
nan

>  <PDB_ID>  (357) 
nan

>  <Standardized_SMILES>  (357) 
N#CCCn1cc(CN2CCN(c3cc(C(=O)Nc4ccc5c(c4)-c4c(c(C(N)=O)nn4-c4ccc(F)cc4)CC5)c(Cl)cn3)CC2)cn1

>  <Name>  (357) 
nan

>  <Pocket>  (357) 
nan

>  <ATP_Site>  (357) 
nan

>  <Peripheral>  (357) 
nan

>  <Num_H_Atoms_ProtBoundConf>  (357) 
nan

>  <Num_Resolved_Atoms>  (357) 
nan

>  <Num_Not_Resolved_Atoms>  (357) 
nan

$$$$
CHEMBL1669593
     RDKit          3D

  0  0  0  0  0  0  0  0  0  0999 V3000
M  V30 BEGIN CTAB
M  V30 COUNTS 87 93 0 0 0
M  V30 BEGIN ATOM
M  V30 1 C 8.818350 -4.962916 2.389236 0
M  V30 2 O 8.568524 -3.645883 1.994296 0
M  V30 3 C 7.209573 -3.499181 1.823963 0
M  V30 4 C 6.823970 -2.101982 1.387821 0
M  V30 5 C 5.341387 -1.927652 1.198712 0
M  V30 6 N 5.009894 -0.593801 0.770082 0
M  V30 7 C 4.701021 0.538151 1.416622 0
M  V30 8 C 4.472738 1.581066 0.550960 0
M  V30 9 C 4.116148 2.985043 0.734840 0
M  V30 10 N 2.690639 3.251799 0.811632 0
M  V30 11 C 2.531518 4.666643 0.906762 0
M  V30 12 C 1.152061 5.194154 0.725627 0
M  V30 13 N 0.201949 4.283082 0.166173 0
M  V30 14 C -1.198344 4.203119 0.416222 0
M  V30 15 C -2.098221 3.184367 0.239508 0
M  V30 16 C -3.439306 3.353916 0.517255 0
M  V30 17 C -4.213021 2.141327 0.247999 0
M  V30 18 O -5.012457 1.498298 0.981882 0
M  V30 19 N -4.090709 1.535228 -1.020585 0
M  V30 20 C -4.748233 0.357690 -1.490057 0
M  V30 21 C -5.943937 0.309875 -2.179763 0
M  V30 22 C -6.457703 -0.903974 -2.566997 0
M  V30 23 C -5.862203 -2.143589 -2.322142 0
M  V30 24 C -4.650025 -2.065206 -1.620021 0
M  V30 25 C -4.109962 -0.861346 -1.217829 0
M  V30 26 C -4.005171 -3.336212 -1.347988 0
M  V30 27 C -4.635816 -4.472870 -1.797210 0
M  V30 28 C -3.798074 -5.494927 -1.388272 0
M  V30 29 C -3.996569 -6.943286 -1.610506 0
M  V30 30 N -3.056173 -7.873092 -1.124094 0
M  V30 31 O -5.007305 -7.360459 -2.236039 0
M  V30 32 N -2.766029 -4.956070 -0.749503 0
M  V30 33 N -2.879516 -3.616836 -0.717058 0
M  V30 34 C -1.897866 -2.809931 -0.080708 0
M  V30 35 C -2.208948 -2.643753 1.277747 0
M  V30 36 C -1.392312 -1.902750 2.111820 0
M  V30 37 C -0.246923 -1.305348 1.626738 0
M  V30 38 F 0.576308 -0.575153 2.410529 0
M  V30 39 C 0.049073 -1.473511 0.296429 0
M  V30 40 C -0.730739 -2.196347 -0.553480 0
M  V30 41 C -5.893957 -4.591047 -2.535999 0
M  V30 42 C -6.582360 -3.307718 -2.832738 0
M  V30 43 C -3.859721 4.583366 0.982237 0
M  V30 44 Cl -5.583775 4.666763 1.295157 0
M  V30 45 C -2.944013 5.611435 1.159995 0
M  V30 46 N -1.632189 5.394750 0.872286 0
M  V30 47 C 0.800141 3.373550 -0.787000 0
M  V30 48 C 2.059608 2.717696 -0.342771 0
M  V30 49 C 4.674405 0.971183 -0.696442 0
M  V30 50 N 4.990180 -0.316675 -0.504465 0
M  V30 51 H 8.304343 -5.197161 3.339198 0
M  V30 52 H 9.896742 -5.154998 2.493959 0
M  V30 53 H 8.383040 -5.624175 1.586244 0
M  V30 54 H 6.686728 -3.784196 2.745646 0
M  V30 55 H 6.899471 -4.206704 1.021947 0
M  V30 56 H 7.154547 -1.382833 2.179327 0
M  V30 57 H 7.319724 -1.830809 0.434279 0
M  V30 58 H 4.941515 -2.705167 0.524945 0
M  V30 59 H 4.825730 -2.103749 2.189244 0
M  V30 60 H 4.641048 0.616309 2.489870 0
M  V30 61 H 4.626216 3.363391 1.657213 0
M  V30 62 H 4.585906 3.570413 -0.095767 0
M  V30 63 H 3.219083 5.159191 0.157223 0
M  V30 64 H 2.981049 4.975979 1.894384 0
M  V30 65 H 1.166907 6.115369 0.086493 0
M  V30 66 H 0.821418 5.580478 1.734343 0
M  V30 67 H -1.643605 2.280336 -0.122679 0
M  V30 68 H -3.464753 1.914244 -1.794663 0
M  V30 69 H -6.419923 1.244463 -2.387567 0
M  V30 70 H -7.408225 -0.829859 -3.107142 0
M  V30 71 H -3.203336 -0.814241 -0.689884 0
M  V30 72 H -2.036809 -8.113279 -1.201791 0
M  V30 73 H -3.330581 -8.615231 -0.473060 0
M  V30 74 H -3.076396 -3.057380 1.789619 0
M  V30 75 H -1.614718 -1.758560 3.178002 0
M  V30 76 H 0.935153 -1.038668 -0.192034 0
M  V30 77 H -0.617428 -2.405926 -1.608722 0
M  V30 78 H -6.596576 -5.192389 -1.890115 0
M  V30 79 H -5.742773 -5.226778 -3.447597 0
M  V30 80 H -7.650880 -3.321818 -2.518616 0
M  V30 81 H -6.645679 -3.238275 -3.964572 0
M  V30 82 H -3.356127 6.544234 1.529677 0
M  V30 83 H 0.944663 3.951436 -1.759043 0
M  V30 84 H 0.097792 2.553946 -1.112202 0
M  V30 85 H 1.879550 1.618804 -0.120572 0
M  V30 86 H 2.751091 2.724234 -1.225703 0
M  V30 87 H 4.621366 1.355695 -1.716703 0
M  V30 END ATOM
M  V30 BEGIN BOND
M  V30 1 1 1 2
M  V30 2 1 2 3
M  V30 3 1 3 4
M  V30 4 1 4 5
M  V30 5 1 5 6
M  V30 6 1 6 7
M  V30 7 2 7 8
M  V30 8 1 8 9
M  V30 9 1 9 10
M  V30 10 1 10 11
M  V30 11 1 11 12
M  V30 12 1 12 13
M  V30 13 1 13 14
M  V30 14 2 14 15
M  V30 15 1 15 16
M  V30 16 1 16 17
M  V30 17 2 17 18
M  V30 18 1 17 19
M  V30 19 1 19 20
M  V30 20 2 20 21
M  V30 21 1 21 22
M  V30 22 2 22 23
M  V30 23 1 23 24
M  V30 24 2 24 25
M  V30 25 1 24 26
M  V30 26 2 26 27
M  V30 27 1 27 28
M  V30 28 1 28 29
M  V30 29 1 29 30
M  V30 30 2 29 31
M  V30 31 2 28 32
M  V30 32 1 32 33
M  V30 33 1 33 34
M  V30 34 2 34 35
M  V30 35 1 35 36
M  V30 36 2 36 37
M  V30 37 1 37 38
M  V30 38 1 37 39
M  V30 39 2 39 40
M  V30 40 1 27 41
M  V30 41 1 41 42
M  V30 42 2 16 43
M  V30 43 1 43 44
M  V30 44 1 43 45
M  V30 45 2 45 46
M  V30 46 1 13 47
M  V30 47 1 47 48
M  V30 48 1 8 49
M  V30 49 2 49 50
M  V30 50 1 50 6
M  V30 51 1 48 10
M  V30 52 1 46 14
M  V30 53 1 25 20
M  V30 54 1 33 26
M  V30 55 1 40 34
M  V30 56 1 42 23
M  V30 57 1 1 51
M  V30 58 1 1 52
M  V30 59 1 1 53
M  V30 60 1 3 54
M  V30 61 1 3 55
M  V30 62 1 4 56
M  V30 63 1 4 57
M  V30 64 1 5 58
M  V30 65 1 5 59
M  V30 66 1 7 60
M  V30 67 1 9 61
M  V30 68 1 9 62
M  V30 69 1 11 63
M  V30 70 1 11 64
M  V30 71 1 12 65
M  V30 72 1 12 66
M  V30 73 1 15 67
M  V30 74 1 19 68
M  V30 75 1 21 69
M  V30 76 1 22 70
M  V30 77 1 25 71
M  V30 78 1 30 72
M  V30 79 1 30 73
M  V30 80 1 35 74
M  V30 81 1 36 75
M  V30 82 1 39 76
M  V30 83 1 40 77
M  V30 84 1 41 78
M  V30 85 1 41 79
M  V30 86 1 42 80
M  V30 87 1 42 81
M  V30 88 1 45 82
M  V30 89 1 47 83
M  V30 90 1 47 84
M  V30 91 1 48 85
M  V30 92 1 48 86
M  V30 93 1 49 87
M  V30 END BOND
M  V30 END CTAB
M  END
>  <Dataset>  (358) 
ChEMBL_Kinases

>  <Ligand_Instance>  (358) 
nan

>  <PDB_ID>  (358) 
nan

>  <Standardized_SMILES>  (358) 
COCCCn1cc(CN2CCN(c3cc(C(=O)Nc4ccc5c(c4)-c4c(c(C(N)=O)nn4-c4ccc(F)cc4)CC5)c(Cl)cn3)CC2)cn1

>  <Name>  (358) 
nan

>  <Pocket>  (358) 
nan

>  <ATP_Site>  (358) 
nan

>  <Peripheral>  (358) 
nan

>  <Num_H_Atoms_ProtBoundConf>  (358) 
nan

>  <Num_Resolved_Atoms>  (358) 
nan

>  <Num_Not_Resolved_Atoms>  (358) 
nan

$$$$
CHEMBL1669594
     RDKit          3D

  0  0  0  0  0  0  0  0  0  0999 V3000
M  V30 BEGIN CTAB
M  V30 COUNTS 94 100 0 0 0
M  V30 BEGIN ATOM
M  V30 1 C 6.097045 -0.055992 1.886222 0
M  V30 2 O 5.133833 -0.389185 2.810960 0
M  V30 3 C 4.837977 0.583369 3.734630 0
M  V30 4 C 3.771601 0.024772 4.658267 0
M  V30 5 O 3.393410 0.946149 5.649784 0
M  V30 6 C 2.462873 0.410174 6.505856 0
M  V30 7 C 1.156852 0.003460 5.881377 0
M  V30 8 C 0.406034 1.144503 5.274211 0
M  V30 9 N 1.088482 1.855722 4.229710 0
M  V30 10 C 1.100175 1.641767 2.884817 0
M  V30 11 C 1.871084 2.601108 2.247967 0
M  V30 12 C 2.153938 2.755144 0.787831 0
M  V30 13 N 1.124635 3.504385 0.206962 0
M  V30 14 C 0.851581 4.817712 0.680853 0
M  V30 15 C -0.688288 4.955399 0.628591 0
M  V30 16 N -1.227986 3.830684 -0.146761 0
M  V30 17 C -2.221368 2.918155 0.279843 0
M  V30 18 C -2.707695 1.830544 -0.398050 0
M  V30 19 C -3.671028 0.997806 0.126215 0
M  V30 20 C -4.007739 -0.095366 -0.774104 0
M  V30 21 O -4.703357 -0.067090 -1.837585 0
M  V30 22 N -3.453989 -1.367916 -0.366945 0
M  V30 23 C -3.694284 -2.549046 -1.161922 0
M  V30 24 C -4.797982 -3.372016 -0.969188 0
M  V30 25 C -5.010548 -4.497112 -1.735255 0
M  V30 26 C -4.120875 -4.845527 -2.731854 0
M  V30 27 C -3.033256 -4.018213 -2.909138 0
M  V30 28 C -2.783641 -2.889781 -2.169187 0
M  V30 29 C -2.132210 -4.424462 -3.975571 0
M  V30 30 C -2.407102 -5.551423 -4.709798 0
M  V30 31 C -1.339772 -5.638993 -5.607184 0
M  V30 32 C -1.141062 -6.670054 -6.625742 0
M  V30 33 N 0.021587 -6.607910 -7.456986 0
M  V30 34 O -1.999552 -7.582959 -6.740549 0
M  V30 35 N -0.508682 -4.594854 -5.373536 0
M  V30 36 N -0.992150 -3.847069 -4.372737 0
M  V30 37 C -0.235376 -2.709108 -3.996565 0
M  V30 38 C -0.331618 -1.429678 -4.499156 0
M  V30 39 C 0.505614 -0.443948 -4.021418 0
M  V30 40 C 1.419149 -0.787696 -3.043630 0
M  V30 41 F 2.260928 0.169501 -2.556063 0
M  V30 42 C 1.559065 -2.054753 -2.502866 0
M  V30 43 C 0.701242 -3.038044 -3.000927 0
M  V30 44 C -3.560546 -6.440694 -4.579481 0
M  V30 45 C -4.469032 -6.071528 -3.461324 0
M  V30 46 C -4.158835 1.294886 1.406838 0
M  V30 47 Cl -5.372853 0.166754 1.960212 0
M  V30 48 C -3.652034 2.394518 2.065570 0
M  V30 49 N -2.708571 3.189645 1.524164 0
M  V30 50 C -0.534935 3.814855 -1.445057 0
M  V30 51 C 0.940092 3.437883 -1.207248 0
M  V30 52 C 2.321993 3.400601 3.284051 0
M  V30 53 N 1.844282 2.935865 4.446713 0
M  V30 54 H 7.084591 0.189871 2.343242 0
M  V30 55 H 5.808656 0.882417 1.330154 0
M  V30 56 H 6.261936 -0.850189 1.150188 0
M  V30 57 H 5.755545 0.817997 4.313665 0
M  V30 58 H 4.493134 1.530757 3.301121 0
M  V30 59 H 4.203768 -0.877906 5.171202 0
M  V30 60 H 2.894800 -0.339355 4.090916 0
M  V30 61 H 2.915693 -0.439009 7.066890 0
M  V30 62 H 2.235046 1.218786 7.262366 0
M  V30 63 H 0.509569 -0.419684 6.709986 0
M  V30 64 H 1.271144 -0.851736 5.181315 0
M  V30 65 H -0.623105 0.839029 4.958597 0
M  V30 66 H 0.215189 1.879137 6.117103 0
M  V30 67 H 0.567728 0.818903 2.394667 0
M  V30 68 H 3.197722 3.095594 0.611629 0
M  V30 69 H 2.104304 1.714185 0.373808 0
M  V30 70 H 1.225948 5.596130 -0.020385 0
M  V30 71 H 1.224564 5.059535 1.675662 0
M  V30 72 H -0.988070 5.930494 0.218649 0
M  V30 73 H -1.042294 4.835398 1.670447 0
M  V30 74 H -2.252243 1.715510 -1.371241 0
M  V30 75 H -2.865179 -1.444987 0.500829 0
M  V30 76 H -5.488597 -3.086968 -0.183374 0
M  V30 77 H -5.916280 -5.077836 -1.497328 0
M  V30 78 H -1.962165 -2.246455 -2.288408 0
M  V30 79 H 0.210876 -6.275482 -8.446799 0
M  V30 80 H 1.038345 -6.852327 -7.395950 0
M  V30 81 H -1.091606 -1.296254 -5.262695 0
M  V30 82 H 0.410899 0.555374 -4.433046 0
M  V30 83 H 2.293274 -2.264865 -1.737875 0
M  V30 84 H 0.840298 -4.015003 -2.555435 0
M  V30 85 H -3.172615 -7.479440 -4.399481 0
M  V30 86 H -4.104598 -6.398999 -5.559495 0
M  V30 87 H -4.561752 -6.947065 -2.748839 0
M  V30 88 H -5.519730 -5.959365 -3.867184 0
M  V30 89 H -4.077823 2.548372 3.033912 0
M  V30 90 H -0.616958 4.818196 -1.913849 0
M  V30 91 H -0.963973 3.079004 -2.132132 0
M  V30 92 H 1.535702 4.211196 -1.745463 0
M  V30 93 H 1.139750 2.434162 -1.635139 0
M  V30 94 H 2.969650 4.258999 3.092965 0
M  V30 END ATOM
M  V30 BEGIN BOND
M  V30 1 1 1 2
M  V30 2 1 2 3
M  V30 3 1 3 4
M  V30 4 1 4 5
M  V30 5 1 5 6
M  V30 6 1 6 7
M  V30 7 1 7 8
M  V30 8 1 8 9
M  V30 9 1 9 10
M  V30 10 2 10 11
M  V30 11 1 11 12
M  V30 12 1 12 13
M  V30 13 1 13 14
M  V30 14 1 14 15
M  V30 15 1 15 16
M  V30 16 1 16 17
M  V30 17 2 17 18
M  V30 18 1 18 19
M  V30 19 1 19 20
M  V30 20 2 20 21
M  V30 21 1 20 22
M  V30 22 1 22 23
M  V30 23 2 23 24
M  V30 24 1 24 25
M  V30 25 2 25 26
M  V30 26 1 26 27
M  V30 27 2 27 28
M  V30 28 1 27 29
M  V30 29 2 29 30
M  V30 30 1 30 31
M  V30 31 1 31 32
M  V30 32 1 32 33
M  V30 33 2 32 34
M  V30 34 2 31 35
M  V30 35 1 35 36
M  V30 36 1 36 37
M  V30 37 2 37 38
M  V30 38 1 38 39
M  V30 39 2 39 40
M  V30 40 1 40 41
M  V30 41 1 40 42
M  V30 42 2 42 43
M  V30 43 1 30 44
M  V30 44 1 44 45
M  V30 45 2 19 46
M  V30 46 1 46 47
M  V30 47 1 46 48
M  V30 48 2 48 49
M  V30 49 1 16 50
M  V30 50 1 50 51
M  V30 51 1 11 52
M  V30 52 2 52 53
M  V30 53 1 53 9
M  V30 54 1 51 13
M  V30 55 1 49 17
M  V30 56 1 28 23
M  V30 57 1 36 29
M  V30 58 1 43 37
M  V30 59 1 45 26
M  V30 60 1 1 54
M  V30 61 1 1 55
M  V30 62 1 1 56
M  V30 63 1 3 57
M  V30 64 1 3 58
M  V30 65 1 4 59
M  V30 66 1 4 60
M  V30 67 1 6 61
M  V30 68 1 6 62
M  V30 69 1 7 63
M  V30 70 1 7 64
M  V30 71 1 8 65
M  V30 72 1 8 66
M  V30 73 1 10 67
M  V30 74 1 12 68
M  V30 75 1 12 69
M  V30 76 1 14 70
M  V30 77 1 14 71
M  V30 78 1 15 72
M  V30 79 1 15 73
M  V30 80 1 18 74
M  V30 81 1 22 75
M  V30 82 1 24 76
M  V30 83 1 25 77
M  V30 84 1 28 78
M  V30 85 1 33 79
M  V30 86 1 33 80
M  V30 87 1 38 81
M  V30 88 1 39 82
M  V30 89 1 42 83
M  V30 90 1 43 84
M  V30 91 1 44 85
M  V30 92 1 44 86
M  V30 93 1 45 87
M  V30 94 1 45 88
M  V30 95 1 48 89
M  V30 96 1 50 90
M  V30 97 1 50 91
M  V30 98 1 51 92
M  V30 99 1 51 93
M  V30 100 1 52 94
M  V30 END BOND
M  V30 END CTAB
M  END
>  <Dataset>  (359) 
ChEMBL_Kinases

>  <Ligand_Instance>  (359) 
nan

>  <PDB_ID>  (359) 
nan

>  <Standardized_SMILES>  (359) 
COCCOCCCn1cc(CN2CCN(c3cc(C(=O)Nc4ccc5c(c4)-c4c(c(C(N)=O)nn4-c4ccc(F)cc4)CC5)c(Cl)cn3)CC2)cn1

>  <Name>  (359) 
nan

>  <Pocket>  (359) 
nan

>  <ATP_Site>  (359) 
nan

>  <Peripheral>  (359) 
nan

>  <Num_H_Atoms_ProtBoundConf>  (359) 
nan

>  <Num_Resolved_Atoms>  (359) 
nan

>  <Num_Not_Resolved_Atoms>  (359) 
nan

$$$$
CHEMBL1669567
     RDKit          3D

  0  0  0  0  0  0  0  0  0  0999 V3000
M  V30 BEGIN CTAB
M  V30 COUNTS 80 86 0 0 0
M  V30 BEGIN ATOM
M  V30 1 C 2.213272 -3.294288 -7.008944 0
M  V30 2 C 1.923241 -3.623326 -5.583057 0
M  V30 3 N 2.131787 -4.791601 -4.982612 0
M  V30 4 N 1.753163 -4.731054 -3.696879 0
M  V30 5 C 1.775414 -5.726521 -2.630376 0
M  V30 6 C 1.296298 -3.470792 -3.513184 0
M  V30 7 C 1.384163 -2.729654 -4.681898 0
M  V30 8 C 0.973092 -1.322770 -4.824711 0
M  V30 9 N 2.034116 -0.391436 -4.854190 0
M  V30 10 C 2.888399 -0.341287 -3.724962 0
M  V30 11 C 2.155031 0.401480 -2.618706 0
M  V30 12 N 1.980429 1.761552 -3.089650 0
M  V30 13 C 1.501900 2.757011 -2.192176 0
M  V30 14 C 1.120697 2.396164 -0.936233 0
M  V30 15 C 0.648559 3.344876 -0.024893 0
M  V30 16 C 0.281567 2.757478 1.283233 0
M  V30 17 O 1.225097 2.181260 1.883598 0
M  V30 18 N -1.066959 2.866955 1.779449 0
M  V30 19 C -1.117732 2.199258 3.060518 0
M  V30 20 C -0.865267 2.820032 4.264683 0
M  V30 21 C -0.932362 2.124130 5.453663 0
M  V30 22 C -1.257493 0.771163 5.477212 0
M  V30 23 C -1.506127 0.169506 4.262022 0
M  V30 24 C -1.447077 0.836316 3.059770 0
M  V30 25 C -1.848437 -1.240431 4.299242 0
M  V30 26 C -1.889444 -1.828677 5.542995 0
M  V30 27 C -2.236219 -3.157160 5.275485 0
M  V30 28 C -2.435004 -4.277529 6.188064 0
M  V30 29 N -2.297532 -4.186333 7.593309 0
M  V30 30 O -2.750277 -5.468664 5.890599 0
M  V30 31 N -2.377752 -3.285096 3.940954 0
M  V30 32 N -2.139797 -2.112614 3.352774 0
M  V30 33 C -2.228654 -2.004447 1.959235 0
M  V30 34 C -1.252060 -2.186553 0.972400 0
M  V30 35 C -1.573718 -2.037988 -0.358512 0
M  V30 36 C -2.829381 -1.712778 -0.791775 0
M  V30 37 F -3.110474 -1.574843 -2.108248 0
M  V30 38 C -3.816571 -1.527083 0.175864 0
M  V30 39 C -3.515418 -1.671493 1.521007 0
M  V30 40 C -1.640720 -1.260646 6.891867 0
M  V30 41 C -1.282537 0.184196 6.820298 0
M  V30 42 C 0.574837 4.651042 -0.416775 0
M  V30 43 Cl -0.024221 5.758614 0.783644 0
M  V30 44 C 0.967040 4.994407 -1.696210 0
M  V30 45 N 1.419472 4.049872 -2.553667 0
M  V30 46 C 2.324655 1.959321 -4.483730 0
M  V30 47 C 1.776616 0.890764 -5.393045 0
M  V30 48 H 3.288250 -3.285710 -7.234021 0
M  V30 49 H 1.753910 -4.116105 -7.629777 0
M  V30 50 H 1.749562 -2.352430 -7.328470 0
M  V30 51 H 0.731991 -6.118027 -2.511958 0
M  V30 52 H 2.453430 -6.546765 -2.859909 0
M  V30 53 H 1.998275 -5.217346 -1.660992 0
M  V30 54 H 0.903577 -3.066470 -2.573088 0
M  V30 55 H 0.265634 -1.061321 -4.012693 0
M  V30 56 H 0.365199 -1.162502 -5.765514 0
M  V30 57 H 3.833289 0.180017 -3.874876 0
M  V30 58 H 3.134230 -1.336785 -3.294724 0
M  V30 59 H 2.757795 0.426577 -1.686455 0
M  V30 60 H 1.197026 -0.135441 -2.463428 0
M  V30 61 H 1.198886 1.336961 -0.670274 0
M  V30 62 H -1.804530 3.361664 1.233066 0
M  V30 63 H -0.614007 3.869187 4.236476 0
M  V30 64 H -0.712901 2.716947 6.350661 0
M  V30 65 H -1.633177 0.395506 2.122294 0
M  V30 66 H -1.331161 -4.547790 7.842444 0
M  V30 67 H -2.921441 -3.857260 8.376424 0
M  V30 68 H -0.292496 -2.440236 1.398640 0
M  V30 69 H -0.750112 -2.199599 -1.031050 0
M  V30 70 H -4.814520 -1.268119 -0.169172 0
M  V30 71 H -4.366815 -1.501627 2.181009 0
M  V30 72 H -2.548262 -1.405654 7.519749 0
M  V30 73 H -0.830567 -1.844255 7.416913 0
M  V30 74 H -0.313752 0.331973 7.369065 0
M  V30 75 H -2.018963 0.770888 7.423053 0
M  V30 76 H 0.890459 6.059252 -1.969311 0
M  V30 77 H 3.432111 2.044922 -4.555507 0
M  V30 78 H 1.896624 2.942497 -4.791127 0
M  V30 79 H 0.695927 1.023686 -5.599774 0
M  V30 80 H 2.270335 1.054484 -6.391316 0
M  V30 END ATOM
M  V30 BEGIN BOND
M  V30 1 1 1 2
M  V30 2 2 2 3
M  V30 3 1 3 4
M  V30 4 1 4 5
M  V30 5 1 4 6
M  V30 6 2 6 7
M  V30 7 1 7 8
M  V30 8 1 8 9
M  V30 9 1 9 10
M  V30 10 1 10 11
M  V30 11 1 11 12
M  V30 12 1 12 13
M  V30 13 2 13 14
M  V30 14 1 14 15
M  V30 15 1 15 16
M  V30 16 2 16 17
M  V30 17 1 16 18
M  V30 18 1 18 19
M  V30 19 2 19 20
M  V30 20 1 20 21
M  V30 21 2 21 22
M  V30 22 1 22 23
M  V30 23 2 23 24
M  V30 24 1 23 25
M  V30 25 2 25 26
M  V30 26 1 26 27
M  V30 27 1 27 28
M  V30 28 1 28 29
M  V30 29 2 28 30
M  V30 30 2 27 31
M  V30 31 1 31 32
M  V30 32 1 32 33
M  V30 33 2 33 34
M  V30 34 1 34 35
M  V30 35 2 35 36
M  V30 36 1 36 37
M  V30 37 1 36 38
M  V30 38 2 38 39
M  V30 39 1 26 40
M  V30 40 1 40 41
M  V30 41 2 15 42
M  V30 42 1 42 43
M  V30 43 1 42 44
M  V30 44 2 44 45
M  V30 45 1 12 46
M  V30 46 1 46 47
M  V30 47 1 7 2
M  V30 48 1 47 9
M  V30 49 1 45 13
M  V30 50 1 24 19
M  V30 51 1 32 25
M  V30 52 1 39 33
M  V30 53 1 41 22
M  V30 54 1 1 48
M  V30 55 1 1 49
M  V30 56 1 1 50
M  V30 57 1 5 51
M  V30 58 1 5 52
M  V30 59 1 5 53
M  V30 60 1 6 54
M  V30 61 1 8 55
M  V30 62 1 8 56
M  V30 63 1 10 57
M  V30 64 1 10 58
M  V30 65 1 11 59
M  V30 66 1 11 60
M  V30 67 1 14 61
M  V30 68 1 18 62
M  V30 69 1 20 63
M  V30 70 1 21 64
M  V30 71 1 24 65
M  V30 72 1 29 66
M  V30 73 1 29 67
M  V30 74 1 34 68
M  V30 75 1 35 69
M  V30 76 1 38 70
M  V30 77 1 39 71
M  V30 78 1 40 72
M  V30 79 1 40 73
M  V30 80 1 41 74
M  V30 81 1 41 75
M  V30 82 1 44 76
M  V30 83 1 46 77
M  V30 84 1 46 78
M  V30 85 1 47 79
M  V30 86 1 47 80
M  V30 END BOND
M  V30 END CTAB
M  END
>  <Dataset>  (360) 
ChEMBL_Kinases

>  <Ligand_Instance>  (360) 
nan

>  <PDB_ID>  (360) 
nan

>  <Standardized_SMILES>  (360) 
Cc1nn(C)cc1CN1CCN(c2cc(C(=O)Nc3ccc4c(c3)-c3c(c(C(N)=O)nn3-c3ccc(F)cc3)CC4)c(Cl)cn2)CC1

>  <Name>  (360) 
nan

>  <Pocket>  (360) 
nan

>  <ATP_Site>  (360) 
nan

>  <Peripheral>  (360) 
nan

>  <Num_H_Atoms_ProtBoundConf>  (360) 
nan

>  <Num_Resolved_Atoms>  (360) 
nan

>  <Num_Not_Resolved_Atoms>  (360) 
nan

$$$$
CHEMBL175472
     RDKit          3D

  0  0  0  0  0  0  0  0  0  0999 V3000
M  V30 BEGIN CTAB
M  V30 COUNTS 41 44 0 0 0
M  V30 BEGIN ATOM
M  V30 1 N 2.059496 -8.618488 0.847270 0
M  V30 2 C 2.426030 -7.377579 0.210568 0
M  V30 3 O 3.442751 -7.451222 -0.528071 0
M  V30 4 C 1.575604 -6.224616 0.509440 0
M  V30 5 C 0.480784 -6.280767 1.344437 0
M  V30 6 C -0.229353 -5.118271 1.535669 0
M  V30 7 C 0.119280 -3.918499 0.924374 0
M  V30 8 N -0.456102 -2.705668 1.000143 0
M  V30 9 C 0.300346 -1.926280 0.206782 0
M  V30 10 C 0.021250 -0.507127 0.000762 0
M  V30 11 C -1.057726 0.074079 0.637772 0
M  V30 12 C -1.430536 1.399694 0.529170 0
M  V30 13 C -0.637899 2.188140 -0.293975 0
M  V30 14 O -0.936254 3.554534 -0.470164 0
M  V30 15 C -0.362098 4.473218 0.401701 0
M  V30 16 C 0.849466 5.147422 0.279206 0
M  V30 17 C 1.224069 6.022459 1.275852 0
M  V30 18 C 0.437788 6.249422 2.386650 0
M  V30 19 Cl 0.993085 7.390147 3.621304 0
M  V30 20 C -0.764792 5.585158 2.515905 0
M  V30 21 O -1.523610 5.845049 3.651315 0
M  V30 22 C -1.159077 4.699159 1.521234 0
M  V30 23 C 0.459142 1.634143 -0.952448 0
M  V30 24 C 0.801355 0.289121 -0.815294 0
M  V30 25 N 1.309438 -2.624083 -0.343783 0
M  V30 26 C 1.235079 -3.915130 0.089117 0
M  V30 27 C 1.975380 -5.056229 -0.130920 0
M  V30 28 H 2.706686 -9.149671 1.481165 0
M  V30 29 H 1.263815 -9.309706 0.936103 0
M  V30 30 H 0.223394 -7.224167 1.812587 0
M  V30 31 H -1.089665 -5.184071 2.198158 0
M  V30 32 H -1.303393 -2.502476 1.574279 0
M  V30 33 H -1.703830 -0.519297 1.294342 0
M  V30 34 H -2.281822 1.797804 1.049431 0
M  V30 35 H 1.382393 4.900732 -0.617790 0
M  V30 36 H 2.176229 6.525231 1.137557 0
M  V30 37 H -2.417891 5.376604 3.724519 0
M  V30 38 H -2.113838 4.235330 1.722473 0
M  V30 39 H 1.082508 2.265117 -1.602984 0
M  V30 40 H 1.647651 -0.146535 -1.320848 0
M  V30 41 H 2.827702 -4.988734 -0.787926 0
M  V30 END ATOM
M  V30 BEGIN BOND
M  V30 1 1 1 2
M  V30 2 2 2 3
M  V30 3 1 2 4
M  V30 4 2 4 5
M  V30 5 1 5 6
M  V30 6 2 6 7
M  V30 7 1 7 8
M  V30 8 1 8 9
M  V30 9 1 9 10
M  V30 10 2 10 11
M  V30 11 1 11 12
M  V30 12 2 12 13
M  V30 13 1 13 14
M  V30 14 1 14 15
M  V30 15 2 15 16
M  V30 16 1 16 17
M  V30 17 2 17 18
M  V30 18 1 18 19
M  V30 19 1 18 20
M  V30 20 1 20 21
M  V30 21 2 20 22
M  V30 22 1 13 23
M  V30 23 2 23 24
M  V30 24 2 9 25
M  V30 25 1 25 26
M  V30 26 2 26 27
M  V30 27 1 27 4
M  V30 28 1 26 7
M  V30 29 1 24 10
M  V30 30 1 22 15
M  V30 31 1 1 28
M  V30 32 1 1 29
M  V30 33 1 5 30
M  V30 34 1 6 31
M  V30 35 1 8 32
M  V30 36 1 11 33
M  V30 37 1 12 34
M  V30 38 1 16 35
M  V30 39 1 17 36
M  V30 40 1 21 37
M  V30 41 1 22 38
M  V30 42 1 23 39
M  V30 43 1 24 40
M  V30 44 1 27 41
M  V30 END BOND
M  V30 END CTAB
M  END
>  <Dataset>  (361) 
ChEMBL_Kinases

>  <Ligand_Instance>  (361) 
nan

>  <PDB_ID>  (361) 
nan

>  <Standardized_SMILES>  (361) 
NC(=O)c1ccc2[nH]c(-c3ccc(Oc4ccc(Cl)c(O)c4)cc3)nc2c1

>  <Name>  (361) 
nan

>  <Pocket>  (361) 
nan

>  <ATP_Site>  (361) 
nan

>  <Peripheral>  (361) 
nan

>  <Num_H_Atoms_ProtBoundConf>  (361) 
nan

>  <Num_Resolved_Atoms>  (361) 
nan

>  <Num_Not_Resolved_Atoms>  (361) 
nan

$$$$
CHEMBL17468
     RDKit          3D

  0  0  0  0  0  0  0  0  0  0999 V3000
M  V30 BEGIN CTAB
M  V30 COUNTS 41 43 0 0 0
M  V30 BEGIN ATOM
M  V30 1 C -2.045962 -1.435190 1.692633 0
M  V30 2 C -2.200607 -0.672037 0.401067 0
M  V30 3 C -1.555385 -1.289131 -0.758829 0
M  V30 4 C -2.114974 -2.341633 -1.457532 0
M  V30 5 C -3.399564 -2.875432 -1.032177 0
M  V30 6 O -4.389194 -2.882706 -0.268617 0
M  V30 7 O -4.101983 -3.919783 -1.610867 0
M  V30 8 C -5.334200 -4.411341 -1.181335 0
M  V30 9 N -1.626625 -2.984074 -2.528735 0
M  V30 10 C -0.446411 -2.614919 -3.047933 0
M  V30 11 C 0.229583 -1.572585 -2.449141 0
M  V30 12 N 1.410822 -0.972807 -2.708210 0
M  V30 13 C 1.644429 0.010797 -1.819047 0
M  V30 14 C 2.708730 0.877801 -1.686689 0
M  V30 15 C 2.699846 1.800948 -0.662983 0
M  V30 16 O 3.793848 2.650496 -0.572409 0
M  V30 17 C 4.838588 2.523963 -1.517612 0
M  V30 18 C 1.630125 1.868920 0.238598 0
M  V30 19 O 1.779092 2.843338 1.197820 0
M  V30 20 C 0.879615 3.144874 2.230382 0
M  V30 21 C 0.575186 0.975474 0.068935 0
M  V30 22 C 0.576474 0.054307 -0.948163 0
M  V30 23 C -0.343144 -0.906917 -1.286367 0
M  V30 24 H -1.738232 -2.470844 1.437540 0
M  V30 25 H -1.248206 -1.035199 2.342588 0
M  V30 26 H -2.961980 -1.415518 2.318353 0
M  V30 27 H -3.325309 -0.869504 0.179481 0
M  V30 28 H -2.227762 0.406726 0.463520 0
M  V30 29 H -6.143778 -3.655866 -1.232228 0
M  V30 30 H -5.284814 -4.908917 -0.178220 0
M  V30 31 H -5.615391 -5.226553 -1.889582 0
M  V30 32 H -2.085790 -3.772357 -3.021196 0
M  V30 33 H -0.015451 -3.104769 -3.910827 0
M  V30 34 H 3.516070 0.797203 -2.399318 0
M  V30 35 H 4.443077 2.649000 -2.562462 0
M  V30 36 H 5.664141 3.217814 -1.318385 0
M  V30 37 H 5.290641 1.490965 -1.502274 0
M  V30 38 H -0.125199 2.705421 2.077266 0
M  V30 39 H 0.696459 4.251564 2.295284 0
M  V30 40 H 1.241673 2.783438 3.217632 0
M  V30 41 H -0.147653 1.121921 0.808678 0
M  V30 END ATOM
M  V30 BEGIN BOND
M  V30 1 1 1 2
M  V30 2 1 2 3
M  V30 3 2 3 4
M  V30 4 1 4 5
M  V30 5 2 5 6
M  V30 6 1 5 7
M  V30 7 1 7 8
M  V30 8 1 4 9
M  V30 9 1 9 10
M  V30 10 2 10 11
M  V30 11 1 11 12
M  V30 12 2 12 13
M  V30 13 1 13 14
M  V30 14 2 14 15
M  V30 15 1 15 16
M  V30 16 1 16 17
M  V30 17 1 15 18
M  V30 18 1 18 19
M  V30 19 1 19 20
M  V30 20 2 18 21
M  V30 21 1 21 22
M  V30 22 2 22 23
M  V30 23 1 23 3
M  V30 24 1 23 11
M  V30 25 1 22 13
M  V30 26 1 1 24
M  V30 27 1 1 25
M  V30 28 1 1 26
M  V30 29 1 2 27
M  V30 30 1 2 28
M  V30 31 1 8 29
M  V30 32 1 8 30
M  V30 33 1 8 31
M  V30 34 1 9 32
M  V30 35 1 10 33
M  V30 36 1 14 34
M  V30 37 1 17 35
M  V30 38 1 17 36
M  V30 39 1 17 37
M  V30 40 1 20 38
M  V30 41 1 20 39
M  V30 42 1 20 40
M  V30 43 1 21 41
M  V30 END BOND
M  V30 END CTAB
M  END
>  <Dataset>  (362) 
ChEMBL_Kinases

>  <Ligand_Instance>  (362) 
nan

>  <PDB_ID>  (362) 
nan

>  <Standardized_SMILES>  (362) 
CCc1c(C(=O)OC)[nH]cc2nc3cc(OC)c(OC)cc3c1-2

>  <Name>  (362) 
nan

>  <Pocket>  (362) 
nan

>  <ATP_Site>  (362) 
nan

>  <Peripheral>  (362) 
nan

>  <Num_H_Atoms_ProtBoundConf>  (362) 
nan

>  <Num_Resolved_Atoms>  (362) 
nan

>  <Num_Not_Resolved_Atoms>  (362) 
nan

$$$$
CHEMBL17466
     RDKit          3D

  0  0  0  0  0  0  0  0  0  0999 V3000
M  V30 BEGIN CTAB
M  V30 COUNTS 39 41 0 0 0
M  V30 BEGIN ATOM
M  V30 1 C -1.350905 -3.087273 2.490426 0
M  V30 2 C -1.150921 -1.592552 2.200868 0
M  V30 3 C -1.816285 -0.873348 3.382722 0
M  V30 4 C -1.959600 -1.254639 0.998949 0
M  V30 5 C -1.557179 0.130601 0.541890 0
M  V30 6 O -2.448256 0.980039 0.290825 0
M  V30 7 C -0.109965 0.425973 0.409816 0
M  V30 8 C 0.364595 1.365804 -0.440003 0
M  V30 9 S -0.370650 2.474737 -1.589985 0
M  V30 10 C -0.524188 1.761204 -3.247415 0
M  V30 11 C -1.508458 0.611637 -3.204180 0
M  V30 12 O -2.753860 1.074689 -2.784710 0
M  V30 13 S 2.170410 1.251863 -0.133011 0
M  V30 14 C 2.077430 -0.007161 1.064778 0
M  V30 15 C 3.284618 -0.525677 1.693582 0
M  V30 16 C 4.564472 -0.101656 1.423706 0
M  V30 17 C 5.391080 -0.870910 2.252044 0
M  V30 18 N 4.617967 -1.723083 2.987871 0
M  V30 19 N 3.359268 -1.489993 2.628244 0
M  V30 20 C 0.739778 -0.289241 1.188833 0
M  V30 21 C 0.303264 -1.337030 2.146624 0
M  V30 22 H -2.247767 -3.496013 2.007451 0
M  V30 23 H -0.444970 -3.636692 2.098616 0
M  V30 24 H -1.306076 -3.226195 3.590418 0
M  V30 25 H -1.372339 0.127778 3.552606 0
M  V30 26 H -1.790628 -1.484401 4.309949 0
M  V30 27 H -2.903972 -0.701163 3.194463 0
M  V30 28 H -1.776456 -1.894488 0.115922 0
M  V30 29 H -3.018216 -1.229537 1.275232 0
M  V30 30 H 0.460843 1.435330 -3.623062 0
M  V30 31 H -0.921739 2.496263 -3.974989 0
M  V30 32 H -1.583415 0.091911 -4.179665 0
M  V30 33 H -1.122857 -0.137143 -2.458339 0
M  V30 34 H -2.612611 1.961239 -2.348921 0
M  V30 35 H 4.931266 0.663399 0.728554 0
M  V30 36 H 6.469454 -0.773860 2.275142 0
M  V30 37 H 5.011900 -2.398759 3.678868 0
M  V30 38 H 0.611433 -1.061758 3.202438 0
M  V30 39 H 0.880499 -2.300697 1.999556 0
M  V30 END ATOM
M  V30 BEGIN BOND
M  V30 1 1 1 2
M  V30 2 1 2 3
M  V30 3 1 2 4
M  V30 4 1 4 5
M  V30 5 2 5 6
M  V30 6 1 5 7
M  V30 7 2 7 8
M  V30 8 1 8 9
M  V30 9 1 9 10
M  V30 10 1 10 11
M  V30 11 1 11 12
M  V30 12 1 8 13
M  V30 13 1 13 14
M  V30 14 1 14 15
M  V30 15 1 15 16
M  V30 16 2 16 17
M  V30 17 1 17 18
M  V30 18 1 18 19
M  V30 19 2 14 20
M  V30 20 1 20 21
M  V30 21 1 21 2
M  V30 22 1 20 7
M  V30 23 2 19 15
M  V30 24 1 1 22
M  V30 25 1 1 23
M  V30 26 1 1 24
M  V30 27 1 3 25
M  V30 28 1 3 26
M  V30 29 1 3 27
M  V30 30 1 4 28
M  V30 31 1 4 29
M  V30 32 1 10 30
M  V30 33 1 10 31
M  V30 34 1 11 32
M  V30 35 1 11 33
M  V30 36 1 12 34
M  V30 37 1 16 35
M  V30 38 1 17 36
M  V30 39 1 18 37
M  V30 40 1 21 38
M  V30 41 1 21 39
M  V30 END BOND
M  V30 END CTAB
M  END
>  <Dataset>  (363) 
ChEMBL_Kinases

>  <Ligand_Instance>  (363) 
nan

>  <PDB_ID>  (363) 
nan

>  <Standardized_SMILES>  (363) 
CC1(C)CC(=O)c2c(SCCO)sc(-c3cc[nH]n3)c2C1

>  <Name>  (363) 
nan

>  <Pocket>  (363) 
nan

>  <ATP_Site>  (363) 
nan

>  <Peripheral>  (363) 
nan

>  <Num_H_Atoms_ProtBoundConf>  (363) 
nan

>  <Num_Resolved_Atoms>  (363) 
nan

>  <Num_Not_Resolved_Atoms>  (363) 
nan

$$$$
CHEMBL174140
     RDKit          3D

  0  0  0  0  0  0  0  0  0  0999 V3000
M  V30 BEGIN CTAB
M  V30 COUNTS 60 63 0 0 0
M  V30 BEGIN ATOM
M  V30 1 N 4.268053 -3.540936 4.497864 0
M  V30 2 C 3.454067 -3.654310 3.663717 0
M  V30 3 C 2.447086 -3.811825 2.652591 0
M  V30 4 C 2.172306 -2.792690 1.759018 0
M  V30 5 C 2.908199 -1.511732 1.819804 0
M  V30 6 C 4.258610 -1.386358 1.969281 0
M  V30 7 C 4.856903 -0.141970 2.015181 0
M  V30 8 C 4.066662 1.007863 1.906788 0
M  V30 9 C 2.698741 0.901448 1.754984 0
M  V30 10 C 1.937869 2.144399 1.647264 0
M  V30 11 O 2.581105 3.223060 1.701244 0
M  V30 12 N 0.526110 2.188154 1.486594 0
M  V30 13 C -0.259974 3.389895 1.375887 0
M  V30 14 C -1.737611 3.111313 1.212617 0
M  V30 15 N -2.028693 2.328537 0.029506 0
M  V30 16 C -3.421769 2.060411 -0.141624 0
M  V30 17 C -3.923097 2.552028 -1.480850 0
M  V30 18 C -3.126352 1.863597 -2.570951 0
M  V30 19 C -1.689094 2.238148 -2.400295 0
M  V30 20 C -1.395269 2.948877 -1.091714 0
M  V30 21 C 2.128347 -0.354407 1.712428 0
M  V30 22 C 1.192165 -2.998245 0.805584 0
M  V30 23 C 0.460775 -4.161818 0.681673 0
M  V30 24 C -0.567835 -4.337434 -0.341310 0
M  V30 25 C -0.922956 -3.392784 -1.280893 0
M  V30 26 C -1.894236 -3.583889 -2.230879 0
M  V30 27 C -2.574474 -4.784351 -2.273549 0
M  V30 28 C -2.230846 -5.751780 -1.333290 0
M  V30 29 C -1.244774 -5.538872 -0.379838 0
M  V30 30 O -0.994144 -6.598511 0.512625 0
M  V30 31 N 0.752748 -5.133759 1.566505 0
M  V30 32 C 1.700415 -4.965376 2.505988 0
M  V30 33 N 1.942993 -6.054924 3.404886 0
M  V30 34 H 4.829947 -2.307283 2.049211 0
M  V30 35 H 5.930124 -0.067441 2.134403 0
M  V30 36 H 4.601726 1.942816 1.950620 0
M  V30 37 H -0.000730 1.288543 1.442873 0
M  V30 38 H 0.054631 4.093925 0.607568 0
M  V30 39 H -0.159343 3.951622 2.348760 0
M  V30 40 H -2.183966 2.680673 2.131911 0
M  V30 41 H -2.235179 4.093160 1.075809 0
M  V30 42 H -3.688245 0.978077 -0.078630 0
M  V30 43 H -4.051786 2.558064 0.643295 0
M  V30 44 H -3.781412 3.656722 -1.509504 0
M  V30 45 H -4.979691 2.290035 -1.613742 0
M  V30 46 H -3.511008 2.093184 -3.569623 0
M  V30 47 H -3.278654 0.765803 -2.406791 0
M  V30 48 H -1.348922 2.913356 -3.212162 0
M  V30 49 H -1.074665 1.319853 -2.477548 0
M  V30 50 H -0.275725 2.856850 -0.974483 0
M  V30 51 H -1.693182 4.002249 -1.188140 0
M  V30 52 H 1.063292 -0.440951 1.594305 0
M  V30 53 H 1.024763 -2.182164 0.147331 0
M  V30 54 H -0.413835 -2.460766 -1.268135 0
M  V30 55 H -2.122794 -2.790299 -2.944175 0
M  V30 56 H -3.335681 -4.931339 -3.019330 0
M  V30 57 H -2.813159 -6.668611 -1.434532 0
M  V30 58 H -0.850683 -7.496805 0.026713 0
M  V30 59 H 2.673772 -6.789049 3.479750 0
M  V30 60 H 1.235048 -6.156947 4.172282 0
M  V30 END ATOM
M  V30 BEGIN BOND
M  V30 1 3 1 2
M  V30 2 1 2 3
M  V30 3 2 3 4
M  V30 4 1 4 5
M  V30 5 2 5 6
M  V30 6 1 6 7
M  V30 7 2 7 8
M  V30 8 1 8 9
M  V30 9 1 9 10
M  V30 10 2 10 11
M  V30 11 1 10 12
M  V30 12 1 12 13
M  V30 13 1 13 14
M  V30 14 1 14 15
M  V30 15 1 15 16
M  V30 16 1 16 17
M  V30 17 1 17 18
M  V30 18 1 18 19
M  V30 19 1 19 20
M  V30 20 2 9 21
M  V30 21 1 4 22
M  V30 22 2 22 23
M  V30 23 1 23 24
M  V30 24 2 24 25
M  V30 25 1 25 26
M  V30 26 2 26 27
M  V30 27 1 27 28
M  V30 28 2 28 29
M  V30 29 1 29 30
M  V30 30 1 23 31
M  V30 31 2 31 32
M  V30 32 1 32 33
M  V30 33 1 32 3
M  V30 34 1 21 5
M  V30 35 1 29 24
M  V30 36 1 20 15
M  V30 37 1 6 34
M  V30 38 1 7 35
M  V30 39 1 8 36
M  V30 40 1 12 37
M  V30 41 1 13 38
M  V30 42 1 13 39
M  V30 43 1 14 40
M  V30 44 1 14 41
M  V30 45 1 16 42
M  V30 46 1 16 43
M  V30 47 1 17 44
M  V30 48 1 17 45
M  V30 49 1 18 46
M  V30 50 1 18 47
M  V30 51 1 19 48
M  V30 52 1 19 49
M  V30 53 1 20 50
M  V30 54 1 20 51
M  V30 55 1 21 52
M  V30 56 1 22 53
M  V30 57 1 25 54
M  V30 58 1 26 55
M  V30 59 1 27 56
M  V30 60 1 28 57
M  V30 61 1 30 58
M  V30 62 1 33 59
M  V30 63 1 33 60
M  V30 END BOND
M  V30 END CTAB
M  END
>  <Dataset>  (364) 
ChEMBL_Kinases

>  <Ligand_Instance>  (364) 
nan

>  <PDB_ID>  (364) 
nan

>  <Standardized_SMILES>  (364) 
N#Cc1c(-c2cccc(C(=O)NCCN3CCCCC3)c2)cc(-c2ccccc2O)nc1N

>  <Name>  (364) 
nan

>  <Pocket>  (364) 
nan

>  <ATP_Site>  (364) 
nan

>  <Peripheral>  (364) 
nan

>  <Num_H_Atoms_ProtBoundConf>  (364) 
nan

>  <Num_Resolved_Atoms>  (364) 
nan

>  <Num_Not_Resolved_Atoms>  (364) 
nan

$$$$
CHEMBL1741
     RDKit          3D

  0  0  0  0  0  0  0  0  0  0999 V3000
M  V30 BEGIN CTAB
M  V30 COUNTS 121 123 0 0 0
M  V30 BEGIN ATOM
M  V30 1 C -3.680318 -3.812181 1.896169 0
M  V30 2 C -2.663344 -2.880816 1.276772 0
M  V30 3 C -1.276252 -3.032529 1.781219 0 CFG=1
M  V30 4 O -0.343267 -2.183747 1.209271 0
M  V30 5 C 0.622197 -2.101995 0.331506 0
M  V30 6 O 0.517437 -3.291706 -0.063231 0
M  V30 7 C 1.596765 -1.143163 -0.185482 0 CFG=2
M  V30 8 C 2.742979 -1.106324 0.888780 0
M  V30 9 C 1.240271 0.255483 -0.536245 0 CFG=1
M  V30 10 O 2.436797 0.785267 -1.095632 0
M  V30 11 C 3.148394 1.677255 -0.417932 0 CFG=1
M  V30 12 C 4.591130 1.363422 -0.085159 0
M  V30 13 C 5.423577 2.628912 -0.206356 0 CFG=1
M  V30 14 C 4.894704 3.723774 0.693380 0
M  V30 15 O 6.740634 2.286656 0.041596 0
M  V30 16 C 7.018269 1.756199 1.264421 0
M  V30 17 C 5.415930 3.155340 -1.647719 0 CFG=1
M  V30 18 O 6.435002 2.655213 -2.415801 0
M  V30 19 C 4.057227 2.803871 -2.216886 0 CFG=2
M  V30 20 C 3.620008 3.825135 -3.245804 0
M  V30 21 O 3.174490 2.888592 -1.145478 0
M  V30 22 C 0.173618 0.615264 -1.425360 0 CFG=2
M  V30 23 C 0.395635 2.088904 -1.857816 0
M  V30 24 C -1.283222 0.497684 -1.252213 0 CFG=1
M  V30 25 O -1.815495 -0.775684 -1.118374 0
M  V30 26 C -2.310343 -1.356329 -2.246893 0 CFG=2
M  V30 27 O -3.710836 -1.474408 -2.286642 0
M  V30 28 C -4.119969 -1.392157 -3.625051 0 CFG=2
M  V30 29 C -5.618227 -1.270197 -3.647024 0
M  V30 30 C -3.601763 -2.579857 -4.363915 0
M  V30 31 C -2.782828 -3.494241 -3.486745 0 CFG=2
M  V30 32 N -3.621338 -4.266798 -2.581897 0
M  V30 33 C -4.608694 -4.947158 -3.429405 0
M  V30 34 C -2.782543 -5.342376 -2.053547 0
M  V30 35 C -1.773709 -2.684744 -2.651061 0 CFG=1
M  V30 36 O -0.640735 -2.558921 -3.490720 0
M  V30 37 C -2.115632 1.565873 -0.626783 0 CFG=2
M  V30 38 C -3.462959 1.608288 -1.457967 0
M  V30 39 O -1.696711 2.828122 -0.613214 0
M  V30 40 C -2.361737 3.861789 -0.084800 0
M  V30 41 C -2.616747 1.177091 0.740022 0
M  V30 42 C -1.598160 0.844630 1.779773 0 CFG=1
M  V30 43 C -0.782357 2.035846 2.246174 0
M  V30 44 C -2.196664 0.098650 2.924574 0
M  V30 45 O -3.385979 0.257815 2.603575 0
M  V30 46 C -1.583848 -0.596915 4.050969 0 CFG=2
M  V30 47 C -0.987642 0.462764 5.016521 0
M  V30 48 C -0.595412 -1.646905 3.799926 0 CFG=1
M  V30 49 O -0.093417 -2.002048 5.108067 0
M  V30 50 C -1.017275 -3.000342 3.251560 0 CFG=1
M  V30 51 C -1.830474 -3.821424 4.158401 0
M  V30 52 O 0.306638 -3.672411 3.311772 0
M  V30 53 H -3.293904 -4.733755 2.303139 0
M  V30 54 H -4.425863 -4.156109 1.095828 0
M  V30 55 H -4.357635 -3.222410 2.578347 0
M  V30 56 H -2.611026 -3.250749 0.194147 0
M  V30 57 H -3.054810 -1.873529 1.148309 0
M  V30 58 H -1.025585 -4.122618 1.422963 0
M  V30 59 H 2.123338 -1.676021 -1.037478 0
M  V30 60 H 2.572989 -1.959950 1.609167 0
M  V30 61 H 3.715254 -1.286561 0.454783 0
M  V30 62 H 2.724519 -0.213380 1.481180 0
M  V30 63 H 1.246645 0.844013 0.448656 0
M  V30 64 H 2.663945 1.948168 0.544842 0
M  V30 65 H 4.646539 1.100756 0.991537 0
M  V30 66 H 5.074402 0.659998 -0.763822 0
M  V30 67 H 5.682272 4.253837 1.260715 0
M  V30 68 H 4.119213 3.353013 1.393834 0
M  V30 69 H 4.376818 4.491269 0.070574 0
M  V30 70 H 6.533591 0.825576 1.544263 0
M  V30 71 H 6.918882 2.545694 2.071775 0
M  V30 72 H 8.124678 1.541130 1.275452 0
M  V30 73 H 5.480498 4.270233 -1.624074 0
M  V30 74 H 7.000133 2.017650 -1.908133 0
M  V30 75 H 4.060828 1.809987 -2.709977 0
M  V30 76 H 4.289438 4.687143 -3.252728 0
M  V30 77 H 2.543591 4.129884 -3.089534 0
M  V30 78 H 3.612739 3.379419 -4.284325 0
M  V30 79 H 0.405463 0.069874 -2.415057 0
M  V30 80 H 1.186408 2.124312 -2.637568 0
M  V30 81 H 0.517781 2.672072 -0.974105 0
M  V30 82 H -0.510175 2.464947 -2.419219 0
M  V30 83 H -1.610894 0.651956 -2.386012 0
M  V30 84 H -2.104468 -0.674641 -3.129521 0
M  V30 85 H -3.625750 -0.474053 -4.043950 0
M  V30 86 H -6.059946 -1.559035 -2.664562 0
M  V30 87 H -5.850666 -0.191316 -3.779349 0
M  V30 88 H -6.070243 -1.857757 -4.471602 0
M  V30 89 H -4.376755 -3.171865 -4.852772 0
M  V30 90 H -2.908859 -2.267234 -5.204362 0
M  V30 91 H -2.260436 -4.216320 -4.139436 0
M  V30 92 H -4.995931 -5.798023 -2.797057 0
M  V30 93 H -4.180567 -5.355885 -4.344016 0
M  V30 94 H -5.486136 -4.281133 -3.570424 0
M  V30 95 H -3.223652 -6.343198 -2.294323 0
M  V30 96 H -1.777097 -5.357308 -2.509451 0
M  V30 97 H -2.713422 -5.322685 -0.947738 0
M  V30 98 H -1.473915 -3.369425 -1.866085 0
M  V30 99 H -0.867101 -1.973978 -4.275091 0
M  V30 100 H -4.178119 0.886463 -1.037188 0
M  V30 101 H -3.176717 1.253381 -2.465975 0
M  V30 102 H -3.835979 2.611707 -1.573627 0
M  V30 103 H -3.344560 4.049337 -0.539328 0
M  V30 104 H -2.484659 3.897540 1.023275 0
M  V30 105 H -1.765564 4.801577 -0.379982 0
M  V30 106 H -3.230029 2.018783 1.184268 0
M  V30 107 H -3.347908 0.346819 0.677554 0
M  V30 108 H -0.820876 0.177968 1.327480 0
M  V30 109 H -1.383653 2.777971 2.810383 0
M  V30 110 H 0.052998 1.709145 2.906824 0
M  V30 111 H -0.301292 2.561845 1.407086 0
M  V30 112 H -2.426610 -1.057685 4.635978 0
M  V30 113 H 0.116212 0.481147 4.950133 0
M  V30 114 H -1.255804 0.146195 6.034726 0
M  V30 115 H -1.491265 1.415185 4.807736 0
M  V30 116 H 0.307068 -1.337485 3.243066 0
M  V30 117 H 0.856676 -2.241829 5.047550 0
M  V30 118 H -1.687056 -4.926282 3.971864 0
M  V30 119 H -1.340248 -3.720068 5.194283 0
M  V30 120 H -2.868681 -3.562461 4.323193 0
M  V30 121 H 0.101660 -4.632594 3.119283 0
M  V30 END ATOM
M  V30 BEGIN BOND
M  V30 1 1 1 2
M  V30 2 1 2 3
M  V30 3 1 3 4
M  V30 4 1 4 5
M  V30 5 2 5 6
M  V30 6 1 5 7
M  V30 7 1 7 8
M  V30 8 1 7 9
M  V30 9 1 9 10
M  V30 10 1 10 11
M  V30 11 1 11 12
M  V30 12 1 12 13
M  V30 13 1 13 14
M  V30 14 1 13 15 CFG=1
M  V30 15 1 15 16
M  V30 16 1 13 17
M  V30 17 1 17 18
M  V30 18 1 17 19
M  V30 19 1 19 20
M  V30 20 1 19 21
M  V30 21 1 9 22
M  V30 22 1 22 23
M  V30 23 1 22 24
M  V30 24 1 24 25
M  V30 25 1 25 26
M  V30 26 1 26 27
M  V30 27 1 27 28
M  V30 28 1 28 29
M  V30 29 1 28 30
M  V30 30 1 30 31
M  V30 31 1 31 32
M  V30 32 1 32 33
M  V30 33 1 32 34
M  V30 34 1 31 35
M  V30 35 1 35 36
M  V30 36 1 24 37
M  V30 37 1 37 38
M  V30 38 1 37 39 CFG=1
M  V30 39 1 39 40
M  V30 40 1 37 41
M  V30 41 1 41 42
M  V30 42 1 42 43
M  V30 43 1 42 44
M  V30 44 2 44 45
M  V30 45 1 44 46
M  V30 46 1 46 47
M  V30 47 1 46 48
M  V30 48 1 48 49
M  V30 49 1 48 50
M  V30 50 1 50 51
M  V30 51 1 50 52 CFG=3
M  V30 52 1 50 3
M  V30 53 1 21 11
M  V30 54 1 35 26
M  V30 55 1 1 53
M  V30 56 1 1 54
M  V30 57 1 1 55
M  V30 58 1 2 56
M  V30 59 1 2 57
M  V30 60 1 3 58 CFG=3
M  V30 61 1 7 59 CFG=3
M  V30 62 1 8 60
M  V30 63 1 8 61
M  V30 64 1 8 62
M  V30 65 1 9 63 CFG=1
M  V30 66 1 11 64 CFG=1
M  V30 67 1 12 65
M  V30 68 1 12 66
M  V30 69 1 14 67
M  V30 70 1 14 68
M  V30 71 1 14 69
M  V30 72 1 16 70
M  V30 73 1 16 71
M  V30 74 1 16 72
M  V30 75 1 17 73 CFG=1
M  V30 76 1 18 74
M  V30 77 1 19 75 CFG=3
M  V30 78 1 20 76
M  V30 79 1 20 77
M  V30 80 1 20 78
M  V30 81 1 22 79 CFG=3
M  V30 82 1 23 80
M  V30 83 1 23 81
M  V30 84 1 23 82
M  V30 85 1 24 83 CFG=3
M  V30 86 1 26 84 CFG=3
M  V30 87 1 28 85 CFG=3
M  V30 88 1 29 86
M  V30 89 1 29 87
M  V30 90 1 29 88
M  V30 91 1 30 89
M  V30 92 1 30 90
M  V30 93 1 31 91 CFG=3
M  V30 94 1 33 92
M  V30 95 1 33 93
M  V30 96 1 33 94
M  V30 97 1 34 95
M  V30 98 1 34 96
M  V30 99 1 34 97
M  V30 100 1 35 98 CFG=1
M  V30 101 1 36 99
M  V30 102 1 38 100
M  V30 103 1 38 101
M  V30 104 1 38 102
M  V30 105 1 40 103
M  V30 106 1 40 104
M  V30 107 1 40 105
M  V30 108 1 41 106
M  V30 109 1 41 107
M  V30 110 1 42 108 CFG=3
M  V30 111 1 43 109
M  V30 112 1 43 110
M  V30 113 1 43 111
M  V30 114 1 46 112 CFG=1
M  V30 115 1 47 113
M  V30 116 1 47 114
M  V30 117 1 47 115
M  V30 118 1 48 116 CFG=3
M  V30 119 1 49 117
M  V30 120 1 51 118
M  V30 121 1 51 119
M  V30 122 1 51 120
M  V30 123 1 52 121
M  V30 END BOND
M  V30 END CTAB
M  END
>  <Dataset>  (365) 
ChEMBL_Kinases

>  <Ligand_Instance>  (365) 
nan

>  <PDB_ID>  (365) 
nan

>  <Standardized_SMILES>  (365) 
CC[C@H]1OC(=O)[C@H](C)[C@@H](O[C@H]2C[C@@](C)(OC)[C@@H](O)[C@H](C)O2)[C@H](C)[C@@H](O[C@@H]2O[C@H](C)C[C@H](N(C)C)[C@H]2O)[C@](C)(OC)C[C@@H](C)C(=O)[C@H](C)[C@@H](O)[C@]1(C)O

>  <Name>  (365) 
CLARITHROMYCIN

>  <Pocket>  (365) 
nan

>  <ATP_Site>  (365) 
nan

>  <Peripheral>  (365) 
nan

>  <Num_H_Atoms_ProtBoundConf>  (365) 
nan

>  <Num_Resolved_Atoms>  (365) 
nan

>  <Num_Not_Resolved_Atoms>  (365) 
nan

$$$$
CHEMBL1739550
     RDKit          3D

  0  0  0  0  0  0  0  0  0  0999 V3000
M  V30 BEGIN CTAB
M  V30 COUNTS 50 54 0 0 0
M  V30 BEGIN ATOM
M  V30 1 C 2.889090 -3.615937 2.657941 0
M  V30 2 C 2.833559 -2.181350 2.248692 0
M  V30 3 C 3.482801 -1.704922 1.130003 0
M  V30 4 N 3.482223 -0.441440 0.703480 0
M  V30 5 C 4.050970 0.154330 -0.350819 0
M  V30 6 C 4.871755 -0.354821 -1.423930 0
M  V30 7 C 5.409769 -1.554665 -1.806187 0
M  V30 8 N 6.114062 -1.427242 -2.969722 0
M  V30 9 N 6.057128 -0.174730 -3.367702 0
M  V30 10 C 5.322349 0.473257 -2.458741 0
M  V30 11 C 3.640543 1.470982 -0.197946 0
M  V30 12 N 2.875025 1.605819 0.893874 0
M  V30 13 C 2.772661 0.412817 1.461123 0
M  V30 14 C 2.091123 0.032290 2.594695 0
M  V30 15 N 1.336703 0.903774 3.419794 0
M  V30 16 C -0.003753 1.216723 2.950781 0
M  V30 17 C -0.660007 0.827170 1.734711 0
M  V30 18 C -1.925464 1.269093 1.566495 0
M  V30 19 C -2.659455 0.915865 0.315349 0
M  V30 20 N -3.330734 -0.326560 0.471823 0
M  V30 21 C -4.318969 -0.331035 1.494728 0
M  V30 22 C -5.662614 -0.849249 1.024474 0
M  V30 23 C -5.503844 -2.220756 0.445389 0
M  V30 24 C -4.312386 -2.306847 -0.453248 0
M  V30 25 C -3.732987 -0.942066 -0.769561 0
M  V30 26 N -2.503501 2.046246 2.539859 0
M  V30 27 S -1.230642 2.203274 3.805653 0
M  V30 28 N 2.135512 -1.282214 2.973993 0
M  V30 29 H 3.160248 -3.658535 3.737377 0
M  V30 30 H 3.555191 -4.198874 2.023970 0
M  V30 31 H 1.852828 -3.992228 2.538879 0
M  V30 32 H 4.017851 -2.438750 0.588262 0
M  V30 33 H 5.293933 -2.468879 -1.263134 0
M  V30 34 H 6.516423 0.176783 -4.233708 0
M  V30 35 H 5.149147 1.543490 -2.603274 0
M  V30 36 H 3.860297 2.346313 -0.829850 0
M  V30 37 H 1.569048 1.360840 4.308871 0
M  V30 38 H -0.069645 0.214583 1.075266 0
M  V30 39 H -3.369403 1.774518 0.121631 0
M  V30 40 H -1.956922 0.852079 -0.548589 0
M  V30 41 H -4.498071 0.683033 1.927048 0
M  V30 42 H -3.999729 -0.981292 2.321774 0
M  V30 43 H -6.285198 -0.935691 1.963511 0
M  V30 44 H -6.149551 -0.119406 0.351992 0
M  V30 45 H -6.458286 -2.471716 -0.071666 0
M  V30 46 H -5.430752 -2.944164 1.289157 0
M  V30 47 H -4.621975 -2.766079 -1.411640 0
M  V30 48 H -3.535562 -2.950852 -0.005957 0
M  V30 49 H -2.806410 -1.141814 -1.372573 0
M  V30 50 H -4.412856 -0.342604 -1.373084 0
M  V30 END ATOM
M  V30 BEGIN BOND
M  V30 1 1 1 2
M  V30 2 2 2 3
M  V30 3 1 3 4
M  V30 4 1 4 5
M  V30 5 1 5 6
M  V30 6 1 6 7
M  V30 7 2 7 8
M  V30 8 1 8 9
M  V30 9 1 9 10
M  V30 10 2 5 11
M  V30 11 1 11 12
M  V30 12 2 12 13
M  V30 13 1 13 14
M  V30 14 1 14 15
M  V30 15 1 15 16
M  V30 16 2 16 17
M  V30 17 1 17 18
M  V30 18 1 18 19
M  V30 19 1 19 20
M  V30 20 1 20 21
M  V30 21 1 21 22
M  V30 22 1 22 23
M  V30 23 1 23 24
M  V30 24 1 24 25
M  V30 25 2 18 26
M  V30 26 1 26 27
M  V30 27 2 14 28
M  V30 28 1 28 2
M  V30 29 1 13 4
M  V30 30 1 27 16
M  V30 31 2 10 6
M  V30 32 1 25 20
M  V30 33 1 1 29
M  V30 34 1 1 30
M  V30 35 1 1 31
M  V30 36 1 3 32
M  V30 37 1 7 33
M  V30 38 1 9 34
M  V30 39 1 10 35
M  V30 40 1 11 36
M  V30 41 1 15 37
M  V30 42 1 17 38
M  V30 43 1 19 39
M  V30 44 1 19 40
M  V30 45 1 21 41
M  V30 46 1 21 42
M  V30 47 1 22 43
M  V30 48 1 22 44
M  V30 49 1 23 45
M  V30 50 1 23 46
M  V30 51 1 24 47
M  V30 52 1 24 48
M  V30 53 1 25 49
M  V30 54 1 25 50
M  V30 END BOND
M  V30 END CTAB
M  END
>  <Dataset>  (366) 
ChEMBL_Kinases

>  <Ligand_Instance>  (366) 
nan

>  <PDB_ID>  (366) 
nan

>  <Standardized_SMILES>  (366) 
Cc1cn2c(-c3cn[nH]c3)cnc2c(Nc2cc(CN3CCCCC3)ns2)n1

>  <Name>  (366) 
nan

>  <Pocket>  (366) 
nan

>  <ATP_Site>  (366) 
nan

>  <Peripheral>  (366) 
nan

>  <Num_H_Atoms_ProtBoundConf>  (366) 
nan

>  <Num_Resolved_Atoms>  (366) 
nan

>  <Num_Not_Resolved_Atoms>  (366) 
nan

$$$$
CHEMBL1738953
     RDKit          3D

  0  0  0  0  0  0  0  0  0  0999 V3000
M  V30 BEGIN CTAB
M  V30 COUNTS 35 38 0 0 0
M  V30 BEGIN ATOM
M  V30 1 O 0.356499 -0.041030 4.909382 0
M  V30 2 C 0.638465 -0.552960 3.772457 0
M  V30 3 N 1.509496 -1.563714 3.754806 0
M  V30 4 C 1.956107 -2.253999 2.692300 0
M  V30 5 C 1.410752 -1.819211 1.490628 0
M  V30 6 C 1.769270 -2.440571 0.225683 0
M  V30 7 C 1.832613 -3.815398 0.075547 0
M  V30 8 C 2.176954 -4.403034 -1.139803 0
M  V30 9 C 2.461313 -3.564016 -2.220213 0
M  V30 10 O 2.798423 -4.201377 -3.406434 0
M  V30 11 C 2.411205 -2.172791 -2.119047 0
M  V30 12 C 2.062391 -1.662193 -0.883006 0
M  V30 13 C 0.477560 -0.743043 1.468421 0
M  V30 14 S -0.386879 0.051395 0.208333 0
M  V30 15 C -1.236402 1.200894 1.228073 0
M  V30 16 C -2.203912 2.230593 0.678392 0
M  V30 17 C -2.419079 2.257057 -0.683977 0
M  V30 18 C -3.328076 3.249087 -1.049777 0
M  V30 19 N -3.917512 4.074831 -0.169743 0
M  V30 20 C -3.664364 3.994999 1.134933 0
M  V30 21 C -2.782376 3.053500 1.618785 0
M  V30 22 C -0.805740 0.899883 2.436175 0
M  V30 23 C 0.075947 -0.099234 2.565148 0
M  V30 24 H 1.923322 -1.891608 4.679132 0
M  V30 25 H 2.662063 -3.064928 2.728603 0
M  V30 26 H 1.612081 -4.471538 0.913774 0
M  V30 27 H 2.225848 -5.479834 -1.254779 0
M  V30 28 H 3.089456 -3.614764 -4.177967 0
M  V30 29 H 2.635597 -1.556230 -2.968951 0
M  V30 30 H 2.005240 -0.581661 -0.738314 0
M  V30 31 H -1.935814 1.586966 -1.363170 0
M  V30 32 H -3.568293 3.352226 -2.119994 0
M  V30 33 H -4.143231 4.663726 1.836926 0
M  V30 34 H -2.565137 2.973884 2.670375 0
M  V30 35 H -1.239622 1.532639 3.236593 0
M  V30 END ATOM
M  V30 BEGIN BOND
M  V30 1 2 1 2
M  V30 2 1 2 3
M  V30 3 1 3 4
M  V30 4 2 4 5
M  V30 5 1 5 6
M  V30 6 2 6 7
M  V30 7 1 7 8
M  V30 8 2 8 9
M  V30 9 1 9 10
M  V30 10 1 9 11
M  V30 11 2 11 12
M  V30 12 1 5 13
M  V30 13 1 13 14
M  V30 14 1 14 15
M  V30 15 1 15 16
M  V30 16 2 16 17
M  V30 17 1 17 18
M  V30 18 2 18 19
M  V30 19 1 19 20
M  V30 20 2 20 21
M  V30 21 2 15 22
M  V30 22 1 22 23
M  V30 23 1 23 2
M  V30 24 1 12 6
M  V30 25 2 23 13
M  V30 26 1 21 16
M  V30 27 1 3 24
M  V30 28 1 4 25
M  V30 29 1 7 26
M  V30 30 1 8 27
M  V30 31 1 10 28
M  V30 32 1 11 29
M  V30 33 1 12 30
M  V30 34 1 17 31
M  V30 35 1 18 32
M  V30 36 1 20 33
M  V30 37 1 21 34
M  V30 38 1 22 35
M  V30 END BOND
M  V30 END CTAB
M  END
>  <Dataset>  (367) 
ChEMBL_Kinases

>  <Ligand_Instance>  (367) 
nan

>  <PDB_ID>  (367) 
nan

>  <Standardized_SMILES>  (367) 
O=c1[nH]cc(-c2ccc(O)cc2)c2sc(-c3ccncc3)cc12

>  <Name>  (367) 
nan

>  <Pocket>  (367) 
nan

>  <ATP_Site>  (367) 
nan

>  <Peripheral>  (367) 
nan

>  <Num_H_Atoms_ProtBoundConf>  (367) 
nan

>  <Num_Resolved_Atoms>  (367) 
nan

>  <Num_Not_Resolved_Atoms>  (367) 
nan

$$$$
CHEMBL1738952
     RDKit          3D

  0  0  0  0  0  0  0  0  0  0999 V3000
M  V30 BEGIN CTAB
M  V30 COUNTS 24 26 0 0 0
M  V30 BEGIN ATOM
M  V30 1 O -0.232055 -3.218985 2.779415 0
M  V30 2 C 0.791176 -2.961361 2.093885 0
M  V30 3 N 1.772192 -3.840248 2.017824 0
M  V30 4 C 2.921554 -3.759265 1.355367 0
M  V30 5 C 3.145766 -2.606810 0.639393 0
M  V30 6 Br 4.655146 -2.161469 -0.405559 0
M  V30 7 C 2.099487 -1.617879 0.693891 0
M  V30 8 S 1.963217 0.036579 -0.086563 0
M  V30 9 C 0.377895 0.403897 0.579891 0
M  V30 10 C -0.355405 1.621339 0.347417 0
M  V30 11 C 0.241111 2.543388 -0.450646 0
M  V30 12 C -0.426079 3.737664 -0.706873 0
M  V30 13 N -1.639764 3.922088 -0.146720 0
M  V30 14 C -2.223596 2.987375 0.651030 0
M  V30 15 C -1.573590 1.778644 0.923998 0
M  V30 16 C 0.035550 -0.734567 1.352439 0
M  V30 17 C 0.916856 -1.773715 1.412952 0
M  V30 18 H 1.645412 -4.750860 2.556352 0
M  V30 19 H 3.722753 -4.477655 1.293552 0
M  V30 20 H 1.197536 2.477524 -0.933084 0
M  V30 21 H -0.023283 4.512503 -1.324346 0
M  V30 22 H -3.200926 3.131363 1.104433 0
M  V30 23 H -2.036665 1.026616 1.562252 0
M  V30 24 H -0.922150 -0.684420 1.843711 0
M  V30 END ATOM
M  V30 BEGIN BOND
M  V30 1 2 1 2
M  V30 2 1 2 3
M  V30 3 1 3 4
M  V30 4 2 4 5
M  V30 5 1 5 6
M  V30 6 1 5 7
M  V30 7 1 7 8
M  V30 8 1 8 9
M  V30 9 1 9 10
M  V30 10 2 10 11
M  V30 11 1 11 12
M  V30 12 2 12 13
M  V30 13 1 13 14
M  V30 14 2 14 15
M  V30 15 2 9 16
M  V30 16 1 16 17
M  V30 17 1 17 2
M  V30 18 2 17 7
M  V30 19 1 15 10
M  V30 20 1 3 18
M  V30 21 1 4 19
M  V30 22 1 11 20
M  V30 23 1 12 21
M  V30 24 1 14 22
M  V30 25 1 15 23
M  V30 26 1 16 24
M  V30 END BOND
M  V30 END CTAB
M  END
>  <Dataset>  (368) 
ChEMBL_Kinases

>  <Ligand_Instance>  (368) 
nan

>  <PDB_ID>  (368) 
nan

>  <Standardized_SMILES>  (368) 
O=c1[nH]cc(Br)c2sc(-c3ccncc3)cc12

>  <Name>  (368) 
nan

>  <Pocket>  (368) 
nan

>  <ATP_Site>  (368) 
nan

>  <Peripheral>  (368) 
nan

>  <Num_H_Atoms_ProtBoundConf>  (368) 
nan

>  <Num_Resolved_Atoms>  (368) 
nan

>  <Num_Not_Resolved_Atoms>  (368) 
nan

$$$$
CHEMBL1738951
     RDKit          3D

  0  0  0  0  0  0  0  0  0  0999 V3000
M  V30 BEGIN CTAB
M  V30 COUNTS 24 26 0 0 0
M  V30 BEGIN ATOM
M  V30 1 O 1.043798 -1.916642 4.230500 0
M  V30 2 C 0.977443 -2.365529 3.056709 0
M  V30 3 N 1.082884 -3.677550 2.744910 0
M  V30 4 C 1.008917 -4.137079 1.480377 0
M  V30 5 C 0.815727 -3.265229 0.404898 0
M  V30 6 C 0.712958 -1.932787 0.766492 0
M  V30 7 O 0.531049 -0.899769 -0.018218 0
M  V30 8 C 0.478831 0.227914 0.649935 0
M  V30 9 C 0.283530 1.564791 0.052361 0
M  V30 10 C 0.149990 1.582742 -1.319807 0
M  V30 11 C -0.032493 2.871122 -1.835663 0
M  V30 12 N -0.077861 3.995961 -1.098682 0
M  V30 13 C 0.060941 3.884292 0.227512 0
M  V30 14 C 0.249629 2.666211 0.883626 0
M  V30 15 C 0.636937 -0.057404 1.990364 0
M  V30 16 C 0.784138 -1.429093 2.049453 0
M  V30 17 H 1.229899 -4.373105 3.528862 0
M  V30 18 H 1.096517 -5.199829 1.250657 0
M  V30 19 H 0.747070 -3.563466 -0.630932 0
M  V30 20 H 0.180807 0.715020 -1.931921 0
M  V30 21 H -0.145476 2.950142 -2.928015 0
M  V30 22 H 0.027121 4.777530 0.835728 0
M  V30 23 H 0.362186 2.565144 1.947769 0
M  V30 24 H 0.647599 0.608359 2.817096 0
M  V30 END ATOM
M  V30 BEGIN BOND
M  V30 1 2 1 2
M  V30 2 1 2 3
M  V30 3 1 3 4
M  V30 4 2 4 5
M  V30 5 1 5 6
M  V30 6 1 6 7
M  V30 7 1 7 8
M  V30 8 1 8 9
M  V30 9 2 9 10
M  V30 10 1 10 11
M  V30 11 2 11 12
M  V30 12 1 12 13
M  V30 13 2 13 14
M  V30 14 2 8 15
M  V30 15 1 15 16
M  V30 16 1 16 2
M  V30 17 2 16 6
M  V30 18 1 14 9
M  V30 19 1 3 17
M  V30 20 1 4 18
M  V30 21 1 5 19
M  V30 22 1 10 20
M  V30 23 1 11 21
M  V30 24 1 13 22
M  V30 25 1 14 23
M  V30 26 1 15 24
M  V30 END BOND
M  V30 END CTAB
M  END
>  <Dataset>  (369) 
ChEMBL_Kinases

>  <Ligand_Instance>  (369) 
nan

>  <PDB_ID>  (369) 
nan

>  <Standardized_SMILES>  (369) 
O=c1[nH]ccc2oc(-c3ccncc3)cc12

>  <Name>  (369) 
nan

>  <Pocket>  (369) 
nan

>  <ATP_Site>  (369) 
nan

>  <Peripheral>  (369) 
nan

>  <Num_H_Atoms_ProtBoundConf>  (369) 
nan

>  <Num_Resolved_Atoms>  (369) 
nan

>  <Num_Not_Resolved_Atoms>  (369) 
nan

$$$$
CHEMBL1738946
     RDKit          3D

  0  0  0  0  0  0  0  0  0  0999 V3000
M  V30 BEGIN CTAB
M  V30 COUNTS 46 48 0 0 0
M  V30 BEGIN ATOM
M  V30 1 C 1.245673 -6.124088 2.179075 0
M  V30 2 C 1.251687 -4.699038 1.734104 0
M  V30 3 C 0.567527 -4.332744 0.591647 0
M  V30 4 C 0.569125 -3.017532 0.175065 0
M  V30 5 C 1.258373 -2.072814 0.907509 0
M  V30 6 N 1.395650 -0.676422 0.668511 0
M  V30 7 N 2.220244 0.086180 -0.031482 0
M  V30 8 C 1.892342 1.376151 0.093169 0
M  V30 9 C 2.674050 2.459760 -0.605219 0
M  V30 10 C 2.081817 2.723347 -1.979379 0
M  V30 11 C 4.108960 2.051655 -0.696451 0
M  V30 12 C 2.515912 3.722328 0.188789 0
M  V30 13 C 0.784037 1.426298 0.930283 0
M  V30 14 C 0.487639 0.105088 1.282910 0
M  V30 15 N -0.636484 -0.032566 2.150160 0
M  V30 16 C -1.954365 -0.197328 1.603262 0
M  V30 17 O -2.046810 -0.211517 0.347208 0
M  V30 18 N -3.136675 -0.342419 2.372313 0
M  V30 19 C -4.399512 -0.500681 1.670352 0
M  V30 20 N -5.179921 0.258814 1.292982 0
M  V30 21 C -6.315045 0.018856 0.655580 0
M  V30 22 C -6.622710 -1.347111 0.397187 0
M  V30 23 S -5.117493 -2.188542 1.166078 0
M  V30 24 C 1.949411 -2.443914 2.061807 0
M  V30 25 C 1.956008 -3.770679 2.494358 0
M  V30 26 H 0.230237 -6.356266 2.607228 0
M  V30 27 H 1.347858 -6.746210 1.282730 0
M  V30 28 H 2.022193 -6.279388 2.951664 0
M  V30 29 H 0.018673 -5.021264 -0.011917 0
M  V30 30 H 0.077464 -2.598930 -0.695437 0
M  V30 31 H 1.047564 2.303039 -1.994530 0
M  V30 32 H 2.627593 2.199427 -2.789064 0
M  V30 33 H 1.975389 3.811164 -2.179269 0
M  V30 34 H 4.559629 2.580085 -1.563597 0
M  V30 35 H 4.244135 0.979258 -0.886102 0
M  V30 36 H 4.635006 2.419150 0.204319 0
M  V30 37 H 1.421642 3.935644 0.295211 0
M  V30 38 H 3.051684 4.553063 -0.316071 0
M  V30 39 H 2.886536 3.540159 1.229219 0
M  V30 40 H 0.370082 2.397460 1.151064 0
M  V30 41 H -0.668383 -0.034263 3.196871 0
M  V30 42 H -3.035534 -0.327626 3.408325 0
M  V30 43 H -6.949674 0.844204 0.362372 0
M  V30 44 H -7.529299 -1.626903 -0.117688 0
M  V30 45 H 2.522265 -1.792563 2.713190 0
M  V30 46 H 2.483798 -4.096792 3.389564 0
M  V30 END ATOM
M  V30 BEGIN BOND
M  V30 1 1 1 2
M  V30 2 2 2 3
M  V30 3 1 3 4
M  V30 4 2 4 5
M  V30 5 1 5 6
M  V30 6 1 6 7
M  V30 7 2 7 8
M  V30 8 1 8 9
M  V30 9 1 9 10
M  V30 10 1 9 11
M  V30 11 1 9 12
M  V30 12 1 8 13
M  V30 13 2 13 14
M  V30 14 1 14 15
M  V30 15 1 15 16
M  V30 16 2 16 17
M  V30 17 1 16 18
M  V30 18 1 18 19
M  V30 19 2 19 20
M  V30 20 1 20 21
M  V30 21 2 21 22
M  V30 22 1 22 23
M  V30 23 1 5 24
M  V30 24 2 24 25
M  V30 25 1 25 2
M  V30 26 1 14 6
M  V30 27 1 23 19
M  V30 28 1 1 26
M  V30 29 1 1 27
M  V30 30 1 1 28
M  V30 31 1 3 29
M  V30 32 1 4 30
M  V30 33 1 10 31
M  V30 34 1 10 32
M  V30 35 1 10 33
M  V30 36 1 11 34
M  V30 37 1 11 35
M  V30 38 1 11 36
M  V30 39 1 12 37
M  V30 40 1 12 38
M  V30 41 1 12 39
M  V30 42 1 13 40
M  V30 43 1 15 41
M  V30 44 1 18 42
M  V30 45 1 21 43
M  V30 46 1 22 44
M  V30 47 1 24 45
M  V30 48 1 25 46
M  V30 END BOND
M  V30 END CTAB
M  END
>  <Dataset>  (370) 
ChEMBL_Kinases

>  <Ligand_Instance>  (370) 
nan

>  <PDB_ID>  (370) 
nan

>  <Standardized_SMILES>  (370) 
Cc1ccc(-n2nc(C(C)(C)C)cc2NC(=O)Nc2nccs2)cc1

>  <Name>  (370) 
nan

>  <Pocket>  (370) 
nan

>  <ATP_Site>  (370) 
nan

>  <Peripheral>  (370) 
nan

>  <Num_H_Atoms_ProtBoundConf>  (370) 
nan

>  <Num_Resolved_Atoms>  (370) 
nan

>  <Num_Not_Resolved_Atoms>  (370) 
nan

$$$$
CHEMBL1738945
     RDKit          3D

  0  0  0  0  0  0  0  0  0  0999 V3000
M  V30 BEGIN CTAB
M  V30 COUNTS 69 72 0 0 0
M  V30 BEGIN ATOM
M  V30 1 C 4.219620 -3.586788 3.601441 0
M  V30 2 C 2.870048 -3.759195 2.958049 0
M  V30 3 C 2.860817 -4.934440 2.029906 0
M  V30 4 C 1.850943 -3.961155 4.075467 0
M  V30 5 C 2.502478 -2.503961 2.251235 0
M  V30 6 C 2.865817 -2.341018 0.930538 0
M  V30 7 C 2.410339 -1.107086 0.517674 0
M  V30 8 N 2.388355 -0.261219 -0.625866 0
M  V30 9 C 1.360948 -0.300575 -1.602628 0
M  V30 10 O 0.412577 -1.116071 -1.481208 0
M  V30 11 N 1.375362 0.554264 -2.710368 0
M  V30 12 C 0.278384 0.459239 -3.691244 0
M  V30 13 N -0.710109 -0.198295 -3.843549 0
M  V30 14 C -1.563892 -0.098918 -4.825046 0
M  V30 15 C -2.785670 -0.919884 -5.012096 0
M  V30 16 C -2.965019 -1.920099 -3.928939 0
M  V30 17 O -3.090849 -1.415927 -2.654038 0
M  V30 18 C -3.256461 -2.529083 -1.811211 0
M  V30 19 C -3.417305 -2.149775 -0.395990 0
M  V30 20 C -4.739501 -1.932559 -0.031229 0
M  V30 21 C -5.099579 -1.572182 1.250315 0
M  V30 22 C -4.129653 -1.417499 2.215330 0
M  V30 23 C -2.791607 -1.632055 1.866716 0
M  V30 24 C -2.475439 -1.991555 0.572296 0
M  V30 25 C -1.232932 0.933054 -5.807752 0
M  V30 26 S 0.371018 1.617374 -5.073559 0
M  V30 27 N 1.780040 -0.542018 1.590377 0
M  V30 28 C 1.099488 0.698804 1.849410 0
M  V30 29 C 1.937774 1.628299 2.476035 0
M  V30 30 C 1.483197 2.865601 2.805817 0
M  V30 31 C 0.182198 3.250863 2.536155 0
M  V30 32 C -0.413439 4.566546 2.850704 0
M  V30 33 C -0.218305 5.510171 1.695383 0
M  V30 34 O 0.381703 5.131122 0.656482 0
M  V30 35 O -0.709995 6.803215 1.794075 0
M  V30 36 C -0.624939 2.324218 1.920677 0
M  V30 37 C -0.200198 1.060347 1.571102 0
M  V30 38 N 1.836456 -1.383755 2.631921 0
M  V30 39 H 4.155222 -2.902490 4.470593 0
M  V30 40 H 4.944694 -3.165967 2.879247 0
M  V30 41 H 4.610914 -4.573518 3.944297 0
M  V30 42 H 3.441733 -5.739687 2.530384 0
M  V30 43 H 1.806516 -5.324300 2.001342 0
M  V30 44 H 3.265273 -4.739009 1.037252 0
M  V30 45 H 0.913656 -4.394458 3.677629 0
M  V30 46 H 2.273197 -4.595126 4.878103 0
M  V30 47 H 1.611522 -2.984072 4.510694 0
M  V30 48 H 3.389060 -2.896330 0.164138 0
M  V30 49 H 3.159114 0.428597 -0.762034 0
M  V30 50 H 2.158636 1.202573 -2.776411 0
M  V30 51 H -3.693770 -0.280172 -5.053637 0
M  V30 52 H -2.745046 -1.477107 -5.973939 0
M  V30 53 H -2.182385 -2.723579 -3.981242 0
M  V30 54 H -3.924920 -2.459887 -4.143735 0
M  V30 55 H -2.315707 -3.147296 -1.854413 0
M  V30 56 H -4.073188 -3.200201 -2.138497 0
M  V30 57 H -5.582701 -2.025054 -0.704248 0
M  V30 58 H -6.126151 -1.399559 1.548561 0
M  V30 59 H -4.293374 -1.136631 3.258483 0
M  V30 60 H -2.008404 -1.518832 2.600555 0
M  V30 61 H -1.454562 -2.174223 0.233527 0
M  V30 62 H -2.000591 1.093624 -6.780555 0
M  V30 63 H 2.986977 1.437354 2.739265 0
M  V30 64 H 2.096403 3.629390 3.296240 0
M  V30 65 H -1.488656 4.425076 3.081148 0
M  V30 66 H 0.148042 4.949392 3.752524 0
M  V30 67 H -1.084955 7.241290 0.956960 0
M  V30 68 H -1.667333 2.537907 1.667794 0
M  V30 69 H -0.753048 0.278509 1.091919 0
M  V30 END ATOM
M  V30 BEGIN BOND
M  V30 1 1 1 2
M  V30 2 1 2 3
M  V30 3 1 2 4
M  V30 4 1 2 5
M  V30 5 1 5 6
M  V30 6 2 6 7
M  V30 7 1 7 8
M  V30 8 1 8 9
M  V30 9 2 9 10
M  V30 10 1 9 11
M  V30 11 1 11 12
M  V30 12 2 12 13
M  V30 13 1 13 14
M  V30 14 1 14 15
M  V30 15 1 15 16
M  V30 16 1 16 17
M  V30 17 1 17 18
M  V30 18 1 18 19
M  V30 19 2 19 20
M  V30 20 1 20 21
M  V30 21 2 21 22
M  V30 22 1 22 23
M  V30 23 2 23 24
M  V30 24 2 14 25
M  V30 25 1 25 26
M  V30 26 1 7 27
M  V30 27 1 27 28
M  V30 28 2 28 29
M  V30 29 1 29 30
M  V30 30 2 30 31
M  V30 31 1 31 32
M  V30 32 1 32 33
M  V30 33 2 33 34
M  V30 34 1 33 35
M  V30 35 1 31 36
M  V30 36 2 36 37
M  V30 37 1 27 38
M  V30 38 2 38 5
M  V30 39 1 26 12
M  V30 40 1 37 28
M  V30 41 1 24 19
M  V30 42 1 1 39
M  V30 43 1 1 40
M  V30 44 1 1 41
M  V30 45 1 3 42
M  V30 46 1 3 43
M  V30 47 1 3 44
M  V30 48 1 4 45
M  V30 49 1 4 46
M  V30 50 1 4 47
M  V30 51 1 6 48
M  V30 52 1 8 49
M  V30 53 1 11 50
M  V30 54 1 15 51
M  V30 55 1 15 52
M  V30 56 1 16 53
M  V30 57 1 16 54
M  V30 58 1 18 55
M  V30 59 1 18 56
M  V30 60 1 20 57
M  V30 61 1 21 58
M  V30 62 1 22 59
M  V30 63 1 23 60
M  V30 64 1 24 61
M  V30 65 1 25 62
M  V30 66 1 29 63
M  V30 67 1 30 64
M  V30 68 1 32 65
M  V30 69 1 32 66
M  V30 70 1 35 67
M  V30 71 1 36 68
M  V30 72 1 37 69
M  V30 END BOND
M  V30 END CTAB
M  END
>  <Dataset>  (371) 
ChEMBL_Kinases

>  <Ligand_Instance>  (371) 
nan

>  <PDB_ID>  (371) 
nan

>  <Standardized_SMILES>  (371) 
CC(C)(C)c1cc(NC(=O)Nc2nc(CCOCc3ccccc3)cs2)n(-c2ccc(CC(=O)O)cc2)n1

>  <Name>  (371) 
nan

>  <Pocket>  (371) 
nan

>  <ATP_Site>  (371) 
nan

>  <Peripheral>  (371) 
nan

>  <Num_H_Atoms_ProtBoundConf>  (371) 
nan

>  <Num_Resolved_Atoms>  (371) 
nan

>  <Num_Not_Resolved_Atoms>  (371) 
nan

$$$$
CHEMBL1738944
     RDKit          3D

  0  0  0  0  0  0  0  0  0  0999 V3000
M  V30 BEGIN CTAB
M  V30 COUNTS 66 69 0 0 0
M  V30 BEGIN ATOM
M  V30 1 C 1.146121 -1.139913 6.128125 0
M  V30 2 C 1.461468 -0.496131 4.830114 0
M  V30 3 C 2.027007 -1.280646 3.837933 0
M  V30 4 C 2.351546 -0.757979 2.598456 0
M  V30 5 C 2.107656 0.575560 2.340845 0
M  V30 6 N 2.363462 1.303171 1.146464 0
M  V30 7 N 3.527260 1.214671 0.528794 0
M  V30 8 C 3.517439 2.000574 -0.578575 0
M  V30 9 C 4.556170 2.267089 -1.619452 0
M  V30 10 C 5.803900 1.485954 -1.309240 0
M  V30 11 C 4.863131 3.750029 -1.744372 0
M  V30 12 C 4.048263 1.748288 -2.968661 0
M  V30 13 C 2.269282 2.604351 -0.637197 0
M  V30 14 C 1.555323 2.142251 0.473466 0
M  V30 15 N 0.212181 2.482870 0.848392 0
M  V30 16 C -0.895085 1.704140 0.366816 0
M  V30 17 O -0.608355 0.742844 -0.376311 0
M  V30 18 N -2.227653 1.990635 0.700398 0
M  V30 19 C -3.271910 1.089746 0.121995 0
M  V30 20 N -3.920640 0.111816 0.245167 0
M  V30 21 C -4.808433 -0.345265 -0.601818 0
M  V30 22 C -5.553954 -1.597137 -0.306252 0
M  V30 23 C -4.809136 -2.821513 -0.850348 0
M  V30 24 O -5.496606 -3.977039 -0.577610 0
M  V30 25 C -4.904032 -5.130649 -1.028518 0
M  V30 26 C -3.563262 -5.324203 -0.431713 0
M  V30 27 C -3.447769 -6.020619 0.748704 0
M  V30 28 C -2.232303 -6.243206 1.367965 0
M  V30 29 C -1.055022 -5.754454 0.797894 0
M  V30 30 C -1.199967 -5.060955 -0.383724 0
M  V30 31 C -2.412369 -4.834150 -1.009361 0
M  V30 32 C -4.985149 0.453993 -1.796377 0
M  V30 33 S -3.733743 1.838777 -1.455803 0
M  V30 34 C 1.539280 1.381085 3.326247 0
M  V30 35 C 1.215643 0.840905 4.575337 0
M  V30 36 H 0.814799 -2.193123 6.029924 0
M  V30 37 H 2.048462 -1.155524 6.798834 0
M  V30 38 H 0.329313 -0.597961 6.661688 0
M  V30 39 H 2.252354 -2.341235 3.957762 0
M  V30 40 H 2.792094 -1.294508 1.774182 0
M  V30 41 H 6.336503 1.297763 -2.264347 0
M  V30 42 H 6.413461 2.135382 -0.627403 0
M  V30 43 H 5.516212 0.531191 -0.829519 0
M  V30 44 H 3.951127 4.278073 -1.374295 0
M  V30 45 H 5.771376 3.965295 -1.148225 0
M  V30 46 H 5.036377 3.957621 -2.823235 0
M  V30 47 H 3.385512 2.482469 -3.470258 0
M  V30 48 H 4.946918 1.513997 -3.581169 0
M  V30 49 H 3.499700 0.791164 -2.742109 0
M  V30 50 H 1.896267 3.295305 -1.378123 0
M  V30 51 H -0.043963 3.296414 1.478512 0
M  V30 52 H -2.455802 2.781027 1.310728 0
M  V30 53 H -6.586836 -1.559389 -0.741720 0
M  V30 54 H -5.715501 -1.776696 0.772214 0
M  V30 55 H -3.759963 -2.795346 -0.566668 0
M  V30 56 H -4.839100 -2.673925 -1.967926 0
M  V30 57 H -4.763345 -5.166533 -2.125496 0
M  V30 58 H -5.560626 -5.974865 -0.681977 0
M  V30 59 H -4.341175 -6.408516 1.209564 0
M  V30 60 H -2.226713 -6.808657 2.308298 0
M  V30 61 H -0.104317 -5.925700 1.277520 0
M  V30 62 H -0.248079 -4.697820 -0.791435 0
M  V30 63 H -2.455744 -4.285944 -1.928803 0
M  V30 64 H -5.841153 -0.009571 -2.586776 0
M  V30 65 H 1.294332 2.421876 3.273172 0
M  V30 66 H 0.774551 1.398551 5.386541 0
M  V30 END ATOM
M  V30 BEGIN BOND
M  V30 1 1 1 2
M  V30 2 2 2 3
M  V30 3 1 3 4
M  V30 4 2 4 5
M  V30 5 1 5 6
M  V30 6 1 6 7
M  V30 7 2 7 8
M  V30 8 1 8 9
M  V30 9 1 9 10
M  V30 10 1 9 11
M  V30 11 1 9 12
M  V30 12 1 8 13
M  V30 13 2 13 14
M  V30 14 1 14 15
M  V30 15 1 15 16
M  V30 16 2 16 17
M  V30 17 1 16 18
M  V30 18 1 18 19
M  V30 19 2 19 20
M  V30 20 1 20 21
M  V30 21 1 21 22
M  V30 22 1 22 23
M  V30 23 1 23 24
M  V30 24 1 24 25
M  V30 25 1 25 26
M  V30 26 2 26 27
M  V30 27 1 27 28
M  V30 28 2 28 29
M  V30 29 1 29 30
M  V30 30 2 30 31
M  V30 31 2 21 32
M  V30 32 1 32 33
M  V30 33 1 5 34
M  V30 34 2 34 35
M  V30 35 1 35 2
M  V30 36 1 14 6
M  V30 37 1 33 19
M  V30 38 1 31 26
M  V30 39 1 1 36
M  V30 40 1 1 37
M  V30 41 1 1 38
M  V30 42 1 3 39
M  V30 43 1 4 40
M  V30 44 1 10 41
M  V30 45 1 10 42
M  V30 46 1 10 43
M  V30 47 1 11 44
M  V30 48 1 11 45
M  V30 49 1 11 46
M  V30 50 1 12 47
M  V30 51 1 12 48
M  V30 52 1 12 49
M  V30 53 1 13 50
M  V30 54 1 15 51
M  V30 55 1 18 52
M  V30 56 1 22 53
M  V30 57 1 22 54
M  V30 58 1 23 55
M  V30 59 1 23 56
M  V30 60 1 25 57
M  V30 61 1 25 58
M  V30 62 1 27 59
M  V30 63 1 28 60
M  V30 64 1 29 61
M  V30 65 1 30 62
M  V30 66 1 31 63
M  V30 67 1 32 64
M  V30 68 1 34 65
M  V30 69 1 35 66
M  V30 END BOND
M  V30 END CTAB
M  END
>  <Dataset>  (372) 
ChEMBL_Kinases

>  <Ligand_Instance>  (372) 
nan

>  <PDB_ID>  (372) 
nan

>  <Standardized_SMILES>  (372) 
Cc1ccc(-n2nc(C(C)(C)C)cc2NC(=O)Nc2nc(CCOCc3ccccc3)cs2)cc1

>  <Name>  (372) 
nan

>  <Pocket>  (372) 
nan

>  <ATP_Site>  (372) 
nan

>  <Peripheral>  (372) 
nan

>  <Num_H_Atoms_ProtBoundConf>  (372) 
nan

>  <Num_Resolved_Atoms>  (372) 
nan

>  <Num_Not_Resolved_Atoms>  (372) 
nan

$$$$
CHEMBL1738943
     RDKit          3D

  0  0  0  0  0  0  0  0  0  0999 V3000
M  V30 BEGIN CTAB
M  V30 COUNTS 65 68 0 0 0
M  V30 BEGIN ATOM
M  V30 1 C 0.507253 -0.569051 5.887969 0
M  V30 2 C 0.914823 -0.254774 4.493487 0
M  V30 3 C 0.560069 -1.104488 3.466561 0
M  V30 4 C 0.920998 -0.844298 2.161010 0
M  V30 5 C 1.652355 0.291097 1.880897 0
M  V30 6 N 2.145242 0.786430 0.642360 0
M  V30 7 N 3.271918 0.626769 -0.004497 0
M  V30 8 C 3.251342 1.327608 -1.171879 0
M  V30 9 C 4.330487 1.411127 -2.191086 0
M  V30 10 C 5.504617 0.580403 -1.742935 0
M  V30 11 C 4.772351 2.817237 -2.462982 0
M  V30 12 C 3.858874 0.819808 -3.523639 0
M  V30 13 C 2.024065 1.951764 -1.227957 0
M  V30 14 C 1.336127 1.605023 -0.082472 0
M  V30 15 N 0.002629 2.114232 0.142407 0
M  V30 16 C -1.050170 1.303975 -0.372181 0
M  V30 17 O -0.952423 0.226901 -0.982583 0
M  V30 18 N -2.359988 1.811104 -0.146946 0
M  V30 19 C -3.591259 1.066495 -0.633634 0
M  V30 20 N -4.157307 0.277792 -0.018535 0
M  V30 21 C -5.186069 -0.480701 -0.168613 0
M  V30 22 C -6.059400 -1.516662 0.407120 0
M  V30 23 C -5.707769 -2.929584 0.106532 0
M  V30 24 O -4.550383 -3.469304 0.531377 0
M  V30 25 C -3.338687 -2.995888 0.195802 0
M  V30 26 C -2.235432 -3.888526 0.754890 0
M  V30 27 C -1.820114 -4.920400 -0.062087 0
M  V30 28 C -0.818132 -5.797044 0.348672 0
M  V30 29 N -0.268884 -5.611863 1.556954 0
M  V30 30 C -0.657223 -4.618864 2.362442 0
M  V30 31 C -1.637880 -3.743457 1.986150 0
M  V30 32 C -5.724568 -0.233123 -1.458523 0
M  V30 33 S -4.554365 1.089808 -2.152122 0
M  V30 34 C 2.015247 1.156351 2.916055 0
M  V30 35 C 1.646894 0.887584 4.235878 0
M  V30 36 H 0.247812 -1.633584 5.982621 0
M  V30 37 H 1.333035 -0.340155 6.601264 0
M  V30 38 H -0.369835 0.041382 6.229734 0
M  V30 39 H -0.003507 -1.994731 3.622865 0
M  V30 40 H 0.709719 -1.421192 1.273980 0
M  V30 41 H 6.458545 1.045858 -2.092983 0
M  V30 42 H 5.477578 -0.459395 -2.129660 0
M  V30 43 H 5.491045 0.491937 -0.638576 0
M  V30 44 H 3.970281 3.559932 -2.336243 0
M  V30 45 H 5.652141 3.033145 -1.824870 0
M  V30 46 H 5.150074 2.872667 -3.506775 0
M  V30 47 H 4.757709 0.457711 -4.043777 0
M  V30 48 H 3.373626 1.612188 -4.144348 0
M  V30 49 H 3.171620 -0.041397 -3.363799 0
M  V30 50 H 1.733445 2.581759 -2.055878 0
M  V30 51 H -0.168173 3.018261 0.650336 0
M  V30 52 H -2.607206 2.679108 0.336791 0
M  V30 53 H -7.166776 -1.319601 0.259196 0
M  V30 54 H -6.010199 -1.438180 1.561003 0
M  V30 55 H -5.884542 -3.149920 -1.007577 0
M  V30 56 H -6.532438 -3.566808 0.599741 0
M  V30 57 H -3.152356 -2.902035 -0.877738 0
M  V30 58 H -3.190068 -2.027552 0.742243 0
M  V30 59 H -2.269093 -5.067080 -1.042887 0
M  V30 60 H -0.525690 -6.598056 -0.336533 0
M  V30 61 H -0.231477 -4.444824 3.344007 0
M  V30 62 H -2.039801 -2.898978 2.549132 0
M  V30 63 H -6.584350 -0.466515 -2.335808 0
M  V30 64 H 2.584126 2.076431 2.841748 0
M  V30 65 H 1.898451 1.518339 5.073693 0
M  V30 END ATOM
M  V30 BEGIN BOND
M  V30 1 1 1 2
M  V30 2 2 2 3
M  V30 3 1 3 4
M  V30 4 2 4 5
M  V30 5 1 5 6
M  V30 6 1 6 7
M  V30 7 2 7 8
M  V30 8 1 8 9
M  V30 9 1 9 10
M  V30 10 1 9 11
M  V30 11 1 9 12
M  V30 12 1 8 13
M  V30 13 2 13 14
M  V30 14 1 14 15
M  V30 15 1 15 16
M  V30 16 2 16 17
M  V30 17 1 16 18
M  V30 18 1 18 19
M  V30 19 2 19 20
M  V30 20 1 20 21
M  V30 21 1 21 22
M  V30 22 1 22 23
M  V30 23 1 23 24
M  V30 24 1 24 25
M  V30 25 1 25 26
M  V30 26 2 26 27
M  V30 27 1 27 28
M  V30 28 2 28 29
M  V30 29 1 29 30
M  V30 30 2 30 31
M  V30 31 2 21 32
M  V30 32 1 32 33
M  V30 33 1 5 34
M  V30 34 2 34 35
M  V30 35 1 35 2
M  V30 36 1 14 6
M  V30 37 1 33 19
M  V30 38 1 31 26
M  V30 39 1 1 36
M  V30 40 1 1 37
M  V30 41 1 1 38
M  V30 42 1 3 39
M  V30 43 1 4 40
M  V30 44 1 10 41
M  V30 45 1 10 42
M  V30 46 1 10 43
M  V30 47 1 11 44
M  V30 48 1 11 45
M  V30 49 1 11 46
M  V30 50 1 12 47
M  V30 51 1 12 48
M  V30 52 1 12 49
M  V30 53 1 13 50
M  V30 54 1 15 51
M  V30 55 1 18 52
M  V30 56 1 22 53
M  V30 57 1 22 54
M  V30 58 1 23 55
M  V30 59 1 23 56
M  V30 60 1 25 57
M  V30 61 1 25 58
M  V30 62 1 27 59
M  V30 63 1 28 60
M  V30 64 1 30 61
M  V30 65 1 31 62
M  V30 66 1 32 63
M  V30 67 1 34 64
M  V30 68 1 35 65
M  V30 END BOND
M  V30 END CTAB
M  END
>  <Dataset>  (373) 
ChEMBL_Kinases

>  <Ligand_Instance>  (373) 
nan

>  <PDB_ID>  (373) 
nan

>  <Standardized_SMILES>  (373) 
Cc1ccc(-n2nc(C(C)(C)C)cc2NC(=O)Nc2nc(CCOCc3ccncc3)cs2)cc1

>  <Name>  (373) 
nan

>  <Pocket>  (373) 
nan

>  <ATP_Site>  (373) 
nan

>  <Peripheral>  (373) 
nan

>  <Num_H_Atoms_ProtBoundConf>  (373) 
nan

>  <Num_Resolved_Atoms>  (373) 
nan

>  <Num_Not_Resolved_Atoms>  (373) 
nan

$$$$
CHEMBL1738942
     RDKit          3D

  0  0  0  0  0  0  0  0  0  0999 V3000
M  V30 BEGIN CTAB
M  V30 COUNTS 49 51 0 0 0
M  V30 BEGIN ATOM
M  V30 1 C 0.490638 -4.665942 3.452118 0
M  V30 2 C 1.157338 -3.345340 3.786258 0
M  V30 3 C 0.758319 -3.022563 5.228980 0
M  V30 4 C 2.660740 -3.405612 3.708100 0
M  V30 5 C 0.684743 -2.256968 2.888902 0
M  V30 6 C 1.147901 -0.942448 2.991502 0
M  V30 7 C 0.472664 -0.263656 1.995278 0
M  V30 8 N 0.595229 1.138690 1.678440 0
M  V30 9 C 1.621267 1.397228 0.703720 0
M  V30 10 O 2.334180 0.496548 0.184325 0
M  V30 11 N 1.857884 2.723469 0.293847 0
M  V30 12 C 2.866177 3.084202 -0.679646 0
M  V30 13 N 3.161782 4.252096 -1.120293 0
M  V30 14 C 4.137760 4.335267 -2.023724 0
M  V30 15 C 4.826120 3.105886 -2.472660 0
M  V30 16 S 3.858629 1.869471 -1.408422 0
M  V30 17 N -0.345019 -1.107121 1.332209 0
M  V30 18 C -1.223106 -0.844601 0.239012 0
M  V30 19 C -2.418400 -0.198753 0.563386 0
M  V30 20 C -3.326353 0.093268 -0.437843 0
M  V30 21 C -3.068182 -0.246552 -1.766529 0
M  V30 22 C -4.078754 0.085668 -2.835670 0
M  V30 23 C -5.032549 -1.047250 -2.993189 0
M  V30 24 O -4.664151 -1.936480 -2.151273 0
M  V30 25 O -5.990825 -2.021169 -3.248182 0
M  V30 26 C -1.877972 -0.885142 -2.061172 0
M  V30 27 C -0.952891 -1.188520 -1.077808 0
M  V30 28 N -0.213362 -2.324203 1.880322 0
M  V30 29 H -0.355442 -4.890962 4.138338 0
M  V30 30 H 1.206901 -5.514506 3.555930 0
M  V30 31 H 0.067800 -4.697622 2.438432 0
M  V30 32 H -0.326357 -2.720127 5.210838 0
M  V30 33 H 1.321688 -2.149619 5.579667 0
M  V30 34 H 0.901947 -3.915406 5.864851 0
M  V30 35 H 2.958704 -3.954654 2.782516 0
M  V30 36 H 3.012768 -2.340686 3.683323 0
M  V30 37 H 3.088700 -3.877417 4.625155 0
M  V30 38 H 1.867532 -0.503464 3.674002 0
M  V30 39 H 0.010594 1.904032 2.100463 0
M  V30 40 H 1.275726 3.474501 0.715719 0
M  V30 41 H 4.266144 5.398055 -2.296287 0
M  V30 42 H 5.637416 3.479802 -3.268194 0
M  V30 43 H -2.646947 0.077460 1.584977 0
M  V30 44 H -4.232459 0.590619 -0.143244 0
M  V30 45 H -4.673467 0.926425 -2.438600 0
M  V30 46 H -3.577097 0.311031 -3.789107 0
M  V30 47 H -6.963092 -1.744646 -3.040731 0
M  V30 48 H -1.673039 -1.151664 -3.095616 0
M  V30 49 H -0.014928 -1.688077 -1.286824 0
M  V30 END ATOM
M  V30 BEGIN BOND
M  V30 1 1 1 2
M  V30 2 1 2 3
M  V30 3 1 2 4
M  V30 4 1 2 5
M  V30 5 1 5 6
M  V30 6 2 6 7
M  V30 7 1 7 8
M  V30 8 1 8 9
M  V30 9 2 9 10
M  V30 10 1 9 11
M  V30 11 1 11 12
M  V30 12 2 12 13
M  V30 13 1 13 14
M  V30 14 2 14 15
M  V30 15 1 15 16
M  V30 16 1 7 17
M  V30 17 1 17 18
M  V30 18 2 18 19
M  V30 19 1 19 20
M  V30 20 2 20 21
M  V30 21 1 21 22
M  V30 22 1 22 23
M  V30 23 2 23 24
M  V30 24 1 23 25
M  V30 25 1 21 26
M  V30 26 2 26 27
M  V30 27 1 17 28
M  V30 28 2 28 5
M  V30 29 1 16 12
M  V30 30 1 27 18
M  V30 31 1 1 29
M  V30 32 1 1 30
M  V30 33 1 1 31
M  V30 34 1 3 32
M  V30 35 1 3 33
M  V30 36 1 3 34
M  V30 37 1 4 35
M  V30 38 1 4 36
M  V30 39 1 4 37
M  V30 40 1 6 38
M  V30 41 1 8 39
M  V30 42 1 11 40
M  V30 43 1 14 41
M  V30 44 1 15 42
M  V30 45 1 19 43
M  V30 46 1 20 44
M  V30 47 1 22 45
M  V30 48 1 22 46
M  V30 49 1 25 47
M  V30 50 1 26 48
M  V30 51 1 27 49
M  V30 END BOND
M  V30 END CTAB
M  END
>  <Dataset>  (374) 
ChEMBL_Kinases

>  <Ligand_Instance>  (374) 
nan

>  <PDB_ID>  (374) 
nan

>  <Standardized_SMILES>  (374) 
CC(C)(C)c1cc(NC(=O)Nc2nccs2)n(-c2ccc(CC(=O)O)cc2)n1

>  <Name>  (374) 
nan

>  <Pocket>  (374) 
nan

>  <ATP_Site>  (374) 
nan

>  <Peripheral>  (374) 
nan

>  <Num_H_Atoms_ProtBoundConf>  (374) 
nan

>  <Num_Resolved_Atoms>  (374) 
nan

>  <Num_Not_Resolved_Atoms>  (374) 
nan

$$$$
CHEMBL1738916
     RDKit          3D

  0  0  0  0  0  0  0  0  0  0999 V3000
M  V30 BEGIN CTAB
M  V30 COUNTS 18 19 0 0 0
M  V30 BEGIN ATOM
M  V30 1 O 0.327328 -1.963009 4.312639 0
M  V30 2 C 1.106144 -1.037591 3.905784 0
M  V30 3 O 1.991904 -0.554027 4.858404 0
M  V30 4 C 1.074634 -0.516570 2.532920 0
M  V30 5 C 1.820253 0.455683 1.928767 0
M  V30 6 C 1.411590 0.582977 0.617593 0
M  V30 7 C 1.766141 1.357886 -0.447287 0
M  V30 8 C 1.124767 1.222182 -1.670524 0
M  V30 9 Br 1.598467 2.291060 -3.176729 0
M  V30 10 C 0.122498 0.271534 -1.744722 0
M  V30 11 C -0.267361 -0.532879 -0.692352 0
M  V30 12 C 0.412256 -0.345024 0.494218 0
M  V30 13 O 0.256120 -0.957434 1.637722 0
M  V30 14 H 1.716942 -0.470781 5.827655 0
M  V30 15 H 2.599816 1.022146 2.416723 0
M  V30 16 H 2.551828 2.075013 -0.319219 0
M  V30 17 H -0.377901 0.173175 -2.717732 0
M  V30 18 H -1.047451 -1.250949 -0.804404 0
M  V30 END ATOM
M  V30 BEGIN BOND
M  V30 1 2 1 2
M  V30 2 1 2 3
M  V30 3 1 2 4
M  V30 4 2 4 5
M  V30 5 1 5 6
M  V30 6 2 6 7
M  V30 7 1 7 8
M  V30 8 1 8 9
M  V30 9 2 8 10
M  V30 10 1 10 11
M  V30 11 2 11 12
M  V30 12 1 12 13
M  V30 13 1 13 4
M  V30 14 1 12 6
M  V30 15 1 3 14
M  V30 16 1 5 15
M  V30 17 1 7 16
M  V30 18 1 10 17
M  V30 19 1 11 18
M  V30 END BOND
M  V30 END CTAB
M  END
>  <Dataset>  (375) 
ChEMBL_Kinases

>  <Ligand_Instance>  (375) 
nan

>  <PDB_ID>  (375) 
nan

>  <Standardized_SMILES>  (375) 
O=C(O)c1cc2cc(Br)ccc2o1

>  <Name>  (375) 
nan

>  <Pocket>  (375) 
nan

>  <ATP_Site>  (375) 
nan

>  <Peripheral>  (375) 
nan

>  <Num_H_Atoms_ProtBoundConf>  (375) 
nan

>  <Num_Resolved_Atoms>  (375) 
nan

>  <Num_Not_Resolved_Atoms>  (375) 
nan

$$$$
CHEMBL1683315
     RDKit          3D

  0  0  0  0  0  0  0  0  0  0999 V3000
M  V30 BEGIN CTAB
M  V30 COUNTS 69 73 0 0 0
M  V30 BEGIN ATOM
M  V30 1 C 6.404761 -0.971622 3.401326 0
M  V30 2 C 6.884949 -0.433513 2.062010 0
M  V30 3 C 7.048389 -1.595408 1.122839 0
M  V30 4 N 5.938200 0.527106 1.581812 0
M  V30 5 C 6.193482 1.890231 1.262878 0
M  V30 6 O 7.363847 2.338429 1.404334 0
M  V30 7 C 5.161603 2.801229 0.777134 0
M  V30 8 C 5.556382 4.097981 0.506191 0
M  V30 9 C 4.629434 5.035526 0.036891 0
M  V30 10 C 3.306123 4.660402 -0.157424 0
M  V30 11 C 2.965015 3.353547 0.128424 0
M  V30 12 C 1.575417 2.947966 -0.072221 0
M  V30 13 C 1.023498 1.701876 0.149144 0
M  V30 14 C -0.322374 1.739406 -0.164553 0
M  V30 15 C -1.212741 0.587975 -0.045601 0
M  V30 16 C -0.766977 -0.641395 0.395099 0
M  V30 17 C -1.592727 -1.740483 0.514442 0
M  V30 18 C -2.940634 -1.588859 0.170011 0
M  V30 19 N -3.697463 -2.782257 0.331541 0
M  V30 20 C -4.447898 -3.524122 -0.692493 0
M  V30 21 C -3.738440 -4.822662 -0.886365 0
M  V30 22 N -2.743407 -5.085070 0.130515 0
M  V30 23 C -2.365784 -6.489473 0.080576 0
M  V30 24 C -3.255155 -4.860160 1.467843 0
M  V30 25 C -3.832754 -3.469778 1.624881 0
M  V30 26 C -3.399346 -0.366899 -0.271564 0
M  V30 27 C -4.817385 -0.295632 -0.609357 0
M  V30 28 C -5.003553 0.373835 -1.823880 0
M  V30 29 C -6.304140 0.538854 -2.309526 0
M  V30 30 C -7.366707 0.042231 -1.586844 0
M  V30 31 C -7.177996 -0.618142 -0.388035 0
M  V30 32 C -5.897283 -0.783974 0.096160 0
M  V30 33 C -2.556934 0.711268 -0.381360 0
M  V30 34 N -0.576317 2.996500 -0.570573 0
M  V30 35 N 0.550021 3.702414 -0.512629 0
M  V30 36 C 3.862813 2.416668 0.590985 0
M  V30 37 H 5.659507 -1.771620 3.272661 0
M  V30 38 H 5.962982 -0.190435 4.043884 0
M  V30 39 H 7.285541 -1.426808 3.899028 0
M  V30 40 H 7.874158 0.053765 2.153629 0
M  V30 41 H 8.111023 -1.752941 0.827476 0
M  V30 42 H 6.714956 -2.537023 1.589643 0
M  V30 43 H 6.451670 -1.478157 0.192598 0
M  V30 44 H 4.975856 0.138886 1.470958 0
M  V30 45 H 6.586924 4.464291 0.636937 0
M  V30 46 H 4.973799 6.052743 -0.167874 0
M  V30 47 H 2.586332 5.387260 -0.521529 0
M  V30 48 H 1.591023 0.857082 0.511354 0
M  V30 49 H 0.292894 -0.763207 0.666483 0
M  V30 50 H -1.155160 -2.670697 0.870384 0
M  V30 51 H -4.446649 -2.923939 -1.604196 0
M  V30 52 H -5.509420 -3.665912 -0.351811 0
M  V30 53 H -3.185762 -4.776835 -1.851217 0
M  V30 54 H -4.457984 -5.655624 -1.006795 0
M  V30 55 H -2.497965 -6.838502 -0.951191 0
M  V30 56 H -2.974882 -7.084826 0.799174 0
M  V30 57 H -1.290014 -6.594181 0.363132 0
M  V30 58 H -2.382329 -4.924909 2.157962 0
M  V30 59 H -3.959176 -5.665166 1.780260 0
M  V30 60 H -4.919261 -3.590378 1.816336 0
M  V30 61 H -3.401054 -2.895310 2.446499 0
M  V30 62 H -4.236265 0.794746 -2.456468 0
M  V30 63 H -6.570005 1.035186 -3.228856 0
M  V30 64 H -8.419925 0.105527 -1.855479 0
M  V30 65 H -7.959029 -1.037361 0.239638 0
M  V30 66 H -5.627916 -1.279110 1.014977 0
M  V30 67 H -2.942765 1.666607 -0.732638 0
M  V30 68 H -1.515149 3.341821 -0.877822 0
M  V30 69 H 3.544962 1.425252 0.794573 0
M  V30 END ATOM
M  V30 BEGIN BOND
M  V30 1 1 1 2
M  V30 2 1 2 3
M  V30 3 1 2 4
M  V30 4 1 4 5
M  V30 5 2 5 6
M  V30 6 1 5 7
M  V30 7 2 7 8
M  V30 8 1 8 9
M  V30 9 2 9 10
M  V30 10 1 10 11
M  V30 11 1 11 12
M  V30 12 1 12 13
M  V30 13 2 13 14
M  V30 14 1 14 15
M  V30 15 2 15 16
M  V30 16 1 16 17
M  V30 17 2 17 18
M  V30 18 1 18 19
M  V30 19 1 19 20
M  V30 20 1 20 21
M  V30 21 1 21 22
M  V30 22 1 22 23
M  V30 23 1 22 24
M  V30 24 1 24 25
M  V30 25 1 18 26
M  V30 26 1 26 27
M  V30 27 2 27 28
M  V30 28 1 28 29
M  V30 29 2 29 30
M  V30 30 1 30 31
M  V30 31 2 31 32
M  V30 32 2 26 33
M  V30 33 1 14 34
M  V30 34 1 34 35
M  V30 35 2 11 36
M  V30 36 1 36 7
M  V30 37 2 35 12
M  V30 38 1 33 15
M  V30 39 1 25 19
M  V30 40 1 32 27
M  V30 41 1 1 37
M  V30 42 1 1 38
M  V30 43 1 1 39
M  V30 44 1 2 40
M  V30 45 1 3 41
M  V30 46 1 3 42
M  V30 47 1 3 43
M  V30 48 1 4 44
M  V30 49 1 8 45
M  V30 50 1 9 46
M  V30 51 1 10 47
M  V30 52 1 13 48
M  V30 53 1 16 49
M  V30 54 1 17 50
M  V30 55 1 20 51
M  V30 56 1 20 52
M  V30 57 1 21 53
M  V30 58 1 21 54
M  V30 59 1 23 55
M  V30 60 1 23 56
M  V30 61 1 23 57
M  V30 62 1 24 58
M  V30 63 1 24 59
M  V30 64 1 25 60
M  V30 65 1 25 61
M  V30 66 1 28 62
M  V30 67 1 29 63
M  V30 68 1 30 64
M  V30 69 1 31 65
M  V30 70 1 32 66
M  V30 71 1 33 67
M  V30 72 1 34 68
M  V30 73 1 36 69
M  V30 END BOND
M  V30 END CTAB
M  END
>  <Dataset>  (376) 
ChEMBL_Kinases

>  <Ligand_Instance>  (376) 
nan

>  <PDB_ID>  (376) 
nan

>  <Standardized_SMILES>  (376) 
CC(C)NC(=O)c1cccc(-c2cc(-c3ccc(N4CCN(C)CC4)c(-c4ccccc4)c3)[nH]n2)c1

>  <Name>  (376) 
nan

>  <Pocket>  (376) 
nan

>  <ATP_Site>  (376) 
nan

>  <Peripheral>  (376) 
nan

>  <Num_H_Atoms_ProtBoundConf>  (376) 
nan

>  <Num_Resolved_Atoms>  (376) 
nan

>  <Num_Not_Resolved_Atoms>  (376) 
nan

$$$$
CHEMBL1708376
     RDKit          3D

  0  0  0  0  0  0  0  0  0  0999 V3000
M  V30 BEGIN CTAB
M  V30 COUNTS 33 35 0 0 0
M  V30 BEGIN ATOM
M  V30 1 C 0.070397 -0.576146 4.460647 0
M  V30 2 C 0.420151 -0.620985 3.019122 0
M  V30 3 N 1.585317 -1.058556 2.496940 0
M  V30 4 N 1.518458 -0.941556 1.162151 0
M  V30 5 C 2.603291 -1.323589 0.299140 0
M  V30 6 N 3.004642 -2.503962 -0.241692 0
M  V30 7 C 4.087403 -2.371227 -0.993443 0
M  V30 8 C 4.891957 -1.196026 -1.322479 0
M  V30 9 S 3.824454 0.023883 -0.293302 0
M  V30 10 C 0.330832 -0.434182 0.782944 0
M  V30 11 C -0.384565 -0.222867 1.955269 0
M  V30 12 C -1.744978 0.333879 1.883948 0
M  V30 13 O -2.491739 0.256590 2.892440 0
M  V30 14 C -2.098646 0.951722 0.570951 0
M  V30 15 C -1.721749 -0.097017 -0.484041 0
M  V30 16 C -2.294128 -1.430955 -0.108169 0
M  V30 17 C -2.314889 0.330801 -1.795609 0
M  V30 18 C -0.194095 -0.131114 -0.555187 0
M  V30 19 Br 0.318689 -1.427309 -1.884378 0
M  V30 20 H -1.018907 -0.577851 4.629313 0
M  V30 21 H 0.518252 0.346966 4.882166 0
M  V30 22 H 0.495703 -1.492511 4.917115 0
M  V30 23 H 4.281685 -3.398553 -1.352475 0
M  V30 24 H 5.650489 -1.289141 -1.888798 0
M  V30 25 H -3.161973 1.207619 0.499300 0
M  V30 26 H -1.432664 1.829688 0.354407 0
M  V30 27 H -2.900047 -1.864500 -0.956884 0
M  V30 28 H -3.039446 -1.274176 0.698248 0
M  V30 29 H -1.528891 -2.182015 0.169946 0
M  V30 30 H -3.060684 1.154937 -1.640340 0
M  V30 31 H -2.844010 -0.513627 -2.278614 0
M  V30 32 H -1.523056 0.630152 -2.512966 0
M  V30 33 H 0.093728 0.879558 -0.930565 0
M  V30 END ATOM
M  V30 BEGIN BOND
M  V30 1 1 1 2
M  V30 2 2 2 3
M  V30 3 1 3 4
M  V30 4 1 4 5
M  V30 5 2 5 6
M  V30 6 1 6 7
M  V30 7 2 7 8
M  V30 8 1 8 9
M  V30 9 1 4 10
M  V30 10 2 10 11
M  V30 11 1 11 12
M  V30 12 2 12 13
M  V30 13 1 12 14
M  V30 14 1 14 15
M  V30 15 1 15 16
M  V30 16 1 15 17
M  V30 17 1 15 18
M  V30 18 1 18 19
M  V30 19 1 11 2
M  V30 20 1 9 5
M  V30 21 1 18 10
M  V30 22 1 1 20
M  V30 23 1 1 21
M  V30 24 1 1 22
M  V30 25 1 7 23
M  V30 26 1 8 24
M  V30 27 1 14 25
M  V30 28 1 14 26
M  V30 29 1 16 27
M  V30 30 1 16 28
M  V30 31 1 16 29
M  V30 32 1 17 30
M  V30 33 1 17 31
M  V30 34 1 17 32
M  V30 35 1 18 33
M  V30 END BOND
M  V30 END CTAB
M  END
>  <Dataset>  (377) 
ChEMBL_Kinases

>  <Ligand_Instance>  (377) 
nan

>  <PDB_ID>  (377) 
nan

>  <Standardized_SMILES>  (377) 
Cc1nn(-c2nccs2)c2c1C(=O)CC(C)(C)C2Br

>  <Name>  (377) 
nan

>  <Pocket>  (377) 
nan

>  <ATP_Site>  (377) 
nan

>  <Peripheral>  (377) 
nan

>  <Num_H_Atoms_ProtBoundConf>  (377) 
nan

>  <Num_Resolved_Atoms>  (377) 
nan

>  <Num_Not_Resolved_Atoms>  (377) 
nan

$$$$
CHEMBL1709
     RDKit          3D

  0  0  0  0  0  0  0  0  0  0999 V3000
M  V30 BEGIN CTAB
M  V30 COUNTS 37 39 0 0 0
M  V30 BEGIN ATOM
M  V30 1 C -0.686937 -2.497085 4.550450 0
M  V30 2 N -0.137526 -2.923006 3.292542 0
M  V30 3 C -0.232185 -1.873780 2.308359 0 CFG=1
M  V30 4 C 0.530829 -0.648043 2.771049 0
M  V30 5 C 0.352519 0.495467 1.822469 0
M  V30 6 C -0.196577 0.044800 0.507899 0 CFG=1
M  V30 7 C -0.104748 1.023396 -0.564435 0
M  V30 8 C -1.118934 1.124267 -1.518666 0
M  V30 9 C -1.100904 2.033244 -2.570164 0
M  V30 10 C -0.019580 2.887844 -2.681497 0
M  V30 11 Cl -0.034024 4.018016 -4.019259 0
M  V30 12 C 1.007713 2.825909 -1.762140 0
M  V30 13 Cl 2.363329 3.918792 -1.926911 0
M  V30 14 C 0.928500 1.897799 -0.738624 0
M  V30 15 C 0.426708 -1.267051 0.119828 0
M  V30 16 C 0.996126 -1.443730 -1.146198 0
M  V30 17 C 1.564070 -2.676982 -1.466047 0
M  V30 18 C 1.545215 -3.689309 -0.515889 0
M  V30 19 C 0.982814 -3.498573 0.720053 0
M  V30 20 C 0.424634 -2.295052 1.042017 0
M  V30 21 H -0.030208 -1.856605 5.144283 0
M  V30 22 H -1.011551 -3.401815 5.136155 0
M  V30 23 H -1.652224 -1.966693 4.309947 0
M  V30 24 H 0.785677 -3.361926 3.356458 0
M  V30 25 H -1.276641 -1.579214 2.188798 0
M  V30 26 H 1.611163 -0.977764 2.755523 0
M  V30 27 H 0.301573 -0.351807 3.807451 0
M  V30 28 H -0.385248 1.208253 2.294975 0
M  V30 29 H 1.305700 1.037677 1.781720 0
M  V30 30 H -1.288267 -0.161100 0.683971 0
M  V30 31 H -1.968973 0.454699 -1.433768 0
M  V30 32 H -1.937882 2.039312 -3.267113 0
M  V30 33 H 1.748216 1.879167 -0.041137 0
M  V30 34 H 0.993825 -0.619404 -1.875784 0
M  V30 35 H 2.014618 -2.855245 -2.433479 0
M  V30 36 H 1.970246 -4.667373 -0.706085 0
M  V30 37 H 0.926580 -4.233508 1.516217 0
M  V30 END ATOM
M  V30 BEGIN BOND
M  V30 1 1 1 2
M  V30 2 1 2 3
M  V30 3 1 3 4
M  V30 4 1 4 5
M  V30 5 1 5 6
M  V30 6 1 6 7
M  V30 7 2 7 8
M  V30 8 1 8 9
M  V30 9 2 9 10
M  V30 10 1 10 11
M  V30 11 1 10 12
M  V30 12 1 12 13
M  V30 13 2 12 14
M  V30 14 1 6 15
M  V30 15 2 15 16
M  V30 16 1 16 17
M  V30 17 2 17 18
M  V30 18 1 18 19
M  V30 19 2 19 20
M  V30 20 1 20 3
M  V30 21 1 14 7
M  V30 22 1 20 15
M  V30 23 1 1 21
M  V30 24 1 1 22
M  V30 25 1 1 23
M  V30 26 1 2 24
M  V30 27 1 3 25 CFG=3
M  V30 28 1 4 26
M  V30 29 1 4 27
M  V30 30 1 5 28
M  V30 31 1 5 29
M  V30 32 1 6 30 CFG=1
M  V30 33 1 8 31
M  V30 34 1 9 32
M  V30 35 1 14 33
M  V30 36 1 16 34
M  V30 37 1 17 35
M  V30 38 1 18 36
M  V30 39 1 19 37
M  V30 END BOND
M  V30 END CTAB
M  END
>  <Dataset>  (378) 
ChEMBL_Kinases

>  <Ligand_Instance>  (378) 
nan

>  <PDB_ID>  (378) 
nan

>  <Standardized_SMILES>  (378) 
CN[C@H]1CC[C@@H](c2ccc(Cl)c(Cl)c2)c2ccccc21

>  <Name>  (378) 
SERTRALINE HYDROCHLORIDE

>  <Pocket>  (378) 
nan

>  <ATP_Site>  (378) 
nan

>  <Peripheral>  (378) 
nan

>  <Num_H_Atoms_ProtBoundConf>  (378) 
nan

>  <Num_Resolved_Atoms>  (378) 
nan

>  <Num_Not_Resolved_Atoms>  (378) 
nan

$$$$
CHEMBL1709775
     RDKit          3D

  0  0  0  0  0  0  0  0  0  0999 V3000
M  V30 BEGIN CTAB
M  V30 COUNTS 39 42 0 0 0
M  V30 BEGIN ATOM
M  V30 1 C 3.453522 -4.388143 4.026500 0
M  V30 2 C 2.496208 -5.068780 3.290997 0
M  V30 3 C 1.267686 -4.471544 3.128661 0
M  V30 4 C 0.953127 -3.240437 3.660047 0
M  V30 5 N -0.339851 -2.623259 3.483138 0
M  V30 6 C -0.513949 -1.763990 2.541060 0
M  V30 7 N 0.238320 -1.258825 1.621528 0
M  V30 8 C -0.345565 -0.364121 0.812850 0
M  V30 9 C 0.626879 0.132835 -0.191187 0
M  V30 10 C 1.259866 -0.655087 -1.124429 0
M  V30 11 C 2.153412 -0.057401 -2.011506 0
M  V30 12 C 2.424984 1.294104 -1.986708 0
M  V30 13 C 1.779834 2.066838 -1.043169 0
M  V30 14 C 0.887001 1.479296 -0.154370 0
M  V30 15 N -1.645792 0.033780 0.898445 0
M  V30 16 C -2.205406 0.963014 0.038535 0
M  V30 17 C -2.515321 2.250101 0.472189 0
M  V30 18 C -3.075498 3.155838 -0.417408 0
M  V30 19 C -3.333887 2.811229 -1.725762 0
M  V30 20 C -3.027042 1.523142 -2.171312 0
M  V30 21 C -2.462336 0.609510 -1.275198 0
M  V30 22 S -2.210799 -0.956199 2.311430 0
M  V30 23 C 1.956470 -2.596931 4.393791 0
M  V30 24 C 3.204777 -3.152736 4.585871 0
M  V30 25 H 4.420634 -4.869729 4.148210 0
M  V30 26 H 2.634948 -6.038429 2.829898 0
M  V30 27 H 0.471973 -4.955555 2.560749 0
M  V30 28 H 1.023587 -1.703494 -1.113928 0
M  V30 29 H 2.643733 -0.692301 -2.740591 0
M  V30 30 H 3.138960 1.701755 -2.713117 0
M  V30 31 H 2.023965 3.123332 -1.060756 0
M  V30 32 H 0.445941 2.191017 0.536850 0
M  V30 33 H -2.335175 2.567432 1.475140 0
M  V30 34 H -3.314686 4.153944 -0.077125 0
M  V30 35 H -3.773627 3.550877 -2.390356 0
M  V30 36 H -3.232771 1.259164 -3.200781 0
M  V30 37 H -2.227722 -0.385159 -1.627382 0
M  V30 38 H 1.682678 -1.631062 4.800148 0
M  V30 39 H 3.957887 -2.634828 5.155160 0
M  V30 END ATOM
M  V30 BEGIN BOND
M  V30 1 2 1 2
M  V30 2 1 2 3
M  V30 3 2 3 4
M  V30 4 1 4 5
M  V30 5 2 5 6
M  V30 6 1 6 7
M  V30 7 2 7 8
M  V30 8 1 8 9
M  V30 9 2 9 10
M  V30 10 1 10 11
M  V30 11 2 11 12
M  V30 12 1 12 13
M  V30 13 2 13 14
M  V30 14 1 8 15
M  V30 15 1 15 16
M  V30 16 2 16 17
M  V30 17 1 17 18
M  V30 18 2 18 19
M  V30 19 1 19 20
M  V30 20 2 20 21
M  V30 21 1 15 22
M  V30 22 1 4 23
M  V30 23 2 23 24
M  V30 24 1 24 1
M  V30 25 1 22 6
M  V30 26 1 14 9
M  V30 27 1 21 16
M  V30 28 1 1 25
M  V30 29 1 2 26
M  V30 30 1 3 27
M  V30 31 1 10 28
M  V30 32 1 11 29
M  V30 33 1 12 30
M  V30 34 1 13 31
M  V30 35 1 14 32
M  V30 36 1 17 33
M  V30 37 1 18 34
M  V30 38 1 19 35
M  V30 39 1 20 36
M  V30 40 1 21 37
M  V30 41 1 23 38
M  V30 42 1 24 39
M  V30 END BOND
M  V30 END CTAB
M  END
>  <Dataset>  (379) 
ChEMBL_Kinases

>  <Ligand_Instance>  (379) 
nan

>  <PDB_ID>  (379) 
nan

>  <Standardized_SMILES>  (379) 
c1ccc(/N=c2\nc(-c3ccccc3)n(-c3ccccc3)s2)cc1

>  <Name>  (379) 
nan

>  <Pocket>  (379) 
nan

>  <ATP_Site>  (379) 
nan

>  <Peripheral>  (379) 
nan

>  <Num_H_Atoms_ProtBoundConf>  (379) 
nan

>  <Num_Resolved_Atoms>  (379) 
nan

>  <Num_Not_Resolved_Atoms>  (379) 
nan

$$$$
CHEMBL1711
     RDKit          3D

  0  0  0  0  0  0  0  0  0  0999 V3000
M  V30 BEGIN CTAB
M  V30 COUNTS 32 32 0 0 0
M  V30 BEGIN ATOM
M  V30 1 C 0.073255 -1.494355 3.175570 0
M  V30 2 C -0.698895 -2.207704 2.102191 0
M  V30 3 C -1.705672 -1.319382 1.454029 0
M  V30 4 N 0.003711 -3.016947 1.228694 0
M  V30 5 C 1.131304 -2.718488 0.504599 0
M  V30 6 C 1.125390 -1.780669 -0.667360 0
M  V30 7 O 2.489169 -1.764866 -1.138088 0
M  V30 8 C 0.790101 -0.379294 -0.339753 0
M  V30 9 C 1.498746 0.314114 0.619182 0
M  V30 10 C 1.186873 1.659387 0.869945 0
M  V30 11 C 0.171929 2.185961 0.114923 0
M  V30 12 O -0.117140 3.523091 0.383808 0
M  V30 13 C -0.569693 1.544225 -0.855538 0
M  V30 14 O -1.577479 2.189780 -1.556726 0
M  V30 15 C -0.239554 0.233293 -1.073804 0
M  V30 16 H -0.436675 -1.624623 4.152853 0
M  V30 17 H 1.111795 -1.846199 3.315217 0
M  V30 18 H -0.001215 -0.399472 2.969216 0
M  V30 19 H -1.368530 -2.959487 2.708126 0
M  V30 20 H -1.856747 -1.620810 0.399183 0
M  V30 21 H -1.399503 -0.242078 1.514362 0
M  V30 22 H -2.702737 -1.369746 1.953860 0
M  V30 23 H -0.481196 -3.927376 0.972345 0
M  V30 24 H 1.501427 -3.716409 0.064980 0
M  V30 25 H 2.024179 -2.379811 1.118874 0
M  V30 26 H 0.519681 -2.140695 -1.502454 0
M  V30 27 H 2.712813 -2.731070 -1.303397 0
M  V30 28 H 2.279952 -0.209942 1.155186 0
M  V30 29 H 1.730233 2.212948 1.613188 0
M  V30 30 H -0.971377 3.781495 0.821640 0
M  V30 31 H -1.729747 3.175997 -1.532856 0
M  V30 32 H -0.796509 -0.315164 -1.834622 0
M  V30 END ATOM
M  V30 BEGIN BOND
M  V30 1 1 1 2
M  V30 2 1 2 3
M  V30 3 1 2 4
M  V30 4 1 4 5
M  V30 5 1 5 6
M  V30 6 1 6 7
M  V30 7 1 6 8
M  V30 8 2 8 9
M  V30 9 1 9 10
M  V30 10 2 10 11
M  V30 11 1 11 12
M  V30 12 1 11 13
M  V30 13 1 13 14
M  V30 14 2 13 15
M  V30 15 1 15 8
M  V30 16 1 1 16
M  V30 17 1 1 17
M  V30 18 1 1 18
M  V30 19 1 2 19
M  V30 20 1 3 20
M  V30 21 1 3 21
M  V30 22 1 3 22
M  V30 23 1 4 23
M  V30 24 1 5 24
M  V30 25 1 5 25
M  V30 26 1 6 26
M  V30 27 1 7 27
M  V30 28 1 9 28
M  V30 29 1 10 29
M  V30 30 1 12 30
M  V30 31 1 14 31
M  V30 32 1 15 32
M  V30 END BOND
M  V30 END CTAB
M  END
>  <Dataset>  (380) 
ChEMBL_Kinases

>  <Ligand_Instance>  (380) 
nan

>  <PDB_ID>  (380) 
nan

>  <Standardized_SMILES>  (380) 
CC(C)NCC(O)c1ccc(O)c(O)c1

>  <Name>  (380) 
ISOPROTERENOL HYDROCHLORIDE

>  <Pocket>  (380) 
nan

>  <ATP_Site>  (380) 
nan

>  <Peripheral>  (380) 
nan

>  <Num_H_Atoms_ProtBoundConf>  (380) 
nan

>  <Num_Resolved_Atoms>  (380) 
nan

>  <Num_Not_Resolved_Atoms>  (380) 
nan

$$$$
CHEMBL17127
     RDKit          3D

  0  0  0  0  0  0  0  0  0  0999 V3000
M  V30 BEGIN CTAB
M  V30 COUNTS 41 45 0 0 0
M  V30 BEGIN ATOM
M  V30 1 N -1.033562 -4.388139 -0.254996 0
M  V30 2 C -0.434455 -3.224759 0.334357 0
M  V30 3 N 0.771581 -2.764493 -0.107963 0
M  V30 4 C 1.330539 -1.675512 0.444983 0
M  V30 5 C 0.698413 -1.000421 1.469966 0
M  V30 6 C 1.462275 0.077114 1.870172 0
M  V30 7 N 2.544171 0.023275 1.069397 0
M  V30 8 N 2.471479 -0.995102 0.238593 0
M  V30 9 C 3.499625 -1.297273 -0.739665 0
M  V30 10 C 3.101024 -0.527457 -2.003428 0
M  V30 11 C 3.048589 0.920822 -1.706447 0
M  V30 12 C 4.083525 1.823939 -1.818321 0
M  V30 13 C 3.928654 3.155457 -1.515608 0
M  V30 14 C 2.720073 3.661168 -1.080722 0
M  V30 15 C 1.657988 2.800617 -0.952993 0
M  V30 16 C 1.838974 1.465863 -1.263604 0
M  V30 17 C -0.518389 -1.516927 1.871111 0
M  V30 18 N -1.351074 -1.071582 2.837047 0
M  V30 19 C -2.437308 -1.862983 2.909237 0
M  V30 20 C -3.550129 -1.682681 3.841045 0
M  V30 21 C -3.872770 -0.499059 4.472386 0
M  V30 22 C -4.977174 -0.680008 5.282253 0
M  V30 23 C -5.278178 -2.015792 5.092280 0
M  V30 24 O -4.435852 -2.556402 4.257948 0
M  V30 25 N -2.256518 -2.806663 1.966387 0
M  V30 26 N -1.100711 -2.608690 1.332044 0
M  V30 27 H -0.995748 -4.524855 -1.296394 0
M  V30 28 H -1.514161 -5.110573 0.354295 0
M  V30 29 H 1.223329 0.783937 2.648540 0
M  V30 30 H 4.481681 -0.946682 -0.375624 0
M  V30 31 H 3.491852 -2.374066 -1.007923 0
M  V30 32 H 3.787460 -0.745358 -2.839920 0
M  V30 33 H 2.076184 -0.873449 -2.254062 0
M  V30 34 H 5.035545 1.414636 -2.163022 0
M  V30 35 H 4.756902 3.844508 -1.611711 0
M  V30 36 H 2.531705 4.694720 -0.826787 0
M  V30 37 H 0.689749 3.133660 -0.618650 0
M  V30 38 H 0.983254 0.800093 -1.155319 0
M  V30 39 H -3.337730 0.448243 4.354474 0
M  V30 40 H -5.440839 0.099736 5.895448 0
M  V30 41 H -6.127140 -2.494915 5.606278 0
M  V30 END ATOM
M  V30 BEGIN BOND
M  V30 1 1 1 2
M  V30 2 2 2 3
M  V30 3 1 3 4
M  V30 4 2 4 5
M  V30 5 1 5 6
M  V30 6 2 6 7
M  V30 7 1 7 8
M  V30 8 1 8 9
M  V30 9 1 9 10
M  V30 10 1 10 11
M  V30 11 2 11 12
M  V30 12 1 12 13
M  V30 13 2 13 14
M  V30 14 1 14 15
M  V30 15 2 15 16
M  V30 16 1 5 17
M  V30 17 2 17 18
M  V30 18 1 18 19
M  V30 19 1 19 20
M  V30 20 2 20 21
M  V30 21 1 21 22
M  V30 22 2 22 23
M  V30 23 1 23 24
M  V30 24 2 19 25
M  V30 25 1 25 26
M  V30 26 1 26 2
M  V30 27 1 8 4
M  V30 28 1 16 11
M  V30 29 1 26 17
M  V30 30 1 24 20
M  V30 31 1 1 27
M  V30 32 1 1 28
M  V30 33 1 6 29
M  V30 34 1 9 30
M  V30 35 1 9 31
M  V30 36 1 10 32
M  V30 37 1 10 33
M  V30 38 1 12 34
M  V30 39 1 13 35
M  V30 40 1 14 36
M  V30 41 1 15 37
M  V30 42 1 16 38
M  V30 43 1 21 39
M  V30 44 1 22 40
M  V30 45 1 23 41
M  V30 END BOND
M  V30 END CTAB
M  END
>  <Dataset>  (381) 
ChEMBL_Kinases

>  <Ligand_Instance>  (381) 
nan

>  <PDB_ID>  (381) 
nan

>  <Standardized_SMILES>  (381) 
Nc1nc2c(cnn2CCc2ccccc2)c2nc(-c3ccco3)nn12

>  <Name>  (381) 
SCH-58261

>  <Pocket>  (381) 
nan

>  <ATP_Site>  (381) 
nan

>  <Peripheral>  (381) 
nan

>  <Num_H_Atoms_ProtBoundConf>  (381) 
nan

>  <Num_Resolved_Atoms>  (381) 
nan

>  <Num_Not_Resolved_Atoms>  (381) 
nan

$$$$
CHEMBL172179
     RDKit          3D

  0  0  0  0  0  0  0  0  0  0999 V3000
M  V30 BEGIN CTAB
M  V30 COUNTS 34 37 0 0 0
M  V30 BEGIN ATOM
M  V30 1 C -2.107837 -3.828210 2.912120 0
M  V30 2 N -1.716234 -2.719517 2.027995 0
M  V30 3 C -0.634965 -1.956113 2.233884 0
M  V30 4 C -0.542583 -0.995777 1.218483 0
M  V30 5 C 0.511979 -0.005191 1.217202 0
M  V30 6 C 1.432371 0.325602 0.333681 0
M  V30 7 C 1.555601 -0.337355 -0.935731 0
M  V30 8 O 0.867217 -1.286305 -1.360249 0
M  V30 9 N 2.622993 0.304255 -1.609938 0
M  V30 10 C 3.118791 1.325005 -0.751938 0
M  V30 11 N 4.135783 2.213320 -0.944049 0
M  V30 12 C 4.453990 3.119826 0.014376 0
M  V30 13 C 3.775923 3.193350 1.221326 0
M  V30 14 C 2.744828 2.298619 1.425651 0
M  V30 15 C 2.430543 1.380625 0.442339 0
M  V30 16 C -1.644410 -1.280379 0.441404 0
M  V30 17 C -2.087747 -0.648704 -0.700037 0
M  V30 18 C -3.235743 -1.098284 -1.306748 0
M  V30 19 C -3.980664 -2.151079 -0.843061 0
M  V30 20 C -3.511426 -2.760997 0.300369 0
M  V30 21 C -2.368608 -2.325990 0.919662 0
M  V30 22 H -2.426142 -3.458052 3.915457 0
M  V30 23 H -1.338374 -4.618166 2.961319 0
M  V30 24 H -3.026099 -4.315849 2.476911 0
M  V30 25 H 0.059861 -2.083351 3.079033 0
M  V30 26 H 0.538552 0.586848 2.150210 0
M  V30 27 H 2.926050 0.014909 -2.565320 0
M  V30 28 H 5.273124 3.799051 -0.198986 0
M  V30 29 H 4.049935 3.934463 1.982674 0
M  V30 30 H 2.175373 2.308256 2.354616 0
M  V30 31 H -1.495827 0.199911 -1.081866 0
M  V30 32 H -3.597164 -0.606338 -2.211407 0
M  V30 33 H -4.884856 -2.465214 -1.367026 0
M  V30 34 H -4.075840 -3.606650 0.705887 0
M  V30 END ATOM
M  V30 BEGIN BOND
M  V30 1 1 1 2
M  V30 2 1 2 3
M  V30 3 2 3 4
M  V30 4 1 4 5
M  V30 5 2 5 6
M  V30 6 1 6 7
M  V30 7 2 7 8
M  V30 8 1 7 9
M  V30 9 1 9 10
M  V30 10 2 10 11
M  V30 11 1 11 12
M  V30 12 2 12 13
M  V30 13 1 13 14
M  V30 14 2 14 15
M  V30 15 1 4 16
M  V30 16 2 16 17
M  V30 17 1 17 18
M  V30 18 2 18 19
M  V30 19 1 19 20
M  V30 20 2 20 21
M  V30 21 1 21 2
M  V30 22 1 15 6
M  V30 23 1 21 16
M  V30 24 1 15 10
M  V30 25 1 1 22
M  V30 26 1 1 23
M  V30 27 1 1 24
M  V30 28 1 3 25
M  V30 29 1 5 26
M  V30 30 1 9 27
M  V30 31 1 12 28
M  V30 32 1 13 29
M  V30 33 1 14 30
M  V30 34 1 17 31
M  V30 35 1 18 32
M  V30 36 1 19 33
M  V30 37 1 20 34
M  V30 END BOND
M  V30 END CTAB
M  END
>  <Dataset>  (382) 
ChEMBL_Kinases

>  <Ligand_Instance>  (382) 
nan

>  <PDB_ID>  (382) 
nan

>  <Standardized_SMILES>  (382) 
Cn1cc(/C=C2\C(=O)Nc3ncccc32)c2ccccc21

>  <Name>  (382) 
nan

>  <Pocket>  (382) 
nan

>  <ATP_Site>  (382) 
nan

>  <Peripheral>  (382) 
nan

>  <Num_H_Atoms_ProtBoundConf>  (382) 
nan

>  <Num_Resolved_Atoms>  (382) 
nan

>  <Num_Not_Resolved_Atoms>  (382) 
nan

$$$$
CHEMBL1727
     RDKit          3D

  0  0  0  0  0  0  0  0  0  0999 V3000
M  V30 BEGIN CTAB
M  V30 COUNTS 41 43 0 0 0
M  V30 BEGIN ATOM
M  V30 1 C 2.636100 -5.215452 1.147497 0
M  V30 2 C 2.111891 -3.814926 1.053330 0
M  V30 3 C 2.997586 -2.928298 0.635000 0
M  V30 4 C 4.360521 -3.313757 0.301014 0
M  V30 5 O 5.235606 -2.509412 -0.100643 0
M  V30 6 O 5.051982 -4.504136 0.308632 0
M  V30 7 N 2.625527 -1.565203 0.505812 0
M  V30 8 C 2.725876 -0.368057 -0.247383 0
M  V30 9 O 3.344248 0.044067 -1.287335 0
M  V30 10 C 1.793983 0.296430 0.655199 0 CFG=1
M  V30 11 N 0.545272 0.763993 0.098434 0
M  V30 12 C 0.226456 2.125842 0.352172 0
M  V30 13 O 0.962956 2.908121 1.017685 0
M  V30 14 C -1.039597 2.679830 -0.186860 0 CFG=2
M  V30 15 N -1.105949 4.069882 0.218578 0
M  V30 16 C -2.166334 1.995232 0.519443 0
M  V30 17 C -2.312573 2.313549 1.854522 0
M  V30 18 C -3.307157 1.760265 2.633805 0
M  V30 19 C -4.175954 0.855317 2.026950 0
M  V30 20 C -4.017480 0.545843 0.688508 0
M  V30 21 C -3.019258 1.102600 -0.089212 0
M  V30 22 C 1.751896 -0.927578 1.486511 0 CFG=1
M  V30 23 S 0.239614 -1.882758 1.483737 0
M  V30 24 C 0.694973 -3.631818 1.432585 0
M  V30 25 H 3.487625 -5.274002 1.856888 0
M  V30 26 H 1.882647 -5.925143 1.544234 0
M  V30 27 H 2.988809 -5.580616 0.152694 0
M  V30 28 H 5.364414 -5.014358 -0.496878 0
M  V30 29 H 2.342926 1.103983 1.222808 0
M  V30 30 H -0.035107 0.113036 -0.436995 0
M  V30 31 H -1.079270 2.570234 -1.271488 0
M  V30 32 H -2.015676 4.359105 0.592600 0
M  V30 33 H -0.623703 4.726356 -0.407381 0
M  V30 34 H -1.638805 3.024445 2.352915 0
M  V30 35 H -3.467066 1.973559 3.682112 0
M  V30 36 H -4.968118 0.406457 2.622647 0
M  V30 37 H -4.689603 -0.163875 0.189616 0
M  V30 38 H -2.875718 0.876102 -1.137182 0
M  V30 39 H 2.181266 -0.853572 2.508979 0
M  V30 40 H 0.018343 -4.099380 0.667045 0
M  V30 41 H 0.519685 -4.137958 2.404488 0
M  V30 END ATOM
M  V30 BEGIN BOND
M  V30 1 1 1 2
M  V30 2 2 2 3
M  V30 3 1 3 4
M  V30 4 2 4 5
M  V30 5 1 4 6
M  V30 6 1 3 7
M  V30 7 1 7 8
M  V30 8 2 8 9
M  V30 9 1 8 10
M  V30 10 1 10 11
M  V30 11 1 11 12
M  V30 12 2 12 13
M  V30 13 1 12 14
M  V30 14 1 14 15
M  V30 15 1 14 16
M  V30 16 2 16 17
M  V30 17 1 17 18
M  V30 18 2 18 19
M  V30 19 1 19 20
M  V30 20 2 20 21
M  V30 21 1 10 22
M  V30 22 1 22 23
M  V30 23 1 23 24
M  V30 24 1 24 2
M  V30 25 1 22 7
M  V30 26 1 21 16
M  V30 27 1 1 25
M  V30 28 1 1 26
M  V30 29 1 1 27
M  V30 30 1 6 28
M  V30 31 1 10 29 CFG=1
M  V30 32 1 11 30
M  V30 33 1 14 31 CFG=3
M  V30 34 1 15 32
M  V30 35 1 15 33
M  V30 36 1 17 34
M  V30 37 1 18 35
M  V30 38 1 19 36
M  V30 39 1 20 37
M  V30 40 1 21 38
M  V30 41 1 22 39 CFG=1
M  V30 42 1 24 40
M  V30 43 1 24 41
M  V30 END BOND
M  V30 END CTAB
M  END
>  <Dataset>  (383) 
ChEMBL_Kinases

>  <Ligand_Instance>  (383) 
nan

>  <PDB_ID>  (383) 
nan

>  <Standardized_SMILES>  (383) 
CC1=C(C(=O)O)N2C(=O)[C@@H](NC(=O)[C@H](N)c3ccccc3)[C@H]2SC1

>  <Name>  (383) 
CEPHALEXIN ANHYDROUS

>  <Pocket>  (383) 
nan

>  <ATP_Site>  (383) 
nan

>  <Peripheral>  (383) 
nan

>  <Num_H_Atoms_ProtBoundConf>  (383) 
nan

>  <Num_Resolved_Atoms>  (383) 
nan

>  <Num_Not_Resolved_Atoms>  (383) 
nan

$$$$
CHEMBL1738915
     RDKit          3D

  0  0  0  0  0  0  0  0  0  0999 V3000
M  V30 BEGIN CTAB
M  V30 COUNTS 22 23 0 0 0
M  V30 BEGIN ATOM
M  V30 1 C 1.281004 -1.702997 3.959130 0
M  V30 2 O 0.846440 -0.653546 3.119399 0
M  V30 3 C 0.775732 -0.845843 1.749642 0
M  V30 4 C 1.125774 -2.056896 1.183506 0
M  V30 5 C 1.026300 -2.161787 -0.180867 0
M  V30 6 Br 1.471348 -3.766225 -1.120480 0
M  V30 7 C 0.601130 -1.124976 -0.967986 0
M  V30 8 C 0.252723 0.085759 -0.386359 0
M  V30 9 C -0.206156 1.303034 -0.901917 0
M  V30 10 C -0.367297 2.108899 0.202282 0
M  V30 11 C -0.839265 3.484826 0.093036 0
M  V30 12 O -1.107292 3.948490 -1.047565 0
M  V30 13 O -1.015854 4.331256 1.177931 0
M  V30 14 O -0.042826 1.462085 1.293400 0
M  V30 15 C 0.339156 0.236359 1.001128 0
M  V30 16 H 1.536301 -1.301759 4.972929 0
M  V30 17 H 2.195212 -2.186899 3.549258 0
M  V30 18 H 0.449192 -2.435111 4.047025 0
M  V30 19 H 1.462679 -2.889735 1.768932 0
M  V30 20 H 0.509706 -1.169740 -2.046577 0
M  V30 21 H -0.371084 1.483431 -1.960519 0
M  V30 22 H -1.036402 5.343794 1.010933 0
M  V30 END ATOM
M  V30 BEGIN BOND
M  V30 1 1 1 2
M  V30 2 1 2 3
M  V30 3 2 3 4
M  V30 4 1 4 5
M  V30 5 1 5 6
M  V30 6 2 5 7
M  V30 7 1 7 8
M  V30 8 1 8 9
M  V30 9 2 9 10
M  V30 10 1 10 11
M  V30 11 2 11 12
M  V30 12 1 11 13
M  V30 13 1 10 14
M  V30 14 1 14 15
M  V30 15 1 15 3
M  V30 16 2 15 8
M  V30 17 1 1 16
M  V30 18 1 1 17
M  V30 19 1 1 18
M  V30 20 1 4 19
M  V30 21 1 7 20
M  V30 22 1 9 21
M  V30 23 1 13 22
M  V30 END BOND
M  V30 END CTAB
M  END
>  <Dataset>  (384) 
ChEMBL_Kinases

>  <Ligand_Instance>  (384) 
nan

>  <PDB_ID>  (384) 
nan

>  <Standardized_SMILES>  (384) 
COc1cc(Br)cc2cc(C(=O)O)oc12

>  <Name>  (384) 
nan

>  <Pocket>  (384) 
nan

>  <ATP_Site>  (384) 
nan

>  <Peripheral>  (384) 
nan

>  <Num_H_Atoms_ProtBoundConf>  (384) 
nan

>  <Num_Resolved_Atoms>  (384) 
nan

>  <Num_Not_Resolved_Atoms>  (384) 
nan

$$$$
CHEMBL173050
     RDKit          3D

  0  0  0  0  0  0  0  0  0  0999 V3000
M  V30 BEGIN CTAB
M  V30 COUNTS 49 52 0 0 0
M  V30 BEGIN ATOM
M  V30 1 N 2.944026 -5.035720 -1.079445 0
M  V30 2 C 1.957695 -4.554556 -0.722326 0
M  V30 3 C 0.744032 -3.970903 -0.259771 0
M  V30 4 C 0.516155 -2.617792 -0.282355 0
M  V30 5 C 1.562376 -1.709985 -0.805222 0
M  V30 6 C 2.298397 -1.898762 -1.964884 0
M  V30 7 C 3.229675 -0.959943 -2.305163 0
M  V30 8 C 3.482003 0.173830 -1.555784 0
M  V30 9 C 2.741445 0.360334 -0.392265 0
M  V30 10 N 2.944312 1.504744 0.433089 0
M  V30 11 C 2.261255 2.742765 0.308795 0
M  V30 12 O 1.362156 3.267441 -0.430944 0
M  V30 13 C 2.492730 3.903752 1.175048 0
M  V30 14 C 2.037427 3.676528 2.598120 0
M  V30 15 C 0.538637 3.890352 2.541101 0
M  V30 16 C 0.422133 4.840324 1.416740 0
M  V30 17 O -0.739060 5.333543 1.300031 0
M  V30 18 O 1.638613 4.954040 0.760056 0
M  V30 19 C 1.794817 -0.582835 -0.035730 0
M  V30 20 C -0.688000 -2.133719 0.184933 0
M  V30 21 C -1.700344 -2.905297 0.681503 0
M  V30 22 C -2.969771 -2.378915 1.172721 0
M  V30 23 C -3.302970 -1.040274 1.195944 0
M  V30 24 C -4.503233 -0.559339 1.661877 0
M  V30 25 C -5.433287 -1.465093 2.135492 0
M  V30 26 C -5.123889 -2.808850 2.122800 0
M  V30 27 C -3.908857 -3.255752 1.647617 0
M  V30 28 O -3.690365 -4.614316 1.674730 0
M  V30 29 N -1.443569 -4.231694 0.689499 0
M  V30 30 C -0.283034 -4.740403 0.242847 0
M  V30 31 N -0.134712 -6.161669 0.305106 0
M  V30 32 H 2.068394 -2.797972 -2.519494 0
M  V30 33 H 3.766028 -1.170865 -3.220428 0
M  V30 34 H 4.233823 0.895720 -1.864969 0
M  V30 35 H 3.635539 1.498458 1.208839 0
M  V30 36 H 3.552916 4.234710 1.107264 0
M  V30 37 H 2.249953 2.669640 2.958829 0
M  V30 38 H 2.496863 4.455522 3.226467 0
M  V30 39 H 0.235625 4.360044 3.508286 0
M  V30 40 H 0.006005 2.948444 2.335398 0
M  V30 41 H 1.245139 -0.395907 0.874297 0
M  V30 42 H -0.810539 -1.061003 0.142419 0
M  V30 43 H -2.582272 -0.324326 0.827700 0
M  V30 44 H -4.685202 0.507214 1.645014 0
M  V30 45 H -6.372713 -1.030880 2.495073 0
M  V30 46 H -5.892714 -3.473000 2.506865 0
M  V30 47 H -3.453477 -5.040566 2.562268 0
M  V30 48 H -0.084704 -6.401972 1.330532 0
M  V30 49 H -0.062557 -7.002552 -0.292922 0
M  V30 END ATOM
M  V30 BEGIN BOND
M  V30 1 3 1 2
M  V30 2 1 2 3
M  V30 3 2 3 4
M  V30 4 1 4 5
M  V30 5 2 5 6
M  V30 6 1 6 7
M  V30 7 2 7 8
M  V30 8 1 8 9
M  V30 9 1 9 10
M  V30 10 1 10 11
M  V30 11 2 11 12
M  V30 12 1 11 13
M  V30 13 1 13 14
M  V30 14 1 14 15
M  V30 15 1 15 16
M  V30 16 2 16 17
M  V30 17 1 16 18
M  V30 18 2 9 19
M  V30 19 1 4 20
M  V30 20 2 20 21
M  V30 21 1 21 22
M  V30 22 2 22 23
M  V30 23 1 23 24
M  V30 24 2 24 25
M  V30 25 1 25 26
M  V30 26 2 26 27
M  V30 27 1 27 28
M  V30 28 1 21 29
M  V30 29 2 29 30
M  V30 30 1 30 31
M  V30 31 1 30 3
M  V30 32 1 19 5
M  V30 33 1 27 22
M  V30 34 1 18 13
M  V30 35 1 6 32
M  V30 36 1 7 33
M  V30 37 1 8 34
M  V30 38 1 10 35
M  V30 39 1 13 36
M  V30 40 1 14 37
M  V30 41 1 14 38
M  V30 42 1 15 39
M  V30 43 1 15 40
M  V30 44 1 19 41
M  V30 45 1 20 42
M  V30 46 1 23 43
M  V30 47 1 24 44
M  V30 48 1 25 45
M  V30 49 1 26 46
M  V30 50 1 28 47
M  V30 51 1 31 48
M  V30 52 1 31 49
M  V30 END BOND
M  V30 END CTAB
M  END
>  <Dataset>  (385) 
ChEMBL_Kinases

>  <Ligand_Instance>  (385) 
nan

>  <PDB_ID>  (385) 
nan

>  <Standardized_SMILES>  (385) 
N#Cc1c(-c2cccc(NC(=O)C3CCC(=O)O3)c2)cc(-c2ccccc2O)nc1N

>  <Name>  (385) 
nan

>  <Pocket>  (385) 
nan

>  <ATP_Site>  (385) 
nan

>  <Peripheral>  (385) 
nan

>  <Num_H_Atoms_ProtBoundConf>  (385) 
nan

>  <Num_Resolved_Atoms>  (385) 
nan

>  <Num_Not_Resolved_Atoms>  (385) 
nan

$$$$
CHEMBL1732085
     RDKit          3D

  0  0  0  0  0  0  0  0  0  0999 V3000
M  V30 BEGIN CTAB
M  V30 COUNTS 50 52 0 0 0
M  V30 BEGIN ATOM
M  V30 1 O 3.017768 -1.911842 2.943597 0
M  V30 2 N 4.173174 -1.700659 3.358903 0 CHG=1 VAL=4
M  V30 3 O 4.531265 -3.027388 3.508147 0 CHG=-1 VAL=1
M  V30 4 C 5.039202 -0.614004 3.657797 0
M  V30 5 C 5.926809 -0.854800 4.683942 0
M  V30 6 C 6.809169 0.115543 5.062392 0
M  V30 7 C 6.780343 1.308650 4.400243 0
M  V30 8 C 5.894394 1.526552 3.387881 0
M  V30 9 C 4.985182 0.579525 2.969994 0
M  V30 10 C 4.031408 0.785877 1.893817 0
M  V30 11 C 3.907993 1.892041 1.185211 0
M  V30 12 C 2.907630 1.989720 0.119154 0
M  V30 13 N 2.148965 0.972034 -0.113726 0
M  V30 14 N 1.174707 0.975316 -1.103662 0
M  V30 15 C -0.165630 0.682370 -0.728740 0
M  V30 16 C -0.428833 0.409827 0.586583 0
M  V30 17 C -1.722706 0.123553 0.968110 0
M  V30 18 C -2.789008 0.099148 0.061060 0
M  V30 19 S -4.374949 -0.275028 0.664874 0
M  V30 20 O -5.375189 0.511726 -0.146485 0
M  V30 21 O -4.443419 0.185866 2.098380 0
M  V30 22 N -4.764779 -1.933839 0.649821 0
M  V30 23 C -4.862734 -2.826723 -0.439849 0
M  V30 24 C -4.328346 -4.117372 -0.462276 0
M  V30 25 C -4.449318 -4.955104 -1.550276 0
M  V30 26 C -5.123487 -4.489975 -2.647323 0
M  V30 27 Cl -5.250911 -5.587773 -4.001925 0
M  V30 28 C -5.659657 -3.232829 -2.661458 0
M  V30 29 C -5.546575 -2.371662 -1.568820 0
M  V30 30 C -2.519628 0.376329 -1.274848 0
M  V30 31 C -1.208797 0.656500 -1.604415 0
M  V30 32 N -0.992160 0.932111 -2.979860 0 CHG=1 VAL=4
M  V30 33 O -1.647688 0.526922 -3.947541 0
M  V30 34 O -0.089995 1.662412 -3.713248 0 CHG=-1 VAL=1
M  V30 35 H 5.965366 -1.790217 5.219082 0
M  V30 36 H 7.514440 -0.075044 5.876906 0
M  V30 37 H 7.494787 2.072247 4.718285 0
M  V30 38 H 5.922050 2.489039 2.905171 0
M  V30 39 H 3.360673 -0.013292 1.634529 0
M  V30 40 H 4.562761 2.720374 1.412340 0
M  V30 41 H 2.814948 2.889616 -0.449380 0
M  V30 42 H 1.500110 1.196081 -2.067853 0
M  V30 43 H 0.361433 0.413146 1.343618 0
M  V30 44 H -1.892205 -0.088069 2.023154 0
M  V30 45 H -4.988078 -2.495405 1.524535 0
M  V30 46 H -3.805045 -4.410061 0.455383 0
M  V30 47 H -3.993837 -5.939897 -1.457355 0
M  V30 48 H -6.172879 -2.979409 -3.594131 0
M  V30 49 H -5.988642 -1.403215 -1.646643 0
M  V30 50 H -3.338563 0.359646 -1.983828 0
M  V30 END ATOM
M  V30 BEGIN BOND
M  V30 1 2 1 2
M  V30 2 1 2 3
M  V30 3 1 2 4
M  V30 4 2 4 5
M  V30 5 1 5 6
M  V30 6 2 6 7
M  V30 7 1 7 8
M  V30 8 2 8 9
M  V30 9 1 9 10
M  V30 10 2 10 11
M  V30 11 1 11 12
M  V30 12 2 12 13
M  V30 13 1 13 14
M  V30 14 1 14 15
M  V30 15 2 15 16
M  V30 16 1 16 17
M  V30 17 2 17 18
M  V30 18 1 18 19
M  V30 19 2 19 20
M  V30 20 2 19 21
M  V30 21 1 19 22
M  V30 22 1 22 23
M  V30 23 2 23 24
M  V30 24 1 24 25
M  V30 25 2 25 26
M  V30 26 1 26 27
M  V30 27 1 26 28
M  V30 28 2 28 29
M  V30 29 1 18 30
M  V30 30 2 30 31
M  V30 31 1 31 32
M  V30 32 2 32 33
M  V30 33 1 32 34
M  V30 34 1 9 4
M  V30 35 1 31 15
M  V30 36 1 29 23
M  V30 37 1 5 35
M  V30 38 1 6 36
M  V30 39 1 7 37
M  V30 40 1 8 38
M  V30 41 1 10 39
M  V30 42 1 11 40
M  V30 43 1 12 41
M  V30 44 1 14 42
M  V30 45 1 16 43
M  V30 46 1 17 44
M  V30 47 1 22 45
M  V30 48 1 24 46
M  V30 49 1 25 47
M  V30 50 1 28 48
M  V30 51 1 29 49
M  V30 52 1 30 50
M  V30 END BOND
M  V30 END CTAB
M  END
>  <Dataset>  (386) 
ChEMBL_Kinases

>  <Ligand_Instance>  (386) 
nan

>  <PDB_ID>  (386) 
nan

>  <Standardized_SMILES>  (386) 
O=[N+]([O-])c1ccccc1/C=C/C=N/Nc1ccc(S(=O)(=O)Nc2ccc(Cl)cc2)cc1[N+](=O)[O-]

>  <Name>  (386) 
nan

>  <Pocket>  (386) 
nan

>  <ATP_Site>  (386) 
nan

>  <Peripheral>  (386) 
nan

>  <Num_H_Atoms_ProtBoundConf>  (386) 
nan

>  <Num_Resolved_Atoms>  (386) 
nan

>  <Num_Not_Resolved_Atoms>  (386) 
nan

$$$$
CHEMBL17331
     RDKit          3D

  0  0  0  0  0  0  0  0  0  0999 V3000
M  V30 BEGIN CTAB
M  V30 COUNTS 40 43 0 0 0
M  V30 BEGIN ATOM
M  V30 1 O 1.836514 -1.968296 8.034261 0
M  V30 2 N 2.147352 -2.647256 7.028651 0 CHG=1 VAL=4
M  V30 3 O 2.848264 -3.823438 7.133519 0 CHG=-1 VAL=1
M  V30 4 C 1.762034 -2.183791 5.737855 0
M  V30 5 C 1.056336 -1.010009 5.575847 0
M  V30 6 C 0.715414 -0.622870 4.280076 0
M  V30 7 C 1.059455 -1.370891 3.166781 0
M  V30 8 C 0.692860 -0.951398 1.809679 0
M  V30 9 N -0.003136 0.177223 1.532970 0
M  V30 10 C -0.189879 0.296501 0.203023 0
M  V30 11 C -0.887346 1.377587 -0.441323 0
M  V30 12 C -0.367123 2.656712 -0.266080 0
M  V30 13 C -0.992346 3.758254 -0.863190 0
M  V30 14 C -2.125247 3.542461 -1.621119 0
M  V30 15 F -2.733337 4.598176 -2.199201 0
M  V30 16 C -2.673659 2.275890 -1.817747 0
M  V30 17 C -2.018167 1.217480 -1.205915 0
M  V30 18 C 0.428985 -0.821201 -0.329717 0
M  V30 19 C 0.463052 -1.093001 -1.760724 0
M  V30 20 C 1.006104 -0.381740 -2.807630 0
M  V30 21 C 0.907810 -0.856514 -4.092316 0
M  V30 22 N 0.293237 -2.011089 -4.396154 0
M  V30 23 C -0.246942 -2.725170 -3.381996 0
M  V30 24 C -0.184016 -2.301561 -2.050134 0
M  V30 25 N 0.966653 -1.581422 0.647173 0
M  V30 26 C 1.765352 -2.542262 3.346133 0
M  V30 27 C 2.101750 -2.923608 4.631370 0
M  V30 28 H 0.769110 -0.399561 6.410491 0
M  V30 29 H 0.159515 0.303275 4.165982 0
M  V30 30 H 0.528590 2.890760 0.324376 0
M  V30 31 H -0.610470 4.763102 -0.744521 0
M  V30 32 H -3.561645 2.116098 -2.413312 0
M  V30 33 H -2.371980 0.191836 -1.302690 0
M  V30 34 H 1.475799 0.528604 -2.462568 0
M  V30 35 H 1.368190 -0.220642 -4.841901 0
M  V30 36 H -0.723009 -3.639630 -3.707230 0
M  V30 37 H -0.660421 -2.982875 -1.376687 0
M  V30 38 H 1.492478 -2.479394 0.546499 0
M  V30 39 H 2.053965 -3.157257 2.496710 0
M  V30 40 H 2.653381 -3.847528 4.716588 0
M  V30 END ATOM
M  V30 BEGIN BOND
M  V30 1 2 1 2
M  V30 2 1 2 3
M  V30 3 1 2 4
M  V30 4 2 4 5
M  V30 5 1 5 6
M  V30 6 2 6 7
M  V30 7 1 7 8
M  V30 8 2 8 9
M  V30 9 1 9 10
M  V30 10 1 10 11
M  V30 11 2 11 12
M  V30 12 1 12 13
M  V30 13 2 13 14
M  V30 14 1 14 15
M  V30 15 1 14 16
M  V30 16 2 16 17
M  V30 17 2 10 18
M  V30 18 1 18 19
M  V30 19 2 19 20
M  V30 20 1 20 21
M  V30 21 2 21 22
M  V30 22 1 22 23
M  V30 23 2 23 24
M  V30 24 1 18 25
M  V30 25 1 7 26
M  V30 26 2 26 27
M  V30 27 1 27 4
M  V30 28 1 25 8
M  V30 29 1 17 11
M  V30 30 1 24 19
M  V30 31 1 5 28
M  V30 32 1 6 29
M  V30 33 1 12 30
M  V30 34 1 13 31
M  V30 35 1 16 32
M  V30 36 1 17 33
M  V30 37 1 20 34
M  V30 38 1 21 35
M  V30 39 1 23 36
M  V30 40 1 24 37
M  V30 41 1 25 38
M  V30 42 1 26 39
M  V30 43 1 27 40
M  V30 END BOND
M  V30 END CTAB
M  END
>  <Dataset>  (387) 
ChEMBL_Kinases

>  <Ligand_Instance>  (387) 
nan

>  <PDB_ID>  (387) 
nan

>  <Standardized_SMILES>  (387) 
O=[N+]([O-])c1ccc(-c2nc(-c3ccc(F)cc3)c(-c3ccncc3)[nH]2)cc1

>  <Name>  (387) 
PD-169316

>  <Pocket>  (387) 
nan

>  <ATP_Site>  (387) 
nan

>  <Peripheral>  (387) 
nan

>  <Num_H_Atoms_ProtBoundConf>  (387) 
nan

>  <Num_Resolved_Atoms>  (387) 
nan

>  <Num_Not_Resolved_Atoms>  (387) 
nan

$$$$
CHEMBL173484
     RDKit          3D

  0  0  0  0  0  0  0  0  0  0999 V3000
M  V30 BEGIN CTAB
M  V30 COUNTS 60 63 0 0 0
M  V30 BEGIN ATOM
M  V30 1 N 0.673168 -3.212115 4.782728 0
M  V30 2 C 0.729068 -3.427550 3.642682 0
M  V30 3 C 0.790969 -3.700905 2.234451 0
M  V30 4 C 1.448239 -2.865181 1.355601 0
M  V30 5 C 2.115074 -1.649221 1.849751 0
M  V30 6 C 2.928407 -1.539029 2.967427 0
M  V30 7 C 3.469505 -0.307789 3.276673 0
M  V30 8 C 3.220445 0.803329 2.504990 0
M  V30 9 C 2.414510 0.713669 1.390154 0
M  V30 10 N 2.115405 1.840508 0.541244 0
M  V30 11 C 0.954347 2.556958 0.940952 0
M  V30 12 O 0.269353 2.208127 1.956155 0
M  V30 13 C 0.358862 3.764923 0.296868 0
M  V30 14 C -0.862579 4.112460 1.127485 0
M  V30 15 N -1.800392 3.021080 1.132200 0
M  V30 16 C -2.986609 3.264180 1.894840 0
M  V30 17 C -4.240076 3.281926 1.060975 0
M  V30 18 C -4.391412 1.906380 0.437898 0
M  V30 19 C -3.084107 1.389488 -0.064496 0
M  V30 20 C -2.000204 2.425810 -0.148190 0
M  V30 21 C 1.856237 -0.525424 1.059379 0
M  V30 22 C 1.463446 -3.197144 0.012714 0
M  V30 23 C 0.862697 -4.316842 -0.523650 0
M  V30 24 C 0.907978 -4.622127 -1.950274 0
M  V30 25 C 1.533781 -3.860544 -2.915311 0
M  V30 26 C 1.497606 -4.269307 -4.232818 0
M  V30 27 C 0.858337 -5.418087 -4.643157 0
M  V30 28 C 0.221998 -6.199307 -3.687538 0
M  V30 29 C 0.273499 -5.769045 -2.382950 0
M  V30 30 O -0.379507 -6.585561 -1.458173 0
M  V30 31 N 0.231824 -5.109006 0.357529 0
M  V30 32 C 0.200046 -4.812253 1.669326 0
M  V30 33 N -0.489917 -5.704017 2.537294 0
M  V30 34 H 3.068780 -2.461855 3.513594 0
M  V30 35 H 4.099829 -0.262590 4.157933 0
M  V30 36 H 3.654381 1.759981 2.764503 0
M  V30 37 H 2.587331 2.226424 -0.305247 0
M  V30 38 H 1.044151 4.618013 0.382908 0
M  V30 39 H 0.097492 3.517915 -0.732952 0
M  V30 40 H -0.495759 4.235998 2.167255 0
M  V30 41 H -1.333333 5.049336 0.825077 0
M  V30 42 H -2.869358 4.248449 2.413072 0
M  V30 43 H -3.147631 2.522124 2.702092 0
M  V30 44 H -4.125481 4.079024 0.319927 0
M  V30 45 H -5.087937 3.442523 1.760455 0
M  V30 46 H -5.191790 1.951633 -0.336081 0
M  V30 47 H -4.721467 1.219652 1.263166 0
M  V30 48 H -3.273610 1.014268 -1.108601 0
M  V30 49 H -2.710290 0.516133 0.516440 0
M  V30 50 H -1.065861 1.866826 -0.423580 0
M  V30 51 H -2.156490 3.144575 -0.970185 0
M  V30 52 H 1.218322 -0.556725 0.162070 0
M  V30 53 H 1.992084 -2.503229 -0.612257 0
M  V30 54 H 2.027695 -2.972219 -2.595522 0
M  V30 55 H 1.999123 -3.651192 -4.976886 0
M  V30 56 H 0.873899 -5.675323 -5.706948 0
M  V30 57 H -0.285913 -7.105432 -3.988725 0
M  V30 58 H 0.163561 -7.240182 -0.903284 0
M  V30 59 H -1.279574 -5.829717 3.177920 0
M  V30 60 H -0.285476 -6.697755 2.775965 0
M  V30 END ATOM
M  V30 BEGIN BOND
M  V30 1 3 1 2
M  V30 2 1 2 3
M  V30 3 2 3 4
M  V30 4 1 4 5
M  V30 5 2 5 6
M  V30 6 1 6 7
M  V30 7 2 7 8
M  V30 8 1 8 9
M  V30 9 1 9 10
M  V30 10 1 10 11
M  V30 11 2 11 12
M  V30 12 1 11 13
M  V30 13 1 13 14
M  V30 14 1 14 15
M  V30 15 1 15 16
M  V30 16 1 16 17
M  V30 17 1 17 18
M  V30 18 1 18 19
M  V30 19 1 19 20
M  V30 20 2 9 21
M  V30 21 1 4 22
M  V30 22 2 22 23
M  V30 23 1 23 24
M  V30 24 2 24 25
M  V30 25 1 25 26
M  V30 26 2 26 27
M  V30 27 1 27 28
M  V30 28 2 28 29
M  V30 29 1 29 30
M  V30 30 1 23 31
M  V30 31 2 31 32
M  V30 32 1 32 33
M  V30 33 1 32 3
M  V30 34 1 21 5
M  V30 35 1 29 24
M  V30 36 1 20 15
M  V30 37 1 6 34
M  V30 38 1 7 35
M  V30 39 1 8 36
M  V30 40 1 10 37
M  V30 41 1 13 38
M  V30 42 1 13 39
M  V30 43 1 14 40
M  V30 44 1 14 41
M  V30 45 1 16 42
M  V30 46 1 16 43
M  V30 47 1 17 44
M  V30 48 1 17 45
M  V30 49 1 18 46
M  V30 50 1 18 47
M  V30 51 1 19 48
M  V30 52 1 19 49
M  V30 53 1 20 50
M  V30 54 1 20 51
M  V30 55 1 21 52
M  V30 56 1 22 53
M  V30 57 1 25 54
M  V30 58 1 26 55
M  V30 59 1 27 56
M  V30 60 1 28 57
M  V30 61 1 30 58
M  V30 62 1 33 59
M  V30 63 1 33 60
M  V30 END BOND
M  V30 END CTAB
M  END
>  <Dataset>  (388) 
ChEMBL_Kinases

>  <Ligand_Instance>  (388) 
nan

>  <PDB_ID>  (388) 
nan

>  <Standardized_SMILES>  (388) 
N#Cc1c(-c2cccc(NC(=O)CCN3CCCCC3)c2)cc(-c2ccccc2O)nc1N

>  <Name>  (388) 
nan

>  <Pocket>  (388) 
nan

>  <ATP_Site>  (388) 
nan

>  <Peripheral>  (388) 
nan

>  <Num_H_Atoms_ProtBoundConf>  (388) 
nan

>  <Num_Resolved_Atoms>  (388) 
nan

>  <Num_Not_Resolved_Atoms>  (388) 
nan

$$$$
CHEMBL17354
     RDKit          3D

  0  0  0  0  0  0  0  0  0  0999 V3000
M  V30 BEGIN CTAB
M  V30 COUNTS 35 37 0 0 0
M  V30 BEGIN ATOM
M  V30 1 C -1.382059 -1.565771 5.407679 0
M  V30 2 S -0.055564 -0.478431 4.849852 0
M  V30 3 C 0.361622 -0.723723 3.148990 0
M  V30 4 S 1.622616 -1.916271 2.549414 0
M  V30 5 C 1.449557 -1.576161 0.872221 0
M  V30 6 C 2.266215 -2.287073 -0.139157 0
M  V30 7 C 2.300529 -2.200242 -1.489949 0
M  V30 8 C 3.225459 -3.054567 -2.050344 0
M  V30 9 N 3.754464 -3.667501 -0.977041 0
M  V30 10 N 3.197131 -3.221286 0.129851 0
M  V30 11 C 0.491569 -0.615259 0.783698 0
M  V30 12 C -0.052582 -0.191816 1.948506 0
M  V30 13 C -1.095842 0.843166 1.938559 0
M  V30 14 O -1.359804 1.613918 2.862871 0
M  V30 15 C -1.938215 0.997684 0.688815 0
M  V30 16 C -0.948843 1.057843 -0.427870 0
M  V30 17 C -0.269245 2.427948 -0.272863 0
M  V30 18 C -1.720988 1.140224 -1.751307 0
M  V30 19 C 0.046618 -0.035391 -0.503756 0
M  V30 20 H -1.656116 -2.319647 4.632960 0
M  V30 21 H -2.288145 -0.955094 5.657057 0
M  V30 22 H -1.067943 -2.131940 6.311071 0
M  V30 23 H 1.700861 -1.559715 -2.118050 0
M  V30 24 H 3.458278 -3.188740 -3.098029 0
M  V30 25 H 4.506011 -4.401827 -0.982426 0
M  V30 26 H -2.532436 1.907160 0.700278 0
M  V30 27 H -2.550849 0.055506 0.676678 0
M  V30 28 H -1.098622 3.169746 -0.409978 0
M  V30 29 H 0.489806 2.560135 -1.055960 0
M  V30 30 H 0.119988 2.517593 0.757709 0
M  V30 31 H -2.726398 0.679538 -1.670867 0
M  V30 32 H -1.761300 2.149501 -2.155984 0
M  V30 33 H -1.168937 0.522930 -2.518906 0
M  V30 34 H 0.929848 0.398346 -1.066855 0
M  V30 35 H -0.352521 -0.822237 -1.197574 0
M  V30 END ATOM
M  V30 BEGIN BOND
M  V30 1 1 1 2
M  V30 2 1 2 3
M  V30 3 1 3 4
M  V30 4 1 4 5
M  V30 5 1 5 6
M  V30 6 1 6 7
M  V30 7 2 7 8
M  V30 8 1 8 9
M  V30 9 1 9 10
M  V30 10 2 5 11
M  V30 11 1 11 12
M  V30 12 1 12 13
M  V30 13 2 13 14
M  V30 14 1 13 15
M  V30 15 1 15 16
M  V30 16 1 16 17
M  V30 17 1 16 18
M  V30 18 1 16 19
M  V30 19 2 12 3
M  V30 20 2 10 6
M  V30 21 1 19 11
M  V30 22 1 1 20
M  V30 23 1 1 21
M  V30 24 1 1 22
M  V30 25 1 7 23
M  V30 26 1 8 24
M  V30 27 1 9 25
M  V30 28 1 15 26
M  V30 29 1 15 27
M  V30 30 1 17 28
M  V30 31 1 17 29
M  V30 32 1 17 30
M  V30 33 1 18 31
M  V30 34 1 18 32
M  V30 35 1 18 33
M  V30 36 1 19 34
M  V30 37 1 19 35
M  V30 END BOND
M  V30 END CTAB
M  END
>  <Dataset>  (389) 
ChEMBL_Kinases

>  <Ligand_Instance>  (389) 
nan

>  <PDB_ID>  (389) 
nan

>  <Standardized_SMILES>  (389) 
CSc1sc(-c2cc[nH]n2)c2c1C(=O)CC(C)(C)C2

>  <Name>  (389) 
nan

>  <Pocket>  (389) 
nan

>  <ATP_Site>  (389) 
nan

>  <Peripheral>  (389) 
nan

>  <Num_H_Atoms_ProtBoundConf>  (389) 
nan

>  <Num_Resolved_Atoms>  (389) 
nan

>  <Num_Not_Resolved_Atoms>  (389) 
nan

$$$$
CHEMBL1738702
     RDKit          3D

  0  0  0  0  0  0  0  0  0  0999 V3000
M  V30 BEGIN CTAB
M  V30 COUNTS 51 56 0 0 0
M  V30 BEGIN ATOM
M  V30 1 O 2.139203 -4.017313 0.764053 0
M  V30 2 C 2.553260 -2.837085 0.977913 0
M  V30 3 N 3.918778 -2.624574 1.329141 0
M  V30 4 C 4.511268 -1.349251 0.957597 0
M  V30 5 C 3.694253 -0.178490 1.510116 0
M  V30 6 C 3.850441 -0.244369 2.995570 0
M  V30 7 C 4.809276 0.724549 3.576514 0
M  V30 8 N 5.748326 1.234718 2.598640 0
M  V30 9 C 4.916698 2.027615 1.679337 0
M  V30 10 C 4.160197 1.056401 0.841059 0
M  V30 11 C 2.260939 -0.408677 1.140755 0
M  V30 12 N 1.241099 0.483957 0.979573 0
M  V30 13 C 0.104223 -0.158406 0.642351 0
M  V30 14 C -1.207691 0.429719 0.381101 0
M  V30 15 C -1.387849 1.797712 0.469052 0
M  V30 16 C -2.660451 2.283650 0.207483 0
M  V30 17 N -3.688686 1.461303 -0.120741 0
M  V30 18 C -3.496545 0.126603 -0.202584 0
M  V30 19 C -4.576296 -0.790703 -0.552450 0
M  V30 20 C -5.843035 -0.381750 -0.820050 0
M  V30 21 C -6.816214 -1.306203 -1.144796 0
M  V30 22 C -6.584697 -2.658318 -1.218774 0
M  V30 23 C -5.294689 -3.081159 -0.946871 0
M  V30 24 C -4.316061 -2.158355 -0.620964 0
M  V30 25 O -5.210935 -4.481250 -1.061267 0
M  V30 26 C -6.320387 -4.822542 -1.905200 0
M  V30 27 O -7.262257 -3.834028 -1.496062 0
M  V30 28 N -2.273393 -0.320402 0.050751 0
M  V30 29 C 0.372974 -1.514981 0.576943 0
M  V30 30 C 1.711415 -1.645334 0.888651 0
M  V30 31 H 4.462295 -3.367085 1.835224 0
M  V30 32 H 4.694185 -1.229065 -0.109668 0
M  V30 33 H 5.513565 -1.231531 1.458063 0
M  V30 34 H 2.838360 -0.026353 3.447398 0
M  V30 35 H 4.084956 -1.270187 3.347056 0
M  V30 36 H 4.278952 1.624767 3.979904 0
M  V30 37 H 5.317748 0.261786 4.447331 0
M  V30 38 H 6.462427 1.819006 3.061997 0
M  V30 39 H 4.213497 2.669911 2.252054 0
M  V30 40 H 5.524258 2.674894 1.029958 0
M  V30 41 H 4.810230 0.830067 -0.051637 0
M  V30 42 H 3.300189 1.626488 0.383126 0
M  V30 43 H 1.370222 1.516739 1.110221 0
M  V30 44 H -0.561665 2.444019 0.731402 0
M  V30 45 H -2.846794 3.340373 0.263983 0
M  V30 46 H -6.105006 0.676900 -0.781679 0
M  V30 47 H -7.833225 -0.985864 -1.360406 0
M  V30 48 H -3.304335 -2.474101 -0.406187 0
M  V30 49 H -6.671796 -5.854695 -1.740369 0
M  V30 50 H -6.035576 -4.685693 -2.983979 0
M  V30 51 H -0.317951 -2.300118 0.334029 0
M  V30 END ATOM
M  V30 BEGIN BOND
M  V30 1 2 1 2
M  V30 2 1 2 3
M  V30 3 1 3 4
M  V30 4 1 4 5
M  V30 5 1 5 6
M  V30 6 1 6 7
M  V30 7 1 7 8
M  V30 8 1 8 9
M  V30 9 1 9 10
M  V30 10 1 5 11
M  V30 11 1 11 12
M  V30 12 1 12 13
M  V30 13 1 13 14
M  V30 14 2 14 15
M  V30 15 1 15 16
M  V30 16 2 16 17
M  V30 17 1 17 18
M  V30 18 1 18 19
M  V30 19 2 19 20
M  V30 20 1 20 21
M  V30 21 2 21 22
M  V30 22 1 22 23
M  V30 23 2 23 24
M  V30 24 1 23 25
M  V30 25 1 25 26
M  V30 26 1 26 27
M  V30 27 2 18 28
M  V30 28 2 13 29
M  V30 29 1 29 30
M  V30 30 1 30 2
M  V30 31 1 10 5
M  V30 32 2 30 11
M  V30 33 1 28 14
M  V30 34 1 24 19
M  V30 35 1 27 22
M  V30 36 1 3 31
M  V30 37 1 4 32
M  V30 38 1 4 33
M  V30 39 1 6 34
M  V30 40 1 6 35
M  V30 41 1 7 36
M  V30 42 1 7 37
M  V30 43 1 8 38
M  V30 44 1 9 39
M  V30 45 1 9 40
M  V30 46 1 10 41
M  V30 47 1 10 42
M  V30 48 1 12 43
M  V30 49 1 15 44
M  V30 50 1 16 45
M  V30 51 1 20 46
M  V30 52 1 21 47
M  V30 53 1 24 48
M  V30 54 1 26 49
M  V30 55 1 26 50
M  V30 56 1 29 51
M  V30 END BOND
M  V30 END CTAB
M  END
>  <Dataset>  (390) 
ChEMBL_Kinases

>  <Ligand_Instance>  (390) 
nan

>  <PDB_ID>  (390) 
nan

>  <Standardized_SMILES>  (390) 
O=C1NCC2(CCNCC2)c2[nH]c(-c3ccnc(-c4ccc5c(c4)OCO5)n3)cc21

>  <Name>  (390) 
nan

>  <Pocket>  (390) 
nan

>  <ATP_Site>  (390) 
nan

>  <Peripheral>  (390) 
nan

>  <Num_H_Atoms_ProtBoundConf>  (390) 
nan

>  <Num_Resolved_Atoms>  (390) 
nan

>  <Num_Not_Resolved_Atoms>  (390) 
nan

$$$$
CHEMBL1738710
     RDKit          3D

  0  0  0  0  0  0  0  0  0  0999 V3000
M  V30 BEGIN CTAB
M  V30 COUNTS 49 51 0 0 0
M  V30 BEGIN ATOM
M  V30 1 C -0.308088 0.691573 -2.147852 0
M  V30 2 C 0.914910 0.766827 -1.340702 0
M  V30 3 C 2.068578 1.355266 -1.799943 0
M  V30 4 C 3.198355 1.391657 -0.984005 0
M  V30 5 C 3.209614 0.854616 0.284967 0
M  V30 6 C 4.447475 0.950094 1.045310 0
M  V30 7 O 5.421574 1.501030 0.485637 0
M  V30 8 N 4.644538 0.472842 2.364650 0
M  V30 9 C 5.779911 0.490024 3.222104 0
M  V30 10 C 6.989743 -0.234823 2.737800 0
M  V30 11 O 7.443428 0.289319 1.549068 0
M  V30 12 C 2.038821 0.281589 0.694485 0
M  V30 13 C 0.882644 0.216262 -0.075267 0
M  V30 14 N -0.247135 -0.426853 0.525002 0
M  V30 15 C -1.497838 0.047044 0.655406 0
M  V30 16 N -2.465137 -0.672781 1.248884 0
M  V30 17 C -2.268089 -1.897457 1.749842 0
M  V30 18 O -3.147221 -2.732625 2.370976 0
M  V30 19 C -4.493113 -2.353910 2.571157 0
M  V30 20 C -5.143931 -2.086553 1.266122 0
M  V30 21 C -5.463991 -0.891443 0.673451 0
M  V30 22 C -6.077176 -0.831231 -0.554628 0
M  V30 23 C -6.414208 -1.960417 -1.278080 0
M  V30 24 F -7.011249 -1.870913 -2.472765 0
M  V30 25 C -6.078878 -3.162198 -0.655015 0
M  V30 26 C -5.465184 -3.255008 0.572677 0
M  V30 27 F -5.218190 -4.515682 1.017274 0
M  V30 28 C -0.979211 -2.425103 1.633677 0
M  V30 29 Cl -0.554533 -4.022881 2.240392 0
M  V30 30 C 0.013523 -1.674248 1.018928 0
M  V30 31 O 1.182439 -2.186763 0.928051 0
M  V30 32 H -0.811746 1.685261 -2.127693 0
M  V30 33 H -0.095818 0.460918 -3.220928 0
M  V30 34 H -1.020626 -0.053477 -1.787703 0
M  V30 35 H 2.062346 1.778526 -2.793800 0
M  V30 36 H 4.053525 1.877462 -1.442694 0
M  V30 37 H 3.741235 0.031868 2.724314 0
M  V30 38 H 6.072809 1.544985 3.436160 0
M  V30 39 H 5.507113 0.039865 4.198969 0
M  V30 40 H 6.804842 -1.346160 2.662266 0
M  V30 41 H 7.807021 -0.138871 3.501290 0
M  V30 42 H 8.121117 -0.336068 1.142835 0
M  V30 43 H 2.025699 -0.145392 1.688061 0
M  V30 44 H -1.656409 1.030779 0.254562 0
M  V30 45 H -4.612294 -1.489698 3.255187 0
M  V30 46 H -4.994984 -3.210457 3.093896 0
M  V30 47 H -5.181554 -0.037782 1.273187 0
M  V30 48 H -6.287865 0.158829 -0.937025 0
M  V30 49 H -6.343892 -4.065292 -1.222886 0
M  V30 END ATOM
M  V30 BEGIN BOND
M  V30 1 1 1 2
M  V30 2 2 2 3
M  V30 3 1 3 4
M  V30 4 2 4 5
M  V30 5 1 5 6
M  V30 6 2 6 7
M  V30 7 1 6 8
M  V30 8 1 8 9
M  V30 9 1 9 10
M  V30 10 1 10 11
M  V30 11 1 5 12
M  V30 12 2 12 13
M  V30 13 1 13 14
M  V30 14 1 14 15
M  V30 15 2 15 16
M  V30 16 1 16 17
M  V30 17 1 17 18
M  V30 18 1 18 19
M  V30 19 1 19 20
M  V30 20 2 20 21
M  V30 21 1 21 22
M  V30 22 2 22 23
M  V30 23 1 23 24
M  V30 24 1 23 25
M  V30 25 2 25 26
M  V30 26 1 26 27
M  V30 27 2 17 28
M  V30 28 1 28 29
M  V30 29 1 28 30
M  V30 30 2 30 31
M  V30 31 1 13 2
M  V30 32 1 30 14
M  V30 33 1 26 20
M  V30 34 1 1 32
M  V30 35 1 1 33
M  V30 36 1 1 34
M  V30 37 1 3 35
M  V30 38 1 4 36
M  V30 39 1 8 37
M  V30 40 1 9 38
M  V30 41 1 9 39
M  V30 42 1 10 40
M  V30 43 1 10 41
M  V30 44 1 11 42
M  V30 45 1 12 43
M  V30 46 1 15 44
M  V30 47 1 19 45
M  V30 48 1 19 46
M  V30 49 1 21 47
M  V30 50 1 22 48
M  V30 51 1 25 49
M  V30 END BOND
M  V30 END CTAB
M  END
>  <Dataset>  (391) 
ChEMBL_Kinases

>  <Ligand_Instance>  (391) 
nan

>  <PDB_ID>  (391) 
nan

>  <Standardized_SMILES>  (391) 
Cc1ccc(C(=O)NCCO)cc1-n1cnc(OCc2ccc(F)cc2F)c(Cl)c1=O

>  <Name>  (391) 
nan

>  <Pocket>  (391) 
nan

>  <ATP_Site>  (391) 
nan

>  <Peripheral>  (391) 
nan

>  <Num_H_Atoms_ProtBoundConf>  (391) 
nan

>  <Num_Resolved_Atoms>  (391) 
nan

>  <Num_Not_Resolved_Atoms>  (391) 
nan

$$$$
CHEMBL1738839
     RDKit          3D

  0  0  0  0  0  0  0  0  0  0999 V3000
M  V30 BEGIN CTAB
M  V30 COUNTS 52 56 0 0 0
M  V30 BEGIN ATOM
M  V30 1 O 2.494849 -4.762012 0.387284 0 CHG=-1 VAL=1
M  V30 2 N 2.276466 -3.415970 0.559411 0 CHG=1 VAL=4
M  V30 3 C 3.313842 -2.594584 0.860006 0
M  V30 4 C 3.114638 -1.250384 1.035047 0
M  V30 5 C 1.872325 -0.709633 0.911317 0
M  V30 6 C 1.608961 0.636247 1.075896 0
M  V30 7 C 2.774793 1.456224 1.397738 0
M  V30 8 C 3.490428 2.004217 0.348113 0
M  V30 9 C 4.608068 2.795150 0.521061 0
M  V30 10 C 5.057147 3.068971 1.818774 0
M  V30 11 F 6.153302 3.844080 2.005431 0
M  V30 12 C 4.333553 2.515625 2.859358 0
M  V30 13 C 3.214759 1.724148 2.678660 0
M  V30 14 F 2.520183 1.191712 3.712712 0
M  V30 15 C 0.337896 1.159194 0.944596 0
M  V30 16 C -0.693443 0.294367 0.638279 0
M  V30 17 C -2.073131 0.762312 0.480290 0
M  V30 18 C -2.682818 0.435304 -0.852696 0
M  V30 19 C -4.183295 0.419583 -0.821036 0
M  V30 20 N -4.730484 1.277085 0.210596 0
M  V30 21 C -4.252577 0.966439 1.534074 0
M  V30 22 C -2.994018 0.127104 1.529946 0
M  V30 23 N -0.456938 -1.019682 0.474149 0
M  V30 24 C 0.801224 -1.532349 0.604883 0
M  V30 25 C 1.046397 -2.880295 0.436939 0
M  V30 26 C -0.032059 -3.807111 0.113147 0
M  V30 27 C -0.223142 -3.956990 -1.265362 0
M  V30 28 Cl 0.703622 -3.143785 -2.524966 0
M  V30 29 C -1.214305 -4.807266 -1.707428 0
M  V30 30 C -2.042215 -5.530540 -0.874860 0
M  V30 31 C -1.818109 -5.351993 0.487400 0
M  V30 32 C -0.835831 -4.509767 0.964642 0
M  V30 33 Cl -0.518067 -4.254125 2.667123 0
M  V30 34 H 4.308219 -3.009813 0.961774 0
M  V30 35 H 3.938354 -0.589116 1.275130 0
M  V30 36 H 3.204845 1.837307 -0.678756 0
M  V30 37 H 5.147932 3.210090 -0.313893 0
M  V30 38 H 4.675569 2.723627 3.862803 0
M  V30 39 H 0.175343 2.217034 1.081376 0
M  V30 40 H -2.190684 1.853142 0.629488 0
M  V30 41 H -2.320247 1.201652 -1.581345 0
M  V30 42 H -2.362410 -0.542364 -1.254586 0
M  V30 43 H -4.541346 0.841476 -1.784873 0
M  V30 44 H -4.626715 -0.580480 -0.714014 0
M  V30 45 H -5.766446 1.088028 0.233799 0
M  V30 46 H -4.998464 0.459671 2.173839 0
M  V30 47 H -3.959898 1.940606 2.006351 0
M  V30 48 H -3.152621 -0.905962 1.201101 0
M  V30 49 H -2.493528 0.244513 2.491117 0
M  V30 50 H -1.405623 -4.960736 -2.773654 0
M  V30 51 H -2.814726 -6.193021 -1.240614 0
M  V30 52 H -2.425239 -5.883476 1.198120 0
M  V30 END ATOM
M  V30 BEGIN BOND
M  V30 1 1 1 2
M  V30 2 2 2 3
M  V30 3 1 3 4
M  V30 4 2 4 5
M  V30 5 1 5 6
M  V30 6 1 6 7
M  V30 7 2 7 8
M  V30 8 1 8 9
M  V30 9 2 9 10
M  V30 10 1 10 11
M  V30 11 1 10 12
M  V30 12 2 12 13
M  V30 13 1 13 14
M  V30 14 2 6 15
M  V30 15 1 15 16
M  V30 16 1 16 17
M  V30 17 1 17 18
M  V30 18 1 18 19
M  V30 19 1 19 20
M  V30 20 1 20 21
M  V30 21 1 21 22
M  V30 22 2 16 23
M  V30 23 1 23 24
M  V30 24 2 24 25
M  V30 25 1 25 26
M  V30 26 2 26 27
M  V30 27 1 27 28
M  V30 28 1 27 29
M  V30 29 2 29 30
M  V30 30 1 30 31
M  V30 31 2 31 32
M  V30 32 1 32 33
M  V30 33 1 25 2
M  V30 34 1 32 26
M  V30 35 1 24 5
M  V30 36 1 13 7
M  V30 37 1 22 17
M  V30 38 1 3 34
M  V30 39 1 4 35
M  V30 40 1 8 36
M  V30 41 1 9 37
M  V30 42 1 12 38
M  V30 43 1 15 39
M  V30 44 1 17 40
M  V30 45 1 18 41
M  V30 46 1 18 42
M  V30 47 1 19 43
M  V30 48 1 19 44
M  V30 49 1 20 45
M  V30 50 1 21 46
M  V30 51 1 21 47
M  V30 52 1 22 48
M  V30 53 1 22 49
M  V30 54 1 29 50
M  V30 55 1 30 51
M  V30 56 1 31 52
M  V30 END BOND
M  V30 END CTAB
M  END
>  <Dataset>  (392) 
ChEMBL_Kinases

>  <Ligand_Instance>  (392) 
nan

>  <PDB_ID>  (392) 
nan

>  <Standardized_SMILES>  (392) 
[O-][n+]1ccc2c(-c3ccc(F)cc3F)cc(C3CCNCC3)nc2c1-c1c(Cl)cccc1Cl

>  <Name>  (392) 
nan

>  <Pocket>  (392) 
nan

>  <ATP_Site>  (392) 
nan

>  <Peripheral>  (392) 
nan

>  <Num_H_Atoms_ProtBoundConf>  (392) 
nan

>  <Num_Resolved_Atoms>  (392) 
nan

>  <Num_Not_Resolved_Atoms>  (392) 
nan

$$$$
CHEMBL1730100
     RDKit          3D

  0  0  0  0  0  0  0  0  0  0999 V3000
M  V30 BEGIN CTAB
M  V30 COUNTS 34 37 0 0 0
M  V30 BEGIN ATOM
M  V30 1 O -0.410614 -4.177911 4.643900 0
M  V30 2 C -0.363277 -3.331383 3.720271 0
M  V30 3 C 0.681955 -3.422942 2.679331 0
M  V30 4 C 0.669847 -2.495075 1.736479 0
M  V30 5 C -0.309974 -1.425458 1.697157 0
M  V30 6 C -0.347062 -0.524417 0.766965 0
M  V30 7 C 0.480506 -0.309559 -0.415523 0
M  V30 8 C 1.105228 -1.226063 -1.265918 0
M  V30 9 C 1.867257 -0.753707 -2.342912 0
M  V30 10 O 2.531949 -1.566834 -3.250316 0
M  V30 11 C 1.960305 0.632409 -2.509138 0
M  V30 12 O 2.699197 1.206938 -3.555890 0
M  V30 13 C 1.333246 1.546407 -1.657524 0
M  V30 14 C 0.583721 1.077310 -0.597960 0
M  V30 15 C -0.231630 1.731357 0.492447 0
M  V30 16 C -1.295031 0.630299 0.697126 0
M  V30 17 O -2.001315 0.567084 -0.501059 0
M  V30 18 C -2.120220 0.813401 1.898493 0
M  V30 19 O -2.297247 -0.318459 2.715793 0
M  V30 20 C -1.351879 -1.336544 2.737970 0
M  V30 21 C -1.370629 -2.254438 3.704779 0
M  V30 22 O -2.338441 -2.199461 4.700055 0
M  V30 23 H 1.378796 -4.242473 2.766838 0
M  V30 24 H 1.455652 -2.589813 1.013996 0
M  V30 25 H 1.036646 -2.294772 -1.173114 0
M  V30 26 H 1.995744 -1.960717 -4.037692 0
M  V30 27 H 3.229383 0.632411 -4.193981 0
M  V30 28 H 1.429726 2.610247 -1.820667 0
M  V30 29 H 0.352552 1.758860 1.414932 0
M  V30 30 H -0.688863 2.669412 0.176662 0
M  V30 31 H -2.052407 1.505285 -0.869647 0
M  V30 32 H -3.161881 1.087956 1.562892 0
M  V30 33 H -1.788046 1.705655 2.480545 0
M  V30 34 H -2.664799 -1.288489 5.042953 0
M  V30 END ATOM
M  V30 BEGIN BOND
M  V30 1 2 1 2
M  V30 2 1 2 3
M  V30 3 2 3 4
M  V30 4 1 4 5
M  V30 5 2 5 6
M  V30 6 1 6 7
M  V30 7 2 7 8
M  V30 8 1 8 9
M  V30 9 1 9 10
M  V30 10 2 9 11
M  V30 11 1 11 12
M  V30 12 1 11 13
M  V30 13 2 13 14
M  V30 14 1 14 15
M  V30 15 1 15 16
M  V30 16 1 16 17
M  V30 17 1 16 18
M  V30 18 1 18 19
M  V30 19 1 19 20
M  V30 20 2 20 21
M  V30 21 1 21 22
M  V30 22 1 21 2
M  V30 23 1 20 5
M  V30 24 1 16 6
M  V30 25 1 14 7
M  V30 26 1 3 23
M  V30 27 1 4 24
M  V30 28 1 8 25
M  V30 29 1 10 26
M  V30 30 1 12 27
M  V30 31 1 13 28
M  V30 32 1 15 29
M  V30 33 1 15 30
M  V30 34 1 17 31
M  V30 35 1 18 32
M  V30 36 1 18 33
M  V30 37 1 22 34
M  V30 END BOND
M  V30 END CTAB
M  END
>  <Dataset>  (393) 
ChEMBL_Kinases

>  <Ligand_Instance>  (393) 
nan

>  <PDB_ID>  (393) 
nan

>  <Standardized_SMILES>  (393) 
O=C1C=CC2=C3c4cc(O)c(O)cc4CC3(O)COC2=C1O

>  <Name>  (393) 
nan

>  <Pocket>  (393) 
nan

>  <ATP_Site>  (393) 
nan

>  <Peripheral>  (393) 
nan

>  <Num_H_Atoms_ProtBoundConf>  (393) 
nan

>  <Num_Resolved_Atoms>  (393) 
nan

>  <Num_Not_Resolved_Atoms>  (393) 
nan

$$$$
CHEMBL1760636
     RDKit          3D

  0  0  0  0  0  0  0  0  0  0999 V3000
M  V30 BEGIN CTAB
M  V30 COUNTS 47 49 0 0 0
M  V30 BEGIN ATOM
M  V30 1 C 4.555918 -5.033403 -0.727781 0
M  V30 2 C 3.442205 -4.064950 -0.887652 0
M  V30 3 O 3.472218 -3.195360 0.043916 0
M  V30 4 N 2.449160 -4.068946 -1.928346 0
M  V30 5 C 1.495018 -3.008312 -1.826862 0
M  V30 6 N 0.341146 -3.174541 -1.116204 0
M  V30 7 C -0.381723 -2.041739 -1.173257 0
M  V30 8 C -1.591473 -1.602665 -0.677390 0
M  V30 9 C -2.075864 -0.334855 -0.922346 0
M  V30 10 C -1.356904 0.586205 -1.697165 0
M  V30 11 C -1.738442 1.958075 -2.041801 0
M  V30 12 C -1.189854 3.074946 -1.219285 0
M  V30 13 N -1.446532 3.105930 0.168319 0
M  V30 14 C -1.111637 2.302825 1.284323 0
M  V30 15 O -0.382315 1.301003 1.078767 0
M  V30 16 N -1.481806 2.460486 2.626058 0
M  V30 17 C -0.978272 1.468236 3.545948 0
M  V30 18 C 0.230726 1.652844 4.178575 0
M  V30 19 C 0.652248 0.648693 5.054954 0
M  V30 20 C -0.156803 -0.456461 5.234184 0
M  V30 21 C 0.240774 -1.559506 6.155845 0
M  V30 22 C -1.370879 -0.635044 4.594817 0
M  V30 23 Cl -2.376060 -2.049569 4.843265 0
M  V30 24 C -1.794273 0.362921 3.720996 0
M  V30 25 C -0.135455 0.100898 -2.180796 0
M  V30 26 C 0.353584 -1.170602 -1.936921 0
M  V30 27 N 1.495208 -1.760091 -2.333927 0
M  V30 28 H 5.562594 -4.533484 -0.690549 0
M  V30 29 H 4.432309 -5.488720 0.291458 0
M  V30 30 H 4.592154 -5.793882 -1.512492 0
M  V30 31 H 2.543399 -4.839890 -2.627901 0
M  V30 32 H -2.185691 -2.270533 -0.074927 0
M  V30 33 H -3.016481 0.039638 -0.549612 0
M  V30 34 H -2.862092 2.058289 -2.082781 0
M  V30 35 H -1.350264 2.145604 -3.093072 0
M  V30 36 H -1.638772 4.016209 -1.662850 0
M  V30 37 H -0.084202 3.220047 -1.423476 0
M  V30 38 H -2.038124 3.908601 0.555920 0
M  V30 39 H -2.101588 3.299465 2.843336 0
M  V30 40 H 0.827820 2.526377 4.010966 0
M  V30 41 H 1.592749 0.718607 5.592282 0
M  V30 42 H -0.621821 -1.980882 6.694398 0
M  V30 43 H 0.973423 -1.109940 6.877954 0
M  V30 44 H 0.799326 -2.345855 5.609565 0
M  V30 45 H -2.738725 0.252166 3.206131 0
M  V30 46 H 0.472681 0.761936 -2.788181 0
M  V30 47 H 2.271478 -1.395043 -2.914807 0
M  V30 END ATOM
M  V30 BEGIN BOND
M  V30 1 1 1 2
M  V30 2 2 2 3
M  V30 3 1 2 4
M  V30 4 1 4 5
M  V30 5 2 5 6
M  V30 6 1 6 7
M  V30 7 2 7 8
M  V30 8 1 8 9
M  V30 9 2 9 10
M  V30 10 1 10 11
M  V30 11 1 11 12
M  V30 12 1 12 13
M  V30 13 1 13 14
M  V30 14 2 14 15
M  V30 15 1 14 16
M  V30 16 1 16 17
M  V30 17 2 17 18
M  V30 18 1 18 19
M  V30 19 2 19 20
M  V30 20 1 20 21
M  V30 21 1 20 22
M  V30 22 1 22 23
M  V30 23 2 22 24
M  V30 24 1 10 25
M  V30 25 2 25 26
M  V30 26 1 26 27
M  V30 27 1 27 5
M  V30 28 1 26 7
M  V30 29 1 24 17
M  V30 30 1 1 28
M  V30 31 1 1 29
M  V30 32 1 1 30
M  V30 33 1 4 31
M  V30 34 1 8 32
M  V30 35 1 9 33
M  V30 36 1 11 34
M  V30 37 1 11 35
M  V30 38 1 12 36
M  V30 39 1 12 37
M  V30 40 1 13 38
M  V30 41 1 16 39
M  V30 42 1 18 40
M  V30 43 1 19 41
M  V30 44 1 21 42
M  V30 45 1 21 43
M  V30 46 1 21 44
M  V30 47 1 24 45
M  V30 48 1 25 46
M  V30 49 1 27 47
M  V30 END BOND
M  V30 END CTAB
M  END
>  <Dataset>  (394) 
ChEMBL_Kinases

>  <Ligand_Instance>  (394) 
nan

>  <PDB_ID>  (394) 
nan

>  <Standardized_SMILES>  (394) 
CC(=O)Nc1nc2ccc(CCNC(=O)Nc3ccc(C)c(Cl)c3)cc2[nH]1

>  <Name>  (394) 
nan

>  <Pocket>  (394) 
nan

>  <ATP_Site>  (394) 
nan

>  <Peripheral>  (394) 
nan

>  <Num_H_Atoms_ProtBoundConf>  (394) 
nan

>  <Num_Resolved_Atoms>  (394) 
nan

>  <Num_Not_Resolved_Atoms>  (394) 
nan

$$$$
CHEMBL1760635
     RDKit          3D

  0  0  0  0  0  0  0  0  0  0999 V3000
M  V30 BEGIN CTAB
M  V30 COUNTS 44 46 0 0 0
M  V30 BEGIN ATOM
M  V30 1 C -0.667502 -6.783019 -3.678680 0
M  V30 2 C -0.389975 -5.365553 -3.377156 0
M  V30 3 O -0.370383 -5.245016 -2.106905 0
M  V30 4 N -0.161550 -4.215841 -4.163488 0
M  V30 5 C 0.079876 -2.976441 -3.514417 0
M  V30 6 N 1.338268 -2.589460 -3.190852 0
M  V30 7 C 1.283449 -1.379335 -2.586804 0
M  V30 8 C 2.183072 -0.488599 -2.046154 0
M  V30 9 C 1.793811 0.695485 -1.489412 0
M  V30 10 C 0.473056 1.081977 -1.429570 0
M  V30 11 C -0.090445 2.310761 -0.865357 0
M  V30 12 C -0.471572 2.212096 0.593160 0
M  V30 13 N 0.685162 1.888854 1.405122 0
M  V30 14 C 0.348773 1.790709 2.781143 0
M  V30 15 O -0.845360 1.991814 3.055388 0
M  V30 16 N 1.247305 1.491613 3.814632 0
M  V30 17 C 1.024623 1.369210 5.207325 0
M  V30 18 C 2.080660 1.063761 6.035568 0
M  V30 19 C 1.936310 0.929658 7.397701 0
M  V30 20 C 0.714665 1.096078 8.007838 0
M  V30 21 Cl 0.539131 0.923944 9.740196 0
M  V30 22 C -0.349161 1.399075 7.212968 0
M  V30 23 Cl -1.913973 1.616245 7.960928 0
M  V30 24 C -0.170955 1.524289 5.869799 0
M  V30 25 C -0.449775 0.206062 -1.965184 0
M  V30 26 C -0.032382 -0.994057 -2.527181 0
M  V30 27 N -0.752989 -1.990651 -3.102903 0
M  V30 28 H 0.048446 -7.462039 -3.158972 0
M  V30 29 H -1.683208 -7.098429 -3.367300 0
M  V30 30 H -0.508425 -6.986732 -4.766716 0
M  V30 31 H -0.213263 -4.495578 -5.172153 0
M  V30 32 H 3.234463 -0.738848 -2.064799 0
M  V30 33 H 2.498997 1.395962 -1.066303 0
M  V30 34 H -0.987360 2.639892 -1.435594 0
M  V30 35 H 0.671442 3.125945 -0.936158 0
M  V30 36 H -1.258185 1.425397 0.662455 0
M  V30 37 H -0.917731 3.185443 0.870675 0
M  V30 38 H 1.704570 1.718159 1.165013 0
M  V30 39 H 2.221250 1.343601 3.456670 0
M  V30 40 H 3.067564 0.922387 5.600824 0
M  V30 41 H 2.818658 0.688457 7.972186 0
M  V30 42 H -1.055029 1.765039 5.301935 0
M  V30 43 H -1.522294 0.408461 -1.972815 0
M  V30 44 H -1.784148 -2.071596 -3.249067 0
M  V30 END ATOM
M  V30 BEGIN BOND
M  V30 1 1 1 2
M  V30 2 2 2 3
M  V30 3 1 2 4
M  V30 4 1 4 5
M  V30 5 2 5 6
M  V30 6 1 6 7
M  V30 7 2 7 8
M  V30 8 1 8 9
M  V30 9 2 9 10
M  V30 10 1 10 11
M  V30 11 1 11 12
M  V30 12 1 12 13
M  V30 13 1 13 14
M  V30 14 2 14 15
M  V30 15 1 14 16
M  V30 16 1 16 17
M  V30 17 2 17 18
M  V30 18 1 18 19
M  V30 19 2 19 20
M  V30 20 1 20 21
M  V30 21 1 20 22
M  V30 22 1 22 23
M  V30 23 2 22 24
M  V30 24 1 10 25
M  V30 25 2 25 26
M  V30 26 1 26 27
M  V30 27 1 27 5
M  V30 28 1 26 7
M  V30 29 1 24 17
M  V30 30 1 1 28
M  V30 31 1 1 29
M  V30 32 1 1 30
M  V30 33 1 4 31
M  V30 34 1 8 32
M  V30 35 1 9 33
M  V30 36 1 11 34
M  V30 37 1 11 35
M  V30 38 1 12 36
M  V30 39 1 12 37
M  V30 40 1 13 38
M  V30 41 1 16 39
M  V30 42 1 18 40
M  V30 43 1 19 41
M  V30 44 1 24 42
M  V30 45 1 25 43
M  V30 46 1 27 44
M  V30 END BOND
M  V30 END CTAB
M  END
>  <Dataset>  (395) 
ChEMBL_Kinases

>  <Ligand_Instance>  (395) 
nan

>  <PDB_ID>  (395) 
nan

>  <Standardized_SMILES>  (395) 
CC(=O)Nc1nc2ccc(CCNC(=O)Nc3ccc(Cl)c(Cl)c3)cc2[nH]1

>  <Name>  (395) 
nan

>  <Pocket>  (395) 
nan

>  <ATP_Site>  (395) 
nan

>  <Peripheral>  (395) 
nan

>  <Num_H_Atoms_ProtBoundConf>  (395) 
nan

>  <Num_Resolved_Atoms>  (395) 
nan

>  <Num_Not_Resolved_Atoms>  (395) 
nan

$$$$
CHEMBL1760634
     RDKit          3D

  0  0  0  0  0  0  0  0  0  0999 V3000
M  V30 BEGIN CTAB
M  V30 COUNTS 47 49 0 0 0
M  V30 BEGIN ATOM
M  V30 1 C 0.191695 -6.296698 4.306603 0
M  V30 2 C 0.531455 -4.885403 4.084196 0
M  V30 3 O -0.253886 -3.979751 4.465537 0
M  V30 4 N 1.731506 -4.432651 3.442992 0
M  V30 5 C 2.043889 -3.055940 3.236115 0
M  V30 6 N 2.728329 -2.269667 4.104434 0
M  V30 7 C 2.840881 -1.017461 3.581870 0
M  V30 8 C 3.416151 0.174050 3.997276 0
M  V30 9 C 3.354851 1.316342 3.200960 0
M  V30 10 C 2.709558 1.271465 1.969668 0
M  V30 11 C 2.636657 2.479927 1.111556 0
M  V30 12 C 1.426712 3.314533 1.380192 0
M  V30 13 N 0.171034 2.647253 1.174876 0
M  V30 14 C -0.186228 2.118143 -0.091811 0
M  V30 15 O 0.656433 2.272057 -1.003635 0
M  V30 16 N -1.400507 1.450251 -0.367997 0
M  V30 17 C -1.848896 0.892010 -1.581115 0
M  V30 18 C -1.194079 0.872288 -2.786914 0
M  V30 19 C -1.687466 0.308402 -3.942108 0
M  V30 20 C -2.916541 -0.284663 -3.925642 0
M  V30 21 C -3.606142 -0.287261 -2.739107 0
M  V30 22 C -4.942505 -0.914023 -2.656724 0
M  V30 23 F -5.307681 -1.395662 -3.878646 0
M  V30 24 F -5.005368 -1.950211 -1.739816 0
M  V30 25 F -5.914914 -0.004534 -2.273372 0
M  V30 26 C -3.080295 0.286142 -1.606271 0
M  V30 27 C 2.148349 0.065161 1.590434 0
M  V30 28 C 2.195105 -1.088363 2.365049 0
M  V30 29 N 1.710535 -2.325089 2.153246 0
M  V30 30 H 0.051067 -6.477092 5.411329 0
M  V30 31 H 0.949179 -6.976190 3.908383 0
M  V30 32 H -0.771137 -6.597773 3.843621 0
M  V30 33 H 2.373419 -5.206984 3.132360 0
M  V30 34 H 3.896859 0.123642 4.964205 0
M  V30 35 H 3.819048 2.221667 3.569410 0
M  V30 36 H 3.519955 3.097104 1.375199 0
M  V30 37 H 2.739717 2.245535 0.041202 0
M  V30 38 H 1.477577 4.178858 0.673026 0
M  V30 39 H 1.497081 3.757023 2.387877 0
M  V30 40 H -0.516452 2.538252 1.975405 0
M  V30 41 H -2.001807 1.396097 0.481435 0
M  V30 42 H -0.223927 1.323055 -2.861829 0
M  V30 43 H -1.133814 0.321543 -4.855293 0
M  V30 44 H -3.377504 -0.748877 -4.781625 0
M  V30 45 H -3.679391 0.253912 -0.682341 0
M  V30 46 H 1.637760 -0.013973 0.642005 0
M  V30 47 H 1.183826 -2.660718 1.325379 0
M  V30 END ATOM
M  V30 BEGIN BOND
M  V30 1 1 1 2
M  V30 2 2 2 3
M  V30 3 1 2 4
M  V30 4 1 4 5
M  V30 5 2 5 6
M  V30 6 1 6 7
M  V30 7 2 7 8
M  V30 8 1 8 9
M  V30 9 2 9 10
M  V30 10 1 10 11
M  V30 11 1 11 12
M  V30 12 1 12 13
M  V30 13 1 13 14
M  V30 14 2 14 15
M  V30 15 1 14 16
M  V30 16 1 16 17
M  V30 17 2 17 18
M  V30 18 1 18 19
M  V30 19 2 19 20
M  V30 20 1 20 21
M  V30 21 1 21 22
M  V30 22 1 22 23
M  V30 23 1 22 24
M  V30 24 1 22 25
M  V30 25 2 21 26
M  V30 26 1 10 27
M  V30 27 2 27 28
M  V30 28 1 28 29
M  V30 29 1 29 5
M  V30 30 1 28 7
M  V30 31 1 26 17
M  V30 32 1 1 30
M  V30 33 1 1 31
M  V30 34 1 1 32
M  V30 35 1 4 33
M  V30 36 1 8 34
M  V30 37 1 9 35
M  V30 38 1 11 36
M  V30 39 1 11 37
M  V30 40 1 12 38
M  V30 41 1 12 39
M  V30 42 1 13 40
M  V30 43 1 16 41
M  V30 44 1 18 42
M  V30 45 1 19 43
M  V30 46 1 20 44
M  V30 47 1 26 45
M  V30 48 1 27 46
M  V30 49 1 29 47
M  V30 END BOND
M  V30 END CTAB
M  END
>  <Dataset>  (396) 
ChEMBL_Kinases

>  <Ligand_Instance>  (396) 
nan

>  <PDB_ID>  (396) 
nan

>  <Standardized_SMILES>  (396) 
CC(=O)Nc1nc2ccc(CCNC(=O)Nc3cccc(C(F)(F)F)c3)cc2[nH]1

>  <Name>  (396) 
nan

>  <Pocket>  (396) 
nan

>  <ATP_Site>  (396) 
nan

>  <Peripheral>  (396) 
nan

>  <Num_H_Atoms_ProtBoundConf>  (396) 
nan

>  <Num_Resolved_Atoms>  (396) 
nan

>  <Num_Not_Resolved_Atoms>  (396) 
nan

$$$$
CHEMBL1760633
     RDKit          3D

  0  0  0  0  0  0  0  0  0  0999 V3000
M  V30 BEGIN CTAB
M  V30 COUNTS 47 49 0 0 0
M  V30 BEGIN ATOM
M  V30 1 C -0.522838 -4.623241 5.936674 0
M  V30 2 C -0.007135 -3.751216 4.849157 0
M  V30 3 O -0.759445 -3.529108 3.868453 0
M  V30 4 N 1.278639 -3.161883 4.860583 0
M  V30 5 C 1.808981 -2.324292 3.843894 0
M  V30 6 N 3.043484 -1.780949 3.893512 0
M  V30 7 C 3.253214 -1.041953 2.790884 0
M  V30 8 C 4.298329 -0.279948 2.313985 0
M  V30 9 C 4.183044 0.378393 1.091196 0
M  V30 10 C 3.020720 0.291007 0.315814 0
M  V30 11 C 3.089356 1.058071 -0.954272 0
M  V30 12 C 2.618646 2.484061 -0.791982 0
M  V30 13 N 1.241719 2.457376 -0.346586 0
M  V30 14 C 0.123669 1.901093 -1.012315 0
M  V30 15 O 0.290910 1.355778 -2.125837 0
M  V30 16 N -1.174444 1.942592 -0.458570 0
M  V30 17 C -2.278553 1.384138 -1.133581 0
M  V30 18 C -3.139010 1.961032 -2.031464 0
M  V30 19 C -4.168745 1.207774 -2.575632 0
M  V30 20 C -4.332116 -0.115925 -2.219577 0
M  V30 21 Cl -5.662560 -1.017769 -2.948883 0
M  V30 22 C -3.483372 -0.726580 -1.318628 0
M  V30 23 C -3.711124 -2.141094 -0.980542 0
M  V30 24 F -2.788279 -2.614608 -0.070872 0
M  V30 25 F -4.969394 -2.204072 -0.386331 0
M  V30 26 F -3.704744 -2.870637 -2.154674 0
M  V30 27 C -2.454403 0.041073 -0.780359 0
M  V30 28 C 1.988882 -0.475137 0.810171 0
M  V30 29 C 2.111950 -1.122912 2.021109 0
M  V30 30 N 1.267650 -1.913647 2.707276 0
M  V30 31 H -0.709489 -5.656256 5.559355 0
M  V30 32 H -1.504810 -4.171797 6.259631 0
M  V30 33 H 0.214718 -4.600612 6.747129 0
M  V30 34 H 1.823508 -3.405717 5.713419 0
M  V30 35 H 5.197621 -0.212980 2.915003 0
M  V30 36 H 5.064841 0.947195 0.816176 0
M  V30 37 H 4.117702 1.010147 -1.377744 0
M  V30 38 H 2.413084 0.540347 -1.668108 0
M  V30 39 H 2.651473 2.973991 -1.787248 0
M  V30 40 H 3.263456 3.012294 -0.090219 0
M  V30 41 H 1.020452 2.903020 0.589646 0
M  V30 42 H -1.333099 2.394599 0.471735 0
M  V30 43 H -2.910749 3.004181 -2.232716 0
M  V30 44 H -4.791312 1.745104 -3.269332 0
M  V30 45 H -1.836506 -0.534380 -0.076373 0
M  V30 46 H 1.129091 -0.516773 0.192529 0
M  V30 47 H 0.317072 -2.144051 2.346111 0
M  V30 END ATOM
M  V30 BEGIN BOND
M  V30 1 1 1 2
M  V30 2 2 2 3
M  V30 3 1 2 4
M  V30 4 1 4 5
M  V30 5 2 5 6
M  V30 6 1 6 7
M  V30 7 2 7 8
M  V30 8 1 8 9
M  V30 9 2 9 10
M  V30 10 1 10 11
M  V30 11 1 11 12
M  V30 12 1 12 13
M  V30 13 1 13 14
M  V30 14 2 14 15
M  V30 15 1 14 16
M  V30 16 1 16 17
M  V30 17 2 17 18
M  V30 18 1 18 19
M  V30 19 2 19 20
M  V30 20 1 20 21
M  V30 21 1 20 22
M  V30 22 1 22 23
M  V30 23 1 23 24
M  V30 24 1 23 25
M  V30 25 1 23 26
M  V30 26 2 22 27
M  V30 27 1 10 28
M  V30 28 2 28 29
M  V30 29 1 29 30
M  V30 30 1 30 5
M  V30 31 1 29 7
M  V30 32 1 27 17
M  V30 33 1 1 31
M  V30 34 1 1 32
M  V30 35 1 1 33
M  V30 36 1 4 34
M  V30 37 1 8 35
M  V30 38 1 9 36
M  V30 39 1 11 37
M  V30 40 1 11 38
M  V30 41 1 12 39
M  V30 42 1 12 40
M  V30 43 1 13 41
M  V30 44 1 16 42
M  V30 45 1 18 43
M  V30 46 1 19 44
M  V30 47 1 27 45
M  V30 48 1 28 46
M  V30 49 1 30 47
M  V30 END BOND
M  V30 END CTAB
M  END
>  <Dataset>  (397) 
ChEMBL_Kinases

>  <Ligand_Instance>  (397) 
nan

>  <PDB_ID>  (397) 
nan

>  <Standardized_SMILES>  (397) 
CC(=O)Nc1nc2ccc(CCNC(=O)Nc3ccc(Cl)c(C(F)(F)F)c3)cc2[nH]1

>  <Name>  (397) 
nan

>  <Pocket>  (397) 
nan

>  <ATP_Site>  (397) 
nan

>  <Peripheral>  (397) 
nan

>  <Num_H_Atoms_ProtBoundConf>  (397) 
nan

>  <Num_Resolved_Atoms>  (397) 
nan

>  <Num_Not_Resolved_Atoms>  (397) 
nan

$$$$
CHEMBL1760632
     RDKit          3D

  0  0  0  0  0  0  0  0  0  0999 V3000
M  V30 BEGIN CTAB
M  V30 COUNTS 48 50 0 0 0
M  V30 BEGIN ATOM
M  V30 1 C 1.694906 -5.103511 5.600964 0
M  V30 2 O 2.191415 -5.098749 4.254316 0
M  V30 3 C 2.379172 -3.912899 3.570817 0
M  V30 4 O 2.072923 -2.903156 4.252428 0
M  V30 5 N 2.869345 -3.872862 2.236103 0
M  V30 6 C 3.030287 -2.600670 1.612500 0
M  V30 7 N 4.087937 -1.760904 1.579665 0
M  V30 8 C 3.788144 -0.661792 0.866203 0
M  V30 9 C 4.435095 0.499722 0.495931 0
M  V30 10 C 3.752095 1.433042 -0.280487 0
M  V30 11 C 2.435140 1.272722 -0.718146 0
M  V30 12 C 1.813862 2.328877 -1.536585 0
M  V30 13 C 1.099265 3.386298 -0.696230 0
M  V30 14 N 0.045523 2.823075 0.102729 0
M  V30 15 C -1.031079 2.156835 -0.519954 0
M  V30 16 O -1.176170 1.994842 -1.748310 0
M  V30 17 N -2.032582 1.628845 0.355340 0
M  V30 18 C -3.218837 0.919936 0.068927 0
M  V30 19 C -4.491630 1.397381 -0.167371 0
M  V30 20 C -5.517556 0.513071 -0.430556 0
M  V30 21 C -5.336536 -0.857665 -0.471599 0
M  V30 22 Cl -6.666940 -1.938663 -0.809112 0
M  V30 23 C -4.046690 -1.343711 -0.232264 0
M  V30 24 C -3.884968 -2.814812 -0.283000 0
M  V30 25 F -4.707384 -3.363198 0.677489 0
M  V30 26 F -4.150989 -3.325027 -1.525238 0
M  V30 27 F -2.575504 -3.098246 0.084916 0
M  V30 28 C -3.009144 -0.460837 0.033248 0
M  V30 29 C 1.841889 0.094104 -0.317252 0
M  V30 30 C 2.490261 -0.850713 0.451595 0
M  V30 31 N 2.022673 -2.034128 0.905106 0
M  V30 32 H 0.746135 -4.505698 5.615176 0
M  V30 33 H 2.408822 -4.559606 6.244143 0
M  V30 34 H 1.476896 -6.125496 5.911580 0
M  V30 35 H 3.085777 -4.806577 1.786803 0
M  V30 36 H 5.436969 0.644660 0.816437 0
M  V30 37 H 4.318899 2.314720 -0.531387 0
M  V30 38 H 1.098052 1.935665 -2.283194 0
M  V30 39 H 2.641940 2.875671 -2.066394 0
M  V30 40 H 0.664443 4.090763 -1.464632 0
M  V30 41 H 1.815264 3.954284 -0.075922 0
M  V30 42 H 0.099507 2.920254 1.144868 0
M  V30 43 H -2.046171 1.687235 1.405765 0
M  V30 44 H -4.563567 2.464617 -0.121131 0
M  V30 45 H -6.484519 0.953210 -0.605638 0
M  V30 46 H -2.051041 -0.962351 0.202978 0
M  V30 47 H 0.823868 -0.068706 -0.634639 0
M  V30 48 H 1.068829 -2.427067 0.737739 0
M  V30 END ATOM
M  V30 BEGIN BOND
M  V30 1 1 1 2
M  V30 2 1 2 3
M  V30 3 2 3 4
M  V30 4 1 3 5
M  V30 5 1 5 6
M  V30 6 2 6 7
M  V30 7 1 7 8
M  V30 8 2 8 9
M  V30 9 1 9 10
M  V30 10 2 10 11
M  V30 11 1 11 12
M  V30 12 1 12 13
M  V30 13 1 13 14
M  V30 14 1 14 15
M  V30 15 2 15 16
M  V30 16 1 15 17
M  V30 17 1 17 18
M  V30 18 2 18 19
M  V30 19 1 19 20
M  V30 20 2 20 21
M  V30 21 1 21 22
M  V30 22 1 21 23
M  V30 23 1 23 24
M  V30 24 1 24 25
M  V30 25 1 24 26
M  V30 26 1 24 27
M  V30 27 2 23 28
M  V30 28 1 11 29
M  V30 29 2 29 30
M  V30 30 1 30 31
M  V30 31 1 31 6
M  V30 32 1 30 8
M  V30 33 1 28 18
M  V30 34 1 1 32
M  V30 35 1 1 33
M  V30 36 1 1 34
M  V30 37 1 5 35
M  V30 38 1 9 36
M  V30 39 1 10 37
M  V30 40 1 12 38
M  V30 41 1 12 39
M  V30 42 1 13 40
M  V30 43 1 13 41
M  V30 44 1 14 42
M  V30 45 1 17 43
M  V30 46 1 19 44
M  V30 47 1 20 45
M  V30 48 1 28 46
M  V30 49 1 29 47
M  V30 50 1 31 48
M  V30 END BOND
M  V30 END CTAB
M  END
>  <Dataset>  (398) 
ChEMBL_Kinases

>  <Ligand_Instance>  (398) 
nan

>  <PDB_ID>  (398) 
nan

>  <Standardized_SMILES>  (398) 
COC(=O)Nc1nc2ccc(CCNC(=O)Nc3ccc(Cl)c(C(F)(F)F)c3)cc2[nH]1

>  <Name>  (398) 
nan

>  <Pocket>  (398) 
nan

>  <ATP_Site>  (398) 
nan

>  <Peripheral>  (398) 
nan

>  <Num_H_Atoms_ProtBoundConf>  (398) 
nan

>  <Num_Resolved_Atoms>  (398) 
nan

>  <Num_Not_Resolved_Atoms>  (398) 
nan

$$$$
CHEMBL1760631
     RDKit          3D

  0  0  0  0  0  0  0  0  0  0999 V3000
M  V30 BEGIN CTAB
M  V30 COUNTS 47 49 0 0 0
M  V30 BEGIN ATOM
M  V30 1 C 0.441490 -5.664662 4.348544 0
M  V30 2 N 0.758515 -4.486649 3.587151 0
M  V30 3 C 2.008207 -3.860787 3.861886 0
M  V30 4 O 2.863026 -4.259534 4.724022 0
M  V30 5 C 2.379060 -2.657911 3.114039 0
M  V30 6 N 3.517550 -1.954582 3.255573 0
M  V30 7 C 3.529146 -0.892719 2.397123 0
M  V30 8 C 4.384957 0.146094 2.087625 0
M  V30 9 C 4.055109 1.077240 1.121333 0
M  V30 10 C 2.847174 1.010299 0.417345 0
M  V30 11 C 2.532444 2.032212 -0.613560 0
M  V30 12 C 1.788547 3.235754 -0.020173 0
M  V30 13 N 0.542105 2.875170 0.584995 0
M  V30 14 C -0.506602 2.257010 -0.152529 0
M  V30 15 O -0.358849 2.003615 -1.396979 0
M  V30 16 N -1.743379 1.896757 0.438023 0
M  V30 17 C -2.749376 1.276164 -0.378396 0
M  V30 18 C -3.768941 1.824189 -1.129361 0
M  V30 19 C -4.592147 0.989543 -1.818609 0
M  V30 20 C -4.457757 -0.379421 -1.803804 0
M  V30 21 Cl -5.574122 -1.358975 -2.728600 0
M  V30 22 C -3.442686 -0.942014 -1.057247 0
M  V30 23 C -3.331580 -2.425504 -1.067838 0
M  V30 24 F -3.123949 -2.767902 -2.404495 0
M  V30 25 F -2.318455 -2.878176 -0.268282 0
M  V30 26 F -4.529133 -3.028620 -0.712574 0
M  V30 27 C -2.590469 -0.113917 -0.346048 0
M  V30 28 C 2.016052 -0.040063 0.751754 0
M  V30 29 C 2.333350 -0.977571 1.715358 0
M  V30 30 N 1.651631 -2.048092 2.160040 0
M  V30 31 H 0.365864 -5.361464 5.414598 0
M  V30 32 H 1.240099 -6.417043 4.298528 0
M  V30 33 H -0.549723 -6.088288 4.099747 0
M  V30 34 H 0.140906 -4.066741 2.856777 0
M  V30 35 H 5.312344 0.205161 2.621846 0
M  V30 36 H 4.737770 1.896154 0.882365 0
M  V30 37 H 3.453509 2.400177 -1.069569 0
M  V30 38 H 1.939590 1.580434 -1.437865 0
M  V30 39 H 2.445088 3.719248 0.714732 0
M  V30 40 H 1.639987 3.946510 -0.835441 0
M  V30 41 H 0.352694 3.055383 1.607671 0
M  V30 42 H -1.886753 2.098548 1.470692 0
M  V30 43 H -3.766913 2.895799 -1.058227 0
M  V30 44 H -5.370922 1.477766 -2.387709 0
M  V30 45 H -1.836343 -0.677902 0.199122 0
M  V30 46 H 1.081606 -0.136330 0.243335 0
M  V30 47 H 0.730368 -2.358632 1.834679 0
M  V30 END ATOM
M  V30 BEGIN BOND
M  V30 1 1 1 2
M  V30 2 1 2 3
M  V30 3 2 3 4
M  V30 4 1 3 5
M  V30 5 2 5 6
M  V30 6 1 6 7
M  V30 7 2 7 8
M  V30 8 1 8 9
M  V30 9 2 9 10
M  V30 10 1 10 11
M  V30 11 1 11 12
M  V30 12 1 12 13
M  V30 13 1 13 14
M  V30 14 2 14 15
M  V30 15 1 14 16
M  V30 16 1 16 17
M  V30 17 2 17 18
M  V30 18 1 18 19
M  V30 19 2 19 20
M  V30 20 1 20 21
M  V30 21 1 20 22
M  V30 22 1 22 23
M  V30 23 1 23 24
M  V30 24 1 23 25
M  V30 25 1 23 26
M  V30 26 2 22 27
M  V30 27 1 10 28
M  V30 28 2 28 29
M  V30 29 1 29 30
M  V30 30 1 30 5
M  V30 31 1 29 7
M  V30 32 1 27 17
M  V30 33 1 1 31
M  V30 34 1 1 32
M  V30 35 1 1 33
M  V30 36 1 2 34
M  V30 37 1 8 35
M  V30 38 1 9 36
M  V30 39 1 11 37
M  V30 40 1 11 38
M  V30 41 1 12 39
M  V30 42 1 12 40
M  V30 43 1 13 41
M  V30 44 1 16 42
M  V30 45 1 18 43
M  V30 46 1 19 44
M  V30 47 1 27 45
M  V30 48 1 28 46
M  V30 49 1 30 47
M  V30 END BOND
M  V30 END CTAB
M  END
>  <Dataset>  (399) 
ChEMBL_Kinases

>  <Ligand_Instance>  (399) 
nan

>  <PDB_ID>  (399) 
nan

>  <Standardized_SMILES>  (399) 
CNC(=O)c1nc2ccc(CCNC(=O)Nc3ccc(Cl)c(C(F)(F)F)c3)cc2[nH]1

>  <Name>  (399) 
nan

>  <Pocket>  (399) 
nan

>  <ATP_Site>  (399) 
nan

>  <Peripheral>  (399) 
nan

>  <Num_H_Atoms_ProtBoundConf>  (399) 
nan

>  <Num_Resolved_Atoms>  (399) 
nan

>  <Num_Not_Resolved_Atoms>  (399) 
nan

$$$$
CHEMBL1760630
     RDKit          3D

  0  0  0  0  0  0  0  0  0  0999 V3000
M  V30 BEGIN CTAB
M  V30 COUNTS 51 53 0 0 0
M  V30 BEGIN ATOM
M  V30 1 C -0.866489 3.249932 -0.342652 0
M  V30 2 O 0.073855 2.777490 0.619372 0
M  V30 3 C 1.325496 2.312416 0.239784 0
M  V30 4 C 1.713104 2.288607 -1.096383 0
M  V30 5 C 2.951474 1.834928 -1.537440 0
M  V30 6 C 3.815357 1.390565 -0.548831 0
M  V30 7 C 5.152253 0.899464 -1.011478 0
M  V30 8 F 5.821420 0.273708 0.023407 0
M  V30 9 F 5.934723 1.965081 -1.412323 0
M  V30 10 F 4.915243 0.030689 -2.082537 0
M  V30 11 C 3.489597 1.389195 0.790854 0
M  V30 12 C 2.260005 1.845342 1.171180 0
M  V30 13 N 1.799088 1.895408 2.539122 0
M  V30 14 C 1.136646 0.752853 3.003296 0
M  V30 15 O 1.037289 -0.151788 2.166174 0
M  V30 16 N 0.596462 0.548653 4.281259 0
M  V30 17 C -0.131617 -0.488151 4.935030 0
M  V30 18 C -1.492566 -0.684726 4.376497 0
M  V30 19 C -1.654904 -1.001377 2.958137 0
M  V30 20 C -1.999946 0.009938 2.043386 0
M  V30 21 C -2.143713 -0.330307 0.712637 0
M  V30 22 C -1.962774 -1.621203 0.244039 0
M  V30 23 N -2.033318 -2.226723 -0.955734 0
M  V30 24 C -1.753063 -3.538960 -0.824702 0
M  V30 25 N -1.703561 -4.574724 -1.803925 0
M  V30 26 C -2.696003 -5.454853 -2.281831 0
M  V30 27 C -2.337196 -6.448960 -3.328267 0
M  V30 28 O -3.800240 -5.237962 -1.702264 0
M  V30 29 N -1.494375 -3.801799 0.478724 0
M  V30 30 C -1.623634 -2.627343 1.128010 0
M  V30 31 C -1.486140 -2.257873 2.455646 0
M  V30 32 H -1.333621 2.444143 -0.914251 0
M  V30 33 H -1.629805 3.880791 0.121768 0
M  V30 34 H -0.285966 3.921894 -1.036273 0
M  V30 35 H 1.050256 2.632032 -1.880132 0
M  V30 36 H 3.202784 1.837655 -2.587942 0
M  V30 37 H 4.167531 1.042877 1.542420 0
M  V30 38 H 1.914909 2.708842 3.216816 0
M  V30 39 H 0.805633 1.404065 4.873021 0
M  V30 40 H -0.278020 -0.228061 6.018061 0
M  V30 41 H 0.455742 -1.452308 4.966084 0
M  V30 42 H -2.049973 -1.473452 4.999290 0
M  V30 43 H -2.053824 0.297253 4.571779 0
M  V30 44 H -2.155166 1.042759 2.352376 0
M  V30 45 H -2.411562 0.396930 -0.069540 0
M  V30 46 H -0.727125 -4.648963 -2.207204 0
M  V30 47 H -2.534263 -6.118716 -4.348270 0
M  V30 48 H -2.970121 -7.369054 -3.163117 0
M  V30 49 H -1.299880 -6.781022 -3.147738 0
M  V30 50 H -1.240632 -4.671790 0.993951 0
M  V30 51 H -1.221663 -3.010102 3.185374 0
M  V30 END ATOM
M  V30 BEGIN BOND
M  V30 1 1 1 2
M  V30 2 1 2 3
M  V30 3 2 3 4
M  V30 4 1 4 5
M  V30 5 2 5 6
M  V30 6 1 6 7
M  V30 7 1 7 8
M  V30 8 1 7 9
M  V30 9 1 7 10
M  V30 10 1 6 11
M  V30 11 2 11 12
M  V30 12 1 12 13
M  V30 13 1 13 14
M  V30 14 2 14 15
M  V30 15 1 14 16
M  V30 16 1 16 17
M  V30 17 1 17 18
M  V30 18 1 18 19
M  V30 19 2 19 20
M  V30 20 1 20 21
M  V30 21 2 21 22
M  V30 22 1 22 23
M  V30 23 2 23 24
M  V30 24 1 24 25
M  V30 25 1 25 26
M  V30 26 1 26 27
M  V30 27 2 26 28
M  V30 28 1 24 29
M  V30 29 1 29 30
M  V30 30 2 30 31
M  V30 31 1 12 3
M  V30 32 1 31 19
M  V30 33 1 30 22
M  V30 34 1 1 32
M  V30 35 1 1 33
M  V30 36 1 1 34
M  V30 37 1 4 35
M  V30 38 1 5 36
M  V30 39 1 11 37
M  V30 40 1 13 38
M  V30 41 1 16 39
M  V30 42 1 17 40
M  V30 43 1 17 41
M  V30 44 1 18 42
M  V30 45 1 18 43
M  V30 46 1 20 44
M  V30 47 1 21 45
M  V30 48 1 25 46
M  V30 49 1 27 47
M  V30 50 1 27 48
M  V30 51 1 27 49
M  V30 52 1 29 50
M  V30 53 1 31 51
M  V30 END BOND
M  V30 END CTAB
M  END
>  <Dataset>  (400) 
ChEMBL_Kinases

>  <Ligand_Instance>  (400) 
nan

>  <PDB_ID>  (400) 
nan

>  <Standardized_SMILES>  (400) 
COc1ccc(C(F)(F)F)cc1NC(=O)NCCc1ccc2nc(NC(C)=O)[nH]c2c1

>  <Name>  (400) 
nan

>  <Pocket>  (400) 
nan

>  <ATP_Site>  (400) 
nan

>  <Peripheral>  (400) 
nan

>  <Num_H_Atoms_ProtBoundConf>  (400) 
nan

>  <Num_Resolved_Atoms>  (400) 
nan

>  <Num_Not_Resolved_Atoms>  (400) 
nan

$$$$
CHEMBL1760629
     RDKit          3D

  0  0  0  0  0  0  0  0  0  0999 V3000
M  V30 BEGIN CTAB
M  V30 COUNTS 52 54 0 0 0
M  V30 BEGIN ATOM
M  V30 1 C 4.779516 -5.194269 5.622076 0
M  V30 2 O 4.656375 -4.741366 4.272833 0
M  V30 3 C 4.245957 -3.483680 3.928457 0
M  V30 4 O 3.950193 -2.646852 4.826309 0
M  V30 5 N 4.141496 -3.086343 2.567064 0
M  V30 6 C 3.719481 -1.789968 2.158166 0
M  V30 7 N 4.534783 -0.728514 1.954202 0
M  V30 8 C 3.800135 0.333922 1.575233 0
M  V30 9 C 4.111173 1.637949 1.246770 0
M  V30 10 C 3.072231 2.479008 0.895157 0
M  V30 11 C 1.727345 2.094278 0.850772 0
M  V30 12 C 0.732355 3.134243 0.449479 0
M  V30 13 C 0.500277 3.170588 -1.033810 0
M  V30 14 N 0.005271 1.925529 -1.533202 0
M  V30 15 C -1.205641 1.360846 -1.094916 0
M  V30 16 O -1.822569 2.012199 -0.244483 0
M  V30 17 N -1.733939 0.134624 -1.558123 0
M  V30 18 C -2.931705 -0.517861 -1.187489 0
M  V30 19 C -3.864070 -0.089541 -0.274435 0
M  V30 20 C -5.017714 -0.768975 0.048594 0
M  V30 21 C -5.968747 -0.222187 1.053096 0
M  V30 22 F -6.481670 -1.204476 1.886497 0
M  V30 23 F -5.420723 0.745330 1.847779 0
M  V30 24 F -7.033764 0.360922 0.381462 0
M  V30 25 C -5.295744 -1.963337 -0.561039 0
M  V30 26 C -4.379428 -2.419370 -1.481789 0
M  V30 27 C -3.234428 -1.716039 -1.783042 0
M  V30 28 O -2.370185 -2.256182 -2.724860 0
M  V30 29 C -2.635398 -3.492212 -3.370761 0
M  V30 30 C 1.427125 0.795130 1.179112 0
M  V30 31 C 2.473646 -0.048961 1.532415 0
M  V30 32 N 2.475031 -1.351261 1.895588 0
M  V30 33 H 3.943007 -5.861607 5.920823 0
M  V30 34 H 5.759159 -5.691273 5.743792 0
M  V30 35 H 4.673674 -4.287276 6.260737 0
M  V30 36 H 4.402696 -3.830331 1.855635 0
M  V30 37 H 5.127535 2.001929 1.259889 0
M  V30 38 H 3.354042 3.502800 0.641544 0
M  V30 39 H 1.154894 4.149626 0.709191 0
M  V30 40 H -0.193491 3.069327 1.045352 0
M  V30 41 H 1.455715 3.436702 -1.503662 0
M  V30 42 H -0.188632 4.022179 -1.219652 0
M  V30 43 H 0.565722 1.406847 -2.257954 0
M  V30 44 H -1.113291 -0.306820 -2.270767 0
M  V30 45 H -3.702708 0.843338 0.239243 0
M  V30 46 H -6.191103 -2.490160 -0.310062 0
M  V30 47 H -4.564671 -3.351930 -1.979309 0
M  V30 48 H -1.715482 -3.824809 -3.908741 0
M  V30 49 H -3.506073 -3.368882 -4.040705 0
M  V30 50 H -2.891267 -4.307995 -2.644803 0
M  V30 51 H 0.410623 0.496088 1.148248 0
M  V30 52 H 1.627328 -1.967469 1.971779 0
M  V30 END ATOM
M  V30 BEGIN BOND
M  V30 1 1 1 2
M  V30 2 1 2 3
M  V30 3 2 3 4
M  V30 4 1 3 5
M  V30 5 1 5 6
M  V30 6 2 6 7
M  V30 7 1 7 8
M  V30 8 2 8 9
M  V30 9 1 9 10
M  V30 10 2 10 11
M  V30 11 1 11 12
M  V30 12 1 12 13
M  V30 13 1 13 14
M  V30 14 1 14 15
M  V30 15 2 15 16
M  V30 16 1 15 17
M  V30 17 1 17 18
M  V30 18 2 18 19
M  V30 19 1 19 20
M  V30 20 1 20 21
M  V30 21 1 21 22
M  V30 22 1 21 23
M  V30 23 1 21 24
M  V30 24 2 20 25
M  V30 25 1 25 26
M  V30 26 2 26 27
M  V30 27 1 27 28
M  V30 28 1 28 29
M  V30 29 1 11 30
M  V30 30 2 30 31
M  V30 31 1 31 32
M  V30 32 1 32 6
M  V30 33 1 31 8
M  V30 34 1 27 18
M  V30 35 1 1 33
M  V30 36 1 1 34
M  V30 37 1 1 35
M  V30 38 1 5 36
M  V30 39 1 9 37
M  V30 40 1 10 38
M  V30 41 1 12 39
M  V30 42 1 12 40
M  V30 43 1 13 41
M  V30 44 1 13 42
M  V30 45 1 14 43
M  V30 46 1 17 44
M  V30 47 1 19 45
M  V30 48 1 25 46
M  V30 49 1 26 47
M  V30 50 1 29 48
M  V30 51 1 29 49
M  V30 52 1 29 50
M  V30 53 1 30 51
M  V30 54 1 32 52
M  V30 END BOND
M  V30 END CTAB
M  END
>  <Dataset>  (401) 
ChEMBL_Kinases

>  <Ligand_Instance>  (401) 
nan

>  <PDB_ID>  (401) 
nan

>  <Standardized_SMILES>  (401) 
COC(=O)Nc1nc2ccc(CCNC(=O)Nc3cc(C(F)(F)F)ccc3OC)cc2[nH]1

>  <Name>  (401) 
nan

>  <Pocket>  (401) 
nan

>  <ATP_Site>  (401) 
nan

>  <Peripheral>  (401) 
nan

>  <Num_H_Atoms_ProtBoundConf>  (401) 
nan

>  <Num_Resolved_Atoms>  (401) 
nan

>  <Num_Not_Resolved_Atoms>  (401) 
nan

$$$$
CHEMBL1760628
     RDKit          3D

  0  0  0  0  0  0  0  0  0  0999 V3000
M  V30 BEGIN CTAB
M  V30 COUNTS 51 53 0 0 0
M  V30 BEGIN ATOM
M  V30 1 C 0.792140 -5.671534 5.064133 0
M  V30 2 N 1.211854 -4.569341 4.221912 0
M  V30 3 C 2.559625 -4.358505 3.819483 0
M  V30 4 O 3.512188 -5.125560 4.168602 0
M  V30 5 C 2.883664 -3.214904 2.966870 0
M  V30 6 N 4.104920 -2.886208 2.506168 0
M  V30 7 C 4.040348 -1.759908 1.739856 0
M  V30 8 C 4.907271 -0.962423 1.022744 0
M  V30 9 C 4.409912 0.139087 0.356183 0
M  V30 10 C 3.056070 0.499112 0.365999 0
M  V30 11 C 2.775358 1.724409 -0.421076 0
M  V30 12 C 2.488279 1.386917 -1.860223 0
M  V30 13 N 1.327477 0.525495 -1.905071 0
M  V30 14 C 0.021727 0.829988 -1.444119 0
M  V30 15 O -0.210118 1.950039 -0.934928 0
M  V30 16 N -1.072091 -0.045202 -1.511062 0
M  V30 17 C -2.358242 0.324769 -1.028881 0
M  V30 18 C -3.151881 0.931389 -2.001913 0
M  V30 19 C -4.447711 1.362312 -1.711288 0
M  V30 20 C -5.269132 2.003149 -2.761710 0
M  V30 21 F -4.502349 2.911099 -3.447322 0
M  V30 22 F -6.312199 2.698241 -2.168964 0
M  V30 23 F -5.846797 1.081432 -3.621256 0
M  V30 24 C -4.892281 1.155271 -0.419640 0
M  V30 25 C -4.134606 0.561820 0.557416 0
M  V30 26 C -2.858709 0.145499 0.244493 0
M  V30 27 O -1.983289 -0.468846 1.133871 0
M  V30 28 C -2.380920 -0.705343 2.461572 0
M  V30 29 C 2.209076 -0.310472 1.087829 0
M  V30 30 C 2.705128 -1.413098 1.755322 0
M  V30 31 N 2.016070 -2.297838 2.498698 0
M  V30 32 H -0.291313 -5.886528 4.887389 0
M  V30 33 H 1.309721 -6.624278 4.843546 0
M  V30 34 H 0.878043 -5.372921 6.134011 0
M  V30 35 H 0.480410 -3.877031 3.882350 0
M  V30 36 H 5.936089 -1.243416 1.020399 0
M  V30 37 H 5.179535 0.696316 -0.176239 0
M  V30 38 H 1.901666 2.289589 -0.006879 0
M  V30 39 H 3.620334 2.460299 -0.336082 0
M  V30 40 H 2.297800 2.317102 -2.433745 0
M  V30 41 H 3.348853 0.817733 -2.231225 0
M  V30 42 H 1.381620 -0.455258 -2.312995 0
M  V30 43 H -0.926447 -1.007685 -1.934731 0
M  V30 44 H -2.816715 1.105517 -3.036223 0
M  V30 45 H -5.896894 1.486099 -0.183495 0
M  V30 46 H -4.476810 0.396951 1.570141 0
M  V30 47 H -1.672309 -1.434694 2.937357 0
M  V30 48 H -2.383746 0.200483 3.077365 0
M  V30 49 H -3.406802 -1.154783 2.536124 0
M  V30 50 H 1.182712 0.018354 1.060129 0
M  V30 51 H 1.001174 -2.299404 2.693768 0
M  V30 END ATOM
M  V30 BEGIN BOND
M  V30 1 1 1 2
M  V30 2 1 2 3
M  V30 3 2 3 4
M  V30 4 1 3 5
M  V30 5 2 5 6
M  V30 6 1 6 7
M  V30 7 2 7 8
M  V30 8 1 8 9
M  V30 9 2 9 10
M  V30 10 1 10 11
M  V30 11 1 11 12
M  V30 12 1 12 13
M  V30 13 1 13 14
M  V30 14 2 14 15
M  V30 15 1 14 16
M  V30 16 1 16 17
M  V30 17 2 17 18
M  V30 18 1 18 19
M  V30 19 1 19 20
M  V30 20 1 20 21
M  V30 21 1 20 22
M  V30 22 1 20 23
M  V30 23 2 19 24
M  V30 24 1 24 25
M  V30 25 2 25 26
M  V30 26 1 26 27
M  V30 27 1 27 28
M  V30 28 1 10 29
M  V30 29 2 29 30
M  V30 30 1 30 31
M  V30 31 1 31 5
M  V30 32 1 30 7
M  V30 33 1 26 17
M  V30 34 1 1 32
M  V30 35 1 1 33
M  V30 36 1 1 34
M  V30 37 1 2 35
M  V30 38 1 8 36
M  V30 39 1 9 37
M  V30 40 1 11 38
M  V30 41 1 11 39
M  V30 42 1 12 40
M  V30 43 1 12 41
M  V30 44 1 13 42
M  V30 45 1 16 43
M  V30 46 1 18 44
M  V30 47 1 24 45
M  V30 48 1 25 46
M  V30 49 1 28 47
M  V30 50 1 28 48
M  V30 51 1 28 49
M  V30 52 1 29 50
M  V30 53 1 31 51
M  V30 END BOND
M  V30 END CTAB
M  END
>  <Dataset>  (402) 
ChEMBL_Kinases

>  <Ligand_Instance>  (402) 
nan

>  <PDB_ID>  (402) 
nan

>  <Standardized_SMILES>  (402) 
CNC(=O)c1nc2ccc(CCNC(=O)Nc3cc(C(F)(F)F)ccc3OC)cc2[nH]1

>  <Name>  (402) 
nan

>  <Pocket>  (402) 
nan

>  <ATP_Site>  (402) 
nan

>  <Peripheral>  (402) 
nan

>  <Num_H_Atoms_ProtBoundConf>  (402) 
nan

>  <Num_Resolved_Atoms>  (402) 
nan

>  <Num_Not_Resolved_Atoms>  (402) 
nan

$$$$
CHEMBL1760627
     RDKit          3D

  0  0  0  0  0  0  0  0  0  0999 V3000
M  V30 BEGIN CTAB
M  V30 COUNTS 64 66 0 0 0
M  V30 BEGIN ATOM
M  V30 1 C 7.353853 -2.664756 6.437393 0
M  V30 2 N 6.572607 -2.117466 5.343616 0
M  V30 3 C 5.967787 -0.814289 5.349080 0
M  V30 4 O 6.072574 -0.041978 6.314592 0
M  V30 5 C 5.212768 -0.450317 4.133637 0
M  V30 6 C 4.605239 0.810136 4.101138 0
M  V30 7 C 3.883006 1.218157 3.000895 0
M  V30 8 C 3.245745 2.412802 2.843298 0
M  V30 9 C 2.540728 2.710354 1.671697 0
M  V30 10 C 2.465129 1.792433 0.620525 0
M  V30 11 C 1.688238 2.277245 -0.540237 0
M  V30 12 C 0.231626 1.941620 -0.355488 0
M  V30 13 N 0.099678 0.507457 -0.248999 0
M  V30 14 C -1.258594 0.181131 -0.080832 0
M  V30 15 O -2.282188 0.945934 -0.020819 0
M  V30 16 N -1.730038 -1.171057 0.058737 0
M  V30 17 C -3.024813 -1.725114 0.234014 0
M  V30 18 C -3.475940 -1.885452 1.536491 0
M  V30 19 C -4.726900 -2.422698 1.803575 0
M  V30 20 C -5.224997 -2.601311 3.202708 0
M  V30 21 F -4.247112 -2.150001 4.089598 0
M  V30 22 F -5.516948 -3.925365 3.462412 0
M  V30 23 F -6.338870 -1.820022 3.407555 0
M  V30 24 C -5.532563 -2.803079 0.736474 0
M  V30 25 Cl -7.141645 -3.496748 0.982931 0
M  V30 26 C -5.109243 -2.655133 -0.577349 0
M  V30 27 C -3.844689 -2.111041 -0.813877 0
M  V30 28 O -3.320413 -1.918337 -2.099961 0
M  V30 29 C -4.093691 -2.287309 -3.202104 0
M  V30 30 C -3.405480 -2.021114 -4.522770 0
M  V30 31 N -3.091256 -0.621736 -4.704203 0
M  V30 32 C -2.432637 -0.389565 -5.975889 0
M  V30 33 C -4.241737 0.229491 -4.629652 0
M  V30 34 C 3.116314 0.593018 0.801582 0
M  V30 35 C 3.804046 0.321542 1.963807 0
M  V30 36 C 4.396552 -0.919427 1.983857 0
M  V30 37 N 5.093913 -1.287851 3.071177 0
M  V30 38 H 6.741306 -3.426281 6.988891 0
M  V30 39 H 7.639674 -1.847272 7.122169 0
M  V30 40 H 8.249719 -3.180147 6.064783 0
M  V30 41 H 6.465322 -2.752681 4.504499 0
M  V30 42 H 4.668742 1.519489 4.924148 0
M  V30 43 H 3.311668 3.117750 3.668135 0
M  V30 44 H 2.083456 3.675061 1.663832 0
M  V30 45 H 1.859892 3.351860 -0.747029 0
M  V30 46 H 2.103904 1.743332 -1.441756 0
M  V30 47 H -0.109590 2.441319 0.573471 0
M  V30 48 H -0.310292 2.328653 -1.251786 0
M  V30 49 H 0.702008 -0.344059 -0.260208 0
M  V30 50 H -1.028822 -1.973284 0.036589 0
M  V30 51 H -2.889156 -1.606442 2.392487 0
M  V30 52 H -5.714471 -2.942412 -1.438943 0
M  V30 53 H -5.096515 -1.853448 -3.194039 0
M  V30 54 H -4.224596 -3.395503 -3.156959 0
M  V30 55 H -2.444543 -2.571223 -4.592926 0
M  V30 56 H -4.038896 -2.353456 -5.363818 0
M  V30 57 H -2.802802 0.536996 -6.424634 0
M  V30 58 H -1.329493 -0.313262 -5.839232 0
M  V30 59 H -2.688223 -1.202923 -6.685260 0
M  V30 60 H -5.177166 -0.232737 -5.035036 0
M  V30 61 H -4.050729 1.125974 -5.270719 0
M  V30 62 H -4.393583 0.648953 -3.605939 0
M  V30 63 H 3.040222 -0.082577 -0.029484 0
M  V30 64 H 4.333378 -1.637216 1.153871 0
M  V30 END ATOM
M  V30 BEGIN BOND
M  V30 1 1 1 2
M  V30 2 1 2 3
M  V30 3 2 3 4
M  V30 4 1 3 5
M  V30 5 2 5 6
M  V30 6 1 6 7
M  V30 7 2 7 8
M  V30 8 1 8 9
M  V30 9 2 9 10
M  V30 10 1 10 11
M  V30 11 1 11 12
M  V30 12 1 12 13
M  V30 13 1 13 14
M  V30 14 2 14 15
M  V30 15 1 14 16
M  V30 16 1 16 17
M  V30 17 2 17 18
M  V30 18 1 18 19
M  V30 19 1 19 20
M  V30 20 1 20 21
M  V30 21 1 20 22
M  V30 22 1 20 23
M  V30 23 2 19 24
M  V30 24 1 24 25
M  V30 25 1 24 26
M  V30 26 2 26 27
M  V30 27 1 27 28
M  V30 28 1 28 29
M  V30 29 1 29 30
M  V30 30 1 30 31
M  V30 31 1 31 32
M  V30 32 1 31 33
M  V30 33 1 10 34
M  V30 34 2 34 35
M  V30 35 1 35 36
M  V30 36 2 36 37
M  V30 37 1 37 5
M  V30 38 1 35 7
M  V30 39 1 27 17
M  V30 40 1 1 38
M  V30 41 1 1 39
M  V30 42 1 1 40
M  V30 43 1 2 41
M  V30 44 1 6 42
M  V30 45 1 8 43
M  V30 46 1 9 44
M  V30 47 1 11 45
M  V30 48 1 11 46
M  V30 49 1 12 47
M  V30 50 1 12 48
M  V30 51 1 13 49
M  V30 52 1 16 50
M  V30 53 1 18 51
M  V30 54 1 26 52
M  V30 55 1 29 53
M  V30 56 1 29 54
M  V30 57 1 30 55
M  V30 58 1 30 56
M  V30 59 1 32 57
M  V30 60 1 32 58
M  V30 61 1 32 59
M  V30 62 1 33 60
M  V30 63 1 33 61
M  V30 64 1 33 62
M  V30 65 1 34 63
M  V30 66 1 36 64
M  V30 END BOND
M  V30 END CTAB
M  END
>  <Dataset>  (403) 
ChEMBL_Kinases

>  <Ligand_Instance>  (403) 
nan

>  <PDB_ID>  (403) 
nan

>  <Standardized_SMILES>  (403) 
CNC(=O)c1cc2ccc(CCNC(=O)Nc3cc(C(F)(F)F)c(Cl)cc3OCCN(C)C)cc2cn1

>  <Name>  (403) 
nan

>  <Pocket>  (403) 
nan

>  <ATP_Site>  (403) 
nan

>  <Peripheral>  (403) 
nan

>  <Num_H_Atoms_ProtBoundConf>  (403) 
nan

>  <Num_Resolved_Atoms>  (403) 
nan

>  <Num_Not_Resolved_Atoms>  (403) 
nan

$$$$
CHEMBL1760626
     RDKit          3D

  0  0  0  0  0  0  0  0  0  0999 V3000
M  V30 BEGIN CTAB
M  V30 COUNTS 53 55 0 0 0
M  V30 BEGIN ATOM
M  V30 1 C 1.321527 -1.836171 7.872195 0
M  V30 2 N 1.101667 -0.895729 6.790098 0
M  V30 3 C 1.531105 -1.138728 5.465240 0
M  V30 4 O 2.131184 -2.253455 5.286001 0
M  V30 5 C 1.315853 -0.200780 4.368854 0
M  V30 6 C 1.780952 -0.550324 3.118036 0
M  V30 7 C 1.588386 0.317116 2.074332 0
M  V30 8 C 2.079963 -0.087778 0.827525 0
M  V30 9 C 1.884446 0.786914 -0.220160 0
M  V30 10 C 1.243707 2.033615 -0.150219 0
M  V30 11 C 1.011233 2.979123 -1.199674 0
M  V30 12 C -0.235426 3.076106 -1.945323 0
M  V30 13 N -0.636913 1.888066 -2.639217 0
M  V30 14 C -1.018605 0.614682 -2.198744 0
M  V30 15 O -1.080702 0.359059 -0.991086 0
M  V30 16 N -1.369178 -0.503369 -2.998416 0
M  V30 17 C -1.728194 -1.710977 -2.364968 0
M  V30 18 C -3.012800 -2.016220 -2.014901 0
M  V30 19 C -3.425380 -3.191672 -1.387914 0
M  V30 20 C -4.844107 -3.455765 -1.035458 0
M  V30 21 F -5.620209 -2.395407 -1.417970 0
M  V30 22 F -5.007501 -3.619931 0.329295 0
M  V30 23 F -5.302254 -4.585982 -1.711941 0
M  V30 24 C -2.398754 -4.075871 -1.129025 0
M  V30 25 Cl -2.803067 -5.606271 -0.334076 0
M  V30 26 C -1.079483 -3.833227 -1.454756 0
M  V30 27 C -0.741328 -2.637034 -2.079708 0
M  V30 28 O 0.600103 -2.438528 -2.387920 0
M  V30 29 C 1.600658 -3.394682 -2.090463 0
M  V30 30 C 0.784824 2.369617 1.104602 0
M  V30 31 C 0.958303 1.521793 2.189304 0
M  V30 32 C 0.506908 1.833464 3.462953 0
M  V30 33 N 0.689097 0.990456 4.498558 0
M  V30 34 H 2.089269 -2.565694 7.496586 0
M  V30 35 H 1.749427 -1.384420 8.774008 0
M  V30 36 H 0.414101 -2.441819 8.063309 0
M  V30 37 H 0.611225 0.010470 6.947203 0
M  V30 38 H 2.287267 -1.496232 2.978536 0
M  V30 39 H 2.594187 -1.020229 0.624595 0
M  V30 40 H 2.246304 0.524851 -1.216322 0
M  V30 41 H 1.857649 2.857236 -1.964999 0
M  V30 42 H 1.263555 4.008609 -0.780931 0
M  V30 43 H -0.078031 3.851223 -2.756558 0
M  V30 44 H -1.093852 3.517938 -1.369995 0
M  V30 45 H -0.679477 1.891244 -3.708440 0
M  V30 46 H -1.341291 -0.366022 -4.056580 0
M  V30 47 H -3.759434 -1.273040 -2.251159 0
M  V30 48 H -0.331326 -4.592701 -1.210916 0
M  V30 49 H 2.551053 -3.031081 -2.524609 0
M  V30 50 H 1.370446 -4.380008 -2.553814 0
M  V30 51 H 1.739956 -3.536552 -1.003678 0
M  V30 52 H 0.273051 3.296111 1.310849 0
M  V30 53 H -0.004027 2.774024 3.635460 0
M  V30 END ATOM
M  V30 BEGIN BOND
M  V30 1 1 1 2
M  V30 2 1 2 3
M  V30 3 2 3 4
M  V30 4 1 3 5
M  V30 5 2 5 6
M  V30 6 1 6 7
M  V30 7 2 7 8
M  V30 8 1 8 9
M  V30 9 2 9 10
M  V30 10 1 10 11
M  V30 11 1 11 12
M  V30 12 1 12 13
M  V30 13 1 13 14
M  V30 14 2 14 15
M  V30 15 1 14 16
M  V30 16 1 16 17
M  V30 17 2 17 18
M  V30 18 1 18 19
M  V30 19 1 19 20
M  V30 20 1 20 21
M  V30 21 1 20 22
M  V30 22 1 20 23
M  V30 23 2 19 24
M  V30 24 1 24 25
M  V30 25 1 24 26
M  V30 26 2 26 27
M  V30 27 1 27 28
M  V30 28 1 28 29
M  V30 29 1 10 30
M  V30 30 2 30 31
M  V30 31 1 31 32
M  V30 32 2 32 33
M  V30 33 1 33 5
M  V30 34 1 31 7
M  V30 35 1 27 17
M  V30 36 1 1 34
M  V30 37 1 1 35
M  V30 38 1 1 36
M  V30 39 1 2 37
M  V30 40 1 6 38
M  V30 41 1 8 39
M  V30 42 1 9 40
M  V30 43 1 11 41
M  V30 44 1 11 42
M  V30 45 1 12 43
M  V30 46 1 12 44
M  V30 47 1 13 45
M  V30 48 1 16 46
M  V30 49 1 18 47
M  V30 50 1 26 48
M  V30 51 1 29 49
M  V30 52 1 29 50
M  V30 53 1 29 51
M  V30 54 1 30 52
M  V30 55 1 32 53
M  V30 END BOND
M  V30 END CTAB
M  END
>  <Dataset>  (404) 
ChEMBL_Kinases

>  <Ligand_Instance>  (404) 
nan

>  <PDB_ID>  (404) 
nan

>  <Standardized_SMILES>  (404) 
CNC(=O)c1cc2ccc(CCNC(=O)Nc3cc(C(F)(F)F)c(Cl)cc3OC)cc2cn1

>  <Name>  (404) 
nan

>  <Pocket>  (404) 
nan

>  <ATP_Site>  (404) 
nan

>  <Peripheral>  (404) 
nan

>  <Num_H_Atoms_ProtBoundConf>  (404) 
nan

>  <Num_Resolved_Atoms>  (404) 
nan

>  <Num_Not_Resolved_Atoms>  (404) 
nan

$$$$
CHEMBL1760625
     RDKit          3D

  0  0  0  0  0  0  0  0  0  0999 V3000
M  V30 BEGIN CTAB
M  V30 COUNTS 53 55 0 0 0
M  V30 BEGIN ATOM
M  V30 1 C -1.475306 -3.536173 6.550485 0
M  V30 2 N -0.931198 -3.426650 5.213256 0
M  V30 3 C -0.054792 -2.330814 4.903066 0
M  V30 4 O 0.125884 -1.581617 5.887833 0
M  V30 5 C 0.544264 -2.131191 3.589920 0
M  V30 6 C 1.362687 -1.024921 3.464516 0
M  V30 7 C 1.989681 -0.725744 2.271241 0
M  V30 8 C 2.796560 0.390140 2.197471 0
M  V30 9 C 3.384111 0.616472 0.970245 0
M  V30 10 C 3.250042 -0.149897 -0.180134 0
M  V30 11 C 3.986911 0.192402 -1.391893 0
M  V30 12 C 3.461637 1.253038 -2.290206 0
M  V30 13 N 2.150456 0.988594 -2.785788 0
M  V30 14 C 0.864322 0.890081 -2.212320 0
M  V30 15 O 0.728925 1.098475 -0.983553 0
M  V30 16 N -0.348787 0.573804 -2.865133 0
M  V30 17 C -1.529743 0.534378 -2.069489 0
M  V30 18 C -2.265118 1.710179 -1.923933 0
M  V30 19 C -3.422312 1.783925 -1.178750 0
M  V30 20 Cl -4.352207 3.244239 -0.987023 0
M  V30 21 C -3.885734 0.653953 -0.543499 0
M  V30 22 C -5.129019 0.575747 0.302297 0
M  V30 23 C -3.171236 -0.525492 -0.674071 0
M  V30 24 C -2.024991 -0.572909 -1.419613 0
M  V30 25 O -1.331044 -1.744327 -1.538971 0
M  V30 26 C -1.709818 -2.966996 -0.932927 0
M  V30 27 C 2.412164 -1.267828 -0.021806 0
M  V30 28 C 1.796429 -1.547434 1.179332 0
M  V30 29 C 0.974730 -2.643712 1.333768 0
M  V30 30 N 0.363978 -2.930675 2.505065 0
M  V30 31 H -0.752685 -4.140486 7.158571 0
M  V30 32 H -2.482444 -3.987415 6.577743 0
M  V30 33 H -1.525828 -2.544067 6.998864 0
M  V30 34 H -1.153414 -4.127309 4.443607 0
M  V30 35 H 1.537194 -0.350383 4.315280 0
M  V30 36 H 2.983607 1.067368 3.018029 0
M  V30 37 H 4.030003 1.498813 0.889537 0
M  V30 38 H 5.084685 0.415304 -1.150506 0
M  V30 39 H 4.098018 -0.797860 -1.955238 0
M  V30 40 H 4.129937 1.385425 -3.190523 0
M  V30 41 H 3.447041 2.260048 -1.772993 0
M  V30 42 H 2.042249 0.813633 -3.824800 0
M  V30 43 H -0.290686 0.387531 -3.908583 0
M  V30 44 H -1.972531 2.641219 -2.388326 0
M  V30 45 H -5.638707 -0.412365 0.146126 0
M  V30 46 H -4.823964 0.719498 1.355036 0
M  V30 47 H -5.866136 1.362269 -0.011827 0
M  V30 48 H -3.505862 -1.446628 -0.184717 0
M  V30 49 H -0.921456 -3.721501 -1.117668 0
M  V30 50 H -2.622887 -3.370366 -1.457487 0
M  V30 51 H -1.861581 -2.875218 0.156890 0
M  V30 52 H 2.278628 -1.890869 -0.886732 0
M  V30 53 H 0.811411 -3.299672 0.487932 0
M  V30 END ATOM
M  V30 BEGIN BOND
M  V30 1 1 1 2
M  V30 2 1 2 3
M  V30 3 2 3 4
M  V30 4 1 3 5
M  V30 5 2 5 6
M  V30 6 1 6 7
M  V30 7 2 7 8
M  V30 8 1 8 9
M  V30 9 2 9 10
M  V30 10 1 10 11
M  V30 11 1 11 12
M  V30 12 1 12 13
M  V30 13 1 13 14
M  V30 14 2 14 15
M  V30 15 1 14 16
M  V30 16 1 16 17
M  V30 17 2 17 18
M  V30 18 1 18 19
M  V30 19 1 19 20
M  V30 20 2 19 21
M  V30 21 1 21 22
M  V30 22 1 21 23
M  V30 23 2 23 24
M  V30 24 1 24 25
M  V30 25 1 25 26
M  V30 26 1 10 27
M  V30 27 2 27 28
M  V30 28 1 28 29
M  V30 29 2 29 30
M  V30 30 1 30 5
M  V30 31 1 28 7
M  V30 32 1 24 17
M  V30 33 1 1 31
M  V30 34 1 1 32
M  V30 35 1 1 33
M  V30 36 1 2 34
M  V30 37 1 6 35
M  V30 38 1 8 36
M  V30 39 1 9 37
M  V30 40 1 11 38
M  V30 41 1 11 39
M  V30 42 1 12 40
M  V30 43 1 12 41
M  V30 44 1 13 42
M  V30 45 1 16 43
M  V30 46 1 18 44
M  V30 47 1 22 45
M  V30 48 1 22 46
M  V30 49 1 22 47
M  V30 50 1 23 48
M  V30 51 1 26 49
M  V30 52 1 26 50
M  V30 53 1 26 51
M  V30 54 1 27 52
M  V30 55 1 29 53
M  V30 END BOND
M  V30 END CTAB
M  END
>  <Dataset>  (405) 
ChEMBL_Kinases

>  <Ligand_Instance>  (405) 
nan

>  <PDB_ID>  (405) 
nan

>  <Standardized_SMILES>  (405) 
CNC(=O)c1cc2ccc(CCNC(=O)Nc3cc(Cl)c(C)cc3OC)cc2cn1

>  <Name>  (405) 
nan

>  <Pocket>  (405) 
nan

>  <ATP_Site>  (405) 
nan

>  <Peripheral>  (405) 
nan

>  <Num_H_Atoms_ProtBoundConf>  (405) 
nan

>  <Num_Resolved_Atoms>  (405) 
nan

>  <Num_Not_Resolved_Atoms>  (405) 
nan

$$$$
CHEMBL1760624
     RDKit          3D

  0  0  0  0  0  0  0  0  0  0999 V3000
M  V30 BEGIN CTAB
M  V30 COUNTS 64 66 0 0 0
M  V30 BEGIN ATOM
M  V30 1 C 5.871253 -2.826831 4.318191 0
M  V30 2 N 5.141111 -2.325487 3.156651 0
M  V30 3 C 4.608822 -1.008980 3.116673 0
M  V30 4 O 4.795199 -0.287089 4.138700 0
M  V30 5 C 3.897821 -0.588031 1.921807 0
M  V30 6 C 3.421141 0.727633 1.970865 0
M  V30 7 C 2.744035 1.180802 0.859470 0
M  V30 8 C 2.251884 2.462162 0.825519 0
M  V30 9 C 1.582303 2.893574 -0.308472 0
M  V30 10 C 1.366244 2.097760 -1.448567 0
M  V30 11 C 0.684035 2.850059 -2.473773 0
M  V30 12 C -0.782110 2.987442 -2.471605 0
M  V30 13 N -1.602817 1.842706 -2.584730 0
M  V30 14 C -1.853369 0.682083 -1.845119 0
M  V30 15 O -1.196722 0.612522 -0.805862 0
M  V30 16 N -2.754298 -0.342076 -2.194884 0
M  V30 17 C -3.061464 -1.541992 -1.529137 0
M  V30 18 C -4.249455 -2.110181 -2.017560 0
M  V30 19 C -4.760256 -3.288746 -1.536111 0
M  V30 20 C -6.021722 -3.880262 -2.051538 0
M  V30 21 F -7.056263 -3.807016 -1.120068 0
M  V30 22 F -5.799451 -5.213593 -2.259506 0
M  V30 23 F -6.490045 -3.222502 -3.170909 0
M  V30 24 C -4.092213 -3.949186 -0.537832 0
M  V30 25 C -2.928025 -3.421138 -0.039693 0
M  V30 26 C -2.429015 -2.243964 -0.527875 0
M  V30 27 O -1.287794 -1.691268 -0.071393 0
M  V30 28 C -0.385302 -2.051543 0.905172 0
M  V30 29 C -0.911931 -2.090116 2.324659 0
M  V30 30 N -1.408337 -0.853406 2.779097 0
M  V30 31 C -0.551524 0.228964 2.989699 0
M  V30 32 C -2.789712 -0.636195 2.732940 0
M  V30 33 C 1.893518 0.804271 -1.344215 0
M  V30 34 C 2.556385 0.376760 -0.223021 0
M  V30 35 C 3.029284 -0.909081 -0.255088 0
M  V30 36 N 3.692026 -1.334208 0.846735 0
M  V30 37 H 6.355185 -3.783185 4.060634 0
M  V30 38 H 5.183251 -2.987204 5.182809 0
M  V30 39 H 6.673846 -2.113271 4.648775 0
M  V30 40 H 5.005572 -2.949072 2.331777 0
M  V30 41 H 3.568366 1.363320 2.825132 0
M  V30 42 H 2.421099 3.061836 1.700183 0
M  V30 43 H 1.250205 3.938966 -0.181786 0
M  V30 44 H 1.189440 3.867356 -2.594096 0
M  V30 45 H 0.939038 2.323542 -3.463468 0
M  V30 46 H -1.067881 3.782437 -3.226837 0
M  V30 47 H -1.045568 3.460751 -1.451107 0
M  V30 48 H -2.179062 1.891237 -3.486874 0
M  V30 49 H -3.223469 -0.103090 -3.111348 0
M  V30 50 H -4.872634 -1.682248 -2.808857 0
M  V30 51 H -4.492141 -4.868160 -0.162871 0
M  V30 52 H -2.461366 -4.007993 0.726396 0
M  V30 53 H 0.119838 -3.042531 0.677662 0
M  V30 54 H 0.416545 -1.251057 0.931681 0
M  V30 55 H -1.663959 -2.865107 2.520154 0
M  V30 56 H -0.041108 -2.354992 3.012789 0
M  V30 57 H -0.752576 1.056935 2.255734 0
M  V30 58 H 0.496288 -0.110604 2.854147 0
M  V30 59 H -0.713111 0.668975 4.001136 0
M  V30 60 H -3.305822 -1.464318 3.286458 0
M  V30 61 H -3.068342 0.344844 3.192199 0
M  V30 62 H -3.209020 -0.603914 1.712620 0
M  V30 63 H 1.678183 0.263216 -2.269822 0
M  V30 64 H 2.886433 -1.545895 -1.098728 0
M  V30 END ATOM
M  V30 BEGIN BOND
M  V30 1 1 1 2
M  V30 2 1 2 3
M  V30 3 2 3 4
M  V30 4 1 3 5
M  V30 5 2 5 6
M  V30 6 1 6 7
M  V30 7 2 7 8
M  V30 8 1 8 9
M  V30 9 2 9 10
M  V30 10 1 10 11
M  V30 11 1 11 12
M  V30 12 1 12 13
M  V30 13 1 13 14
M  V30 14 2 14 15
M  V30 15 1 14 16
M  V30 16 1 16 17
M  V30 17 2 17 18
M  V30 18 1 18 19
M  V30 19 1 19 20
M  V30 20 1 20 21
M  V30 21 1 20 22
M  V30 22 1 20 23
M  V30 23 2 19 24
M  V30 24 1 24 25
M  V30 25 2 25 26
M  V30 26 1 26 27
M  V30 27 1 27 28
M  V30 28 1 28 29
M  V30 29 1 29 30
M  V30 30 1 30 31
M  V30 31 1 30 32
M  V30 32 1 10 33
M  V30 33 2 33 34
M  V30 34 1 34 35
M  V30 35 2 35 36
M  V30 36 1 36 5
M  V30 37 1 34 7
M  V30 38 1 26 17
M  V30 39 1 1 37
M  V30 40 1 1 38
M  V30 41 1 1 39
M  V30 42 1 2 40
M  V30 43 1 6 41
M  V30 44 1 8 42
M  V30 45 1 9 43
M  V30 46 1 11 44
M  V30 47 1 11 45
M  V30 48 1 12 46
M  V30 49 1 12 47
M  V30 50 1 13 48
M  V30 51 1 16 49
M  V30 52 1 18 50
M  V30 53 1 24 51
M  V30 54 1 25 52
M  V30 55 1 28 53
M  V30 56 1 28 54
M  V30 57 1 29 55
M  V30 58 1 29 56
M  V30 59 1 31 57
M  V30 60 1 31 58
M  V30 61 1 31 59
M  V30 62 1 32 60
M  V30 63 1 32 61
M  V30 64 1 32 62
M  V30 65 1 33 63
M  V30 66 1 35 64
M  V30 END BOND
M  V30 END CTAB
M  END
>  <Dataset>  (406) 
ChEMBL_Kinases

>  <Ligand_Instance>  (406) 
nan

>  <PDB_ID>  (406) 
nan

>  <Standardized_SMILES>  (406) 
CNC(=O)c1cc2ccc(CCNC(=O)Nc3cc(C(F)(F)F)ccc3OCCN(C)C)cc2cn1

>  <Name>  (406) 
nan

>  <Pocket>  (406) 
nan

>  <ATP_Site>  (406) 
nan

>  <Peripheral>  (406) 
nan

>  <Num_H_Atoms_ProtBoundConf>  (406) 
nan

>  <Num_Resolved_Atoms>  (406) 
nan

>  <Num_Not_Resolved_Atoms>  (406) 
nan

$$$$
CHEMBL1760623
     RDKit          3D

  0  0  0  0  0  0  0  0  0  0999 V3000
M  V30 BEGIN CTAB
M  V30 COUNTS 53 55 0 0 0
M  V30 BEGIN ATOM
M  V30 1 C 3.132918 -3.865412 5.676272 0
M  V30 2 N 2.880187 -2.912866 4.594578 0
M  V30 3 C 2.037510 -1.783673 4.730049 0
M  V30 4 O 1.431186 -1.493380 5.784975 0
M  V30 5 C 1.875236 -0.908926 3.550911 0
M  V30 6 C 1.066825 0.213498 3.616779 0
M  V30 7 C 0.907135 1.037694 2.521977 0
M  V30 8 C 0.111163 2.176672 2.524515 0
M  V30 9 C -0.001462 2.954676 1.390303 0
M  V30 10 C 0.653477 2.656346 0.213123 0
M  V30 11 C 0.642481 3.431261 -1.037277 0
M  V30 12 C -0.469949 3.235103 -1.976313 0
M  V30 13 N -0.755668 1.968818 -2.526564 0
M  V30 14 C -1.169725 0.743749 -1.994381 0
M  V30 15 O -1.378501 0.653052 -0.780978 0
M  V30 16 N -1.389791 -0.459230 -2.701574 0
M  V30 17 C -1.816068 -1.558097 -1.867951 0
M  V30 18 C -3.180823 -1.722760 -1.678799 0
M  V30 19 C -3.707108 -2.744762 -0.896769 0
M  V30 20 C -5.193381 -2.801860 -0.781876 0
M  V30 21 F -5.773393 -3.052651 -2.002067 0
M  V30 22 F -5.556503 -3.799254 0.116064 0
M  V30 23 F -5.703461 -1.618821 -0.281103 0
M  V30 24 C -2.830796 -3.615380 -0.295887 0
M  V30 25 C -1.470332 -3.462063 -0.476431 0
M  V30 26 C -0.968812 -2.444142 -1.254265 0
M  V30 27 O 0.383525 -2.288789 -1.435943 0
M  V30 28 C 1.285038 -3.187846 -0.815103 0
M  V30 29 C 1.457332 1.505747 0.211344 0
M  V30 30 C 1.565405 0.732561 1.348757 0
M  V30 31 C 2.366345 -0.386353 1.296140 0
M  V30 32 N 2.504658 -1.173504 2.379185 0
M  V30 33 H 2.896788 -4.900872 5.373112 0
M  V30 34 H 4.199334 -3.845719 5.982387 0
M  V30 35 H 2.544466 -3.563103 6.550718 0
M  V30 36 H 3.377639 -3.135037 3.701851 0
M  V30 37 H 0.539535 0.487207 4.502641 0
M  V30 38 H -0.416594 2.440408 3.430274 0
M  V30 39 H -0.599687 3.836904 1.344176 0
M  V30 40 H 0.654575 4.514621 -0.685346 0
M  V30 41 H 1.662238 3.371239 -1.543955 0
M  V30 42 H -1.416175 3.628313 -1.460927 0
M  V30 43 H -0.366224 3.993835 -2.809391 0
M  V30 44 H -0.646821 1.863492 -3.588198 0
M  V30 45 H -1.224019 -0.439144 -3.754063 0
M  V30 46 H -3.862370 -1.012600 -2.170335 0
M  V30 47 H -3.332322 -4.379980 0.294734 0
M  V30 48 H -0.847713 -4.176408 0.020944 0
M  V30 49 H 0.955415 -4.222539 -1.032380 0
M  V30 50 H 2.285994 -2.976545 -1.245151 0
M  V30 51 H 1.324731 -3.044298 0.283933 0
M  V30 52 H 2.001786 1.209112 -0.677195 0
M  V30 53 H 2.920843 -0.692276 0.398079 0
M  V30 END ATOM
M  V30 BEGIN BOND
M  V30 1 1 1 2
M  V30 2 1 2 3
M  V30 3 2 3 4
M  V30 4 1 3 5
M  V30 5 2 5 6
M  V30 6 1 6 7
M  V30 7 2 7 8
M  V30 8 1 8 9
M  V30 9 2 9 10
M  V30 10 1 10 11
M  V30 11 1 11 12
M  V30 12 1 12 13
M  V30 13 1 13 14
M  V30 14 2 14 15
M  V30 15 1 14 16
M  V30 16 1 16 17
M  V30 17 2 17 18
M  V30 18 1 18 19
M  V30 19 1 19 20
M  V30 20 1 20 21
M  V30 21 1 20 22
M  V30 22 1 20 23
M  V30 23 2 19 24
M  V30 24 1 24 25
M  V30 25 2 25 26
M  V30 26 1 26 27
M  V30 27 1 27 28
M  V30 28 1 10 29
M  V30 29 2 29 30
M  V30 30 1 30 31
M  V30 31 2 31 32
M  V30 32 1 32 5
M  V30 33 1 30 7
M  V30 34 1 26 17
M  V30 35 1 1 33
M  V30 36 1 1 34
M  V30 37 1 1 35
M  V30 38 1 2 36
M  V30 39 1 6 37
M  V30 40 1 8 38
M  V30 41 1 9 39
M  V30 42 1 11 40
M  V30 43 1 11 41
M  V30 44 1 12 42
M  V30 45 1 12 43
M  V30 46 1 13 44
M  V30 47 1 16 45
M  V30 48 1 18 46
M  V30 49 1 24 47
M  V30 50 1 25 48
M  V30 51 1 28 49
M  V30 52 1 28 50
M  V30 53 1 28 51
M  V30 54 1 29 52
M  V30 55 1 31 53
M  V30 END BOND
M  V30 END CTAB
M  END
>  <Dataset>  (407) 
ChEMBL_Kinases

>  <Ligand_Instance>  (407) 
nan

>  <PDB_ID>  (407) 
nan

>  <Standardized_SMILES>  (407) 
CNC(=O)c1cc2ccc(CCNC(=O)Nc3cc(C(F)(F)F)ccc3OC)cc2cn1

>  <Name>  (407) 
nan

>  <Pocket>  (407) 
nan

>  <ATP_Site>  (407) 
nan

>  <Peripheral>  (407) 
nan

>  <Num_H_Atoms_ProtBoundConf>  (407) 
nan

>  <Num_Resolved_Atoms>  (407) 
nan

>  <Num_Not_Resolved_Atoms>  (407) 
nan

$$$$
CHEMBL1760622
     RDKit          3D

  0  0  0  0  0  0  0  0  0  0999 V3000
M  V30 BEGIN CTAB
M  V30 COUNTS 49 51 0 0 0
M  V30 BEGIN ATOM
M  V30 1 C 0.657357 -5.808296 5.271304 0
M  V30 2 N 0.848045 -4.996901 4.086521 0
M  V30 3 C 1.832992 -4.087901 3.610354 0
M  V30 4 O 2.836042 -3.847492 4.303845 0
M  V30 5 C 1.520306 -3.527106 2.300921 0
M  V30 6 C 2.459595 -2.638483 1.812830 0
M  V30 7 C 2.307828 -2.023001 0.588057 0
M  V30 8 C 3.249499 -1.137277 0.107647 0
M  V30 9 C 2.991841 -0.583099 -1.128858 0
M  V30 10 C 1.889372 -0.820088 -1.940269 0
M  V30 11 C 1.821706 -0.166145 -3.237449 0
M  V30 12 C 1.298700 1.227127 -3.313241 0
M  V30 13 N -0.017804 1.482283 -2.850943 0
M  V30 14 C -0.690565 1.425652 -1.609824 0
M  V30 15 O -0.020797 1.098873 -0.604104 0
M  V30 16 N -2.041444 1.694955 -1.358141 0
M  V30 17 C -2.458288 1.556866 0.016400 0
M  V30 18 C -2.361832 2.693757 0.798164 0
M  V30 19 C -2.741635 2.647138 2.130999 0
M  V30 20 C -2.695433 3.783416 3.093740 0
M  V30 21 F -1.785713 4.738839 2.657575 0
M  V30 22 F -2.323368 3.393148 4.362109 0
M  V30 23 F -3.971155 4.351439 3.188246 0
M  V30 24 C -3.215153 1.482393 2.690908 0
M  V30 25 C -3.311437 0.337881 1.900935 0
M  V30 26 C -2.934795 0.382526 0.577610 0
M  V30 27 F -3.012270 -0.710040 -0.228125 0
M  V30 28 C 0.981387 -1.731849 -1.377777 0
M  V30 29 C 1.183271 -2.312176 -0.158074 0
M  V30 30 C 0.262877 -3.199911 0.349385 0
M  V30 31 N 0.416603 -3.797726 1.545957 0
M  V30 32 H -0.210484 -5.515986 5.877793 0
M  V30 33 H 0.661630 -6.899428 5.069188 0
M  V30 34 H 1.552671 -5.592592 5.923269 0
M  V30 35 H -0.034847 -5.251618 3.550400 0
M  V30 36 H 3.347155 -2.378998 2.348046 0
M  V30 37 H 4.134204 -0.888270 0.657907 0
M  V30 38 H 3.759552 0.119849 -1.488277 0
M  V30 39 H 2.858715 -0.137614 -3.701941 0
M  V30 40 H 1.230709 -0.800791 -3.968523 0
M  V30 41 H 1.413572 1.614304 -4.363844 0
M  V30 42 H 1.987546 1.923178 -2.714137 0
M  V30 43 H -0.713754 1.796352 -3.579348 0
M  V30 44 H -2.636240 1.974073 -2.189195 0
M  V30 45 H -2.011009 3.669300 0.495371 0
M  V30 46 H -3.535809 1.334482 3.707949 0
M  V30 47 H -3.673992 -0.620022 2.263822 0
M  V30 48 H 0.106141 -1.928168 -2.007185 0
M  V30 49 H -0.618590 -3.434304 -0.222399 0
M  V30 END ATOM
M  V30 BEGIN BOND
M  V30 1 1 1 2
M  V30 2 1 2 3
M  V30 3 2 3 4
M  V30 4 1 3 5
M  V30 5 2 5 6
M  V30 6 1 6 7
M  V30 7 2 7 8
M  V30 8 1 8 9
M  V30 9 2 9 10
M  V30 10 1 10 11
M  V30 11 1 11 12
M  V30 12 1 12 13
M  V30 13 1 13 14
M  V30 14 2 14 15
M  V30 15 1 14 16
M  V30 16 1 16 17
M  V30 17 2 17 18
M  V30 18 1 18 19
M  V30 19 1 19 20
M  V30 20 1 20 21
M  V30 21 1 20 22
M  V30 22 1 20 23
M  V30 23 2 19 24
M  V30 24 1 24 25
M  V30 25 2 25 26
M  V30 26 1 26 27
M  V30 27 1 10 28
M  V30 28 2 28 29
M  V30 29 1 29 30
M  V30 30 2 30 31
M  V30 31 1 31 5
M  V30 32 1 29 7
M  V30 33 1 26 17
M  V30 34 1 1 32
M  V30 35 1 1 33
M  V30 36 1 1 34
M  V30 37 1 2 35
M  V30 38 1 6 36
M  V30 39 1 8 37
M  V30 40 1 9 38
M  V30 41 1 11 39
M  V30 42 1 11 40
M  V30 43 1 12 41
M  V30 44 1 12 42
M  V30 45 1 13 43
M  V30 46 1 16 44
M  V30 47 1 18 45
M  V30 48 1 24 46
M  V30 49 1 25 47
M  V30 50 1 28 48
M  V30 51 1 30 49
M  V30 END BOND
M  V30 END CTAB
M  END
>  <Dataset>  (408) 
ChEMBL_Kinases

>  <Ligand_Instance>  (408) 
nan

>  <PDB_ID>  (408) 
nan

>  <Standardized_SMILES>  (408) 
CNC(=O)c1cc2ccc(CCNC(=O)Nc3cc(C(F)(F)F)ccc3F)cc2cn1

>  <Name>  (408) 
nan

>  <Pocket>  (408) 
nan

>  <ATP_Site>  (408) 
nan

>  <Peripheral>  (408) 
nan

>  <Num_H_Atoms_ProtBoundConf>  (408) 
nan

>  <Num_Resolved_Atoms>  (408) 
nan

>  <Num_Not_Resolved_Atoms>  (408) 
nan

$$$$
CHEMBL175481
     RDKit          3D

  0  0  0  0  0  0  0  0  0  0999 V3000
M  V30 BEGIN CTAB
M  V30 COUNTS 38 41 0 0 0
M  V30 BEGIN ATOM
M  V30 1 O 0.698143 -8.178450 1.975541 0
M  V30 2 N 1.619564 -7.519646 2.498040 0 CHG=1 VAL=4
M  V30 3 O 2.284522 -8.479988 3.222465 0 CHG=-1 VAL=1
M  V30 4 C 1.818793 -6.123729 2.307767 0
M  V30 5 C 2.893607 -5.563426 2.967647 0
M  V30 6 C 3.093548 -4.192377 2.783920 0
M  V30 7 C 2.228528 -3.487190 1.973143 0
M  V30 8 N 2.249179 -2.172048 1.670265 0
M  V30 9 C 1.200455 -1.954135 0.841427 0
M  V30 10 C 0.763182 -0.708402 0.216495 0
M  V30 11 C -0.328143 -0.599803 -0.617538 0
M  V30 12 C -0.668692 0.621820 -1.165000 0
M  V30 13 C 0.074538 1.776010 -0.893966 0
M  V30 14 O -0.420415 2.903204 -1.532871 0
M  V30 15 C -1.370702 3.737288 -0.957990 0
M  V30 16 C -1.884329 4.865747 -1.565086 0
M  V30 17 C -2.828781 5.677202 -0.970026 0
M  V30 18 C -3.304842 5.370880 0.298803 0
M  V30 19 C -2.799126 4.243505 0.918623 0
M  V30 20 C -1.854440 3.434676 0.319587 0
M  V30 21 C 1.162250 1.663626 -0.061693 0
M  V30 22 C 1.502562 0.444127 0.485079 0
M  V30 23 N 0.552743 -3.133250 0.647332 0
M  V30 24 C 1.171045 -4.106425 1.340346 0
M  V30 25 C 0.924466 -5.462891 1.486029 0
M  V30 26 H 3.537634 -6.169652 3.590937 0
M  V30 27 H 3.925052 -3.715977 3.284030 0
M  V30 28 H 2.882455 -1.400226 1.952209 0
M  V30 29 H -0.879301 -1.506469 -0.806259 0
M  V30 30 H -1.551208 0.588788 -1.810240 0
M  V30 31 H -1.501130 5.088289 -2.553881 0
M  V30 32 H -3.194255 6.554517 -1.502719 0
M  V30 33 H -4.045963 6.000433 0.775518 0
M  V30 34 H -3.182327 4.026886 1.899397 0
M  V30 35 H -1.473765 2.554825 0.828460 0
M  V30 36 H 1.688256 2.591303 0.103340 0
M  V30 37 H 2.379844 0.467181 1.128841 0
M  V30 38 H 0.111774 -5.957357 1.004210 0
M  V30 END ATOM
M  V30 BEGIN BOND
M  V30 1 2 1 2
M  V30 2 1 2 3
M  V30 3 1 2 4
M  V30 4 2 4 5
M  V30 5 1 5 6
M  V30 6 2 6 7
M  V30 7 1 7 8
M  V30 8 1 8 9
M  V30 9 1 9 10
M  V30 10 2 10 11
M  V30 11 1 11 12
M  V30 12 2 12 13
M  V30 13 1 13 14
M  V30 14 1 14 15
M  V30 15 2 15 16
M  V30 16 1 16 17
M  V30 17 2 17 18
M  V30 18 1 18 19
M  V30 19 2 19 20
M  V30 20 1 13 21
M  V30 21 2 21 22
M  V30 22 2 9 23
M  V30 23 1 23 24
M  V30 24 2 24 25
M  V30 25 1 25 4
M  V30 26 1 24 7
M  V30 27 1 22 10
M  V30 28 1 20 15
M  V30 29 1 5 26
M  V30 30 1 6 27
M  V30 31 1 8 28
M  V30 32 1 11 29
M  V30 33 1 12 30
M  V30 34 1 16 31
M  V30 35 1 17 32
M  V30 36 1 18 33
M  V30 37 1 19 34
M  V30 38 1 20 35
M  V30 39 1 21 36
M  V30 40 1 22 37
M  V30 41 1 25 38
M  V30 END BOND
M  V30 END CTAB
M  END
>  <Dataset>  (409) 
ChEMBL_Kinases

>  <Ligand_Instance>  (409) 
nan

>  <PDB_ID>  (409) 
nan

>  <Standardized_SMILES>  (409) 
O=[N+]([O-])c1ccc2[nH]c(-c3ccc(Oc4ccccc4)cc3)nc2c1

>  <Name>  (409) 
nan

>  <Pocket>  (409) 
nan

>  <ATP_Site>  (409) 
nan

>  <Peripheral>  (409) 
nan

>  <Num_H_Atoms_ProtBoundConf>  (409) 
nan

>  <Num_Resolved_Atoms>  (409) 
nan

>  <Num_Not_Resolved_Atoms>  (409) 
nan

$$$$
CHEMBL17551
     RDKit          3D

  0  0  0  0  0  0  0  0  0  0999 V3000
M  V30 BEGIN CTAB
M  V30 COUNTS 17 18 0 0 0
M  V30 BEGIN ATOM
M  V30 1 N -1.758835 0.863361 0.487974 0
M  V30 2 C -0.432175 0.546965 0.880546 0
M  V30 3 C -0.162826 0.016037 2.123682 0
M  V30 4 C 1.104859 -0.314939 2.570198 0
M  V30 5 C 2.159175 -0.096618 1.711071 0
M  V30 6 N 3.485551 -0.314439 1.858007 0
M  V30 7 N 4.096186 0.057401 0.748705 0
M  V30 8 C 3.166348 0.517190 -0.119850 0
M  V30 9 C 1.898210 0.434659 0.464558 0
M  V30 10 C 0.626415 0.762312 0.027552 0
M  V30 11 H -2.009328 0.952334 -0.519408 0
M  V30 12 H -2.466985 1.001478 1.260811 0
M  V30 13 H -1.004260 -0.147899 2.783655 0
M  V30 14 H 1.235547 -0.731164 3.568810 0
M  V30 15 H 3.956899 -0.708348 2.699237 0
M  V30 16 H 3.355829 0.890945 -1.108168 0
M  V30 17 H 0.466343 1.177780 -0.960355 0
M  V30 END ATOM
M  V30 BEGIN BOND
M  V30 1 1 1 2
M  V30 2 2 2 3
M  V30 3 1 3 4
M  V30 4 2 4 5
M  V30 5 1 5 6
M  V30 6 1 6 7
M  V30 7 2 7 8
M  V30 8 1 8 9
M  V30 9 2 9 10
M  V30 10 1 10 2
M  V30 11 1 9 5
M  V30 12 1 1 11
M  V30 13 1 1 12
M  V30 14 1 3 13
M  V30 15 1 4 14
M  V30 16 1 6 15
M  V30 17 1 8 16
M  V30 18 1 10 17
M  V30 END BOND
M  V30 END CTAB
M  END
>  <Dataset>  (410) 
ChEMBL_Kinases

>  <Ligand_Instance>  (410) 
nan

>  <PDB_ID>  (410) 
nan

>  <Standardized_SMILES>  (410) 
Nc1ccc2[nH]ncc2c1

>  <Name>  (410) 
nan

>  <Pocket>  (410) 
nan

>  <ATP_Site>  (410) 
nan

>  <Peripheral>  (410) 
nan

>  <Num_H_Atoms_ProtBoundConf>  (410) 
nan

>  <Num_Resolved_Atoms>  (410) 
nan

>  <Num_Not_Resolved_Atoms>  (410) 
nan

$$$$
CHEMBL175553
     RDKit          3D

  0  0  0  0  0  0  0  0  0  0999 V3000
M  V30 BEGIN CTAB
M  V30 COUNTS 40 43 0 0 0
M  V30 BEGIN ATOM
M  V30 1 N 1.198191 -8.355768 -1.052464 0
M  V30 2 C 1.824743 -7.111987 -0.689790 0
M  V30 3 O 3.030033 -7.219004 -0.363320 0
M  V30 4 C 0.962258 -5.942640 -0.761129 0
M  V30 5 C -0.366503 -5.905643 -1.132916 0
M  V30 6 C -0.995800 -4.677676 -1.129339 0
M  V30 7 C -0.349381 -3.521134 -0.774147 0
M  V30 8 N -0.735998 -2.228504 -0.692061 0
M  V30 9 C 0.284210 -1.450108 -0.286858 0
M  V30 10 C 0.252067 -0.005085 -0.081488 0
M  V30 11 C -0.910689 0.704247 -0.306250 0
M  V30 12 C -0.965240 2.071927 -0.118724 0
M  V30 13 C 0.171974 2.733138 0.302225 0
M  V30 14 O 0.365302 4.086611 0.558003 0
M  V30 15 C 0.130740 4.584875 1.849042 0
M  V30 16 C 1.207062 4.586562 2.741804 0
M  V30 17 C 1.065852 5.058344 4.030945 0
M  V30 18 C -0.138226 5.540908 4.475565 0
M  V30 19 Cl -0.406565 6.159083 6.096003 0
M  V30 20 C -1.206569 5.541567 3.596372 0
M  V30 21 Cl -2.783489 6.129349 4.046924 0
M  V30 22 C -1.075216 5.072116 2.306048 0
M  V30 23 C 1.350574 2.022832 0.531339 0
M  V30 24 C 1.399095 0.638778 0.339671 0
M  V30 25 N 1.322853 -2.265302 -0.112950 0
M  V30 26 C 0.996559 -3.539425 -0.394707 0
M  V30 27 C 1.620324 -4.782230 -0.402057 0
M  V30 28 H 0.796284 -8.772900 -0.173293 0
M  V30 29 H 0.858128 -8.645363 -0.123573 0
M  V30 30 H -0.798911 -6.861154 -1.397506 0
M  V30 31 H -2.019644 -4.667336 -1.418498 0
M  V30 32 H -1.696683 -1.886243 -0.914032 0
M  V30 33 H -1.829406 0.240447 -0.635875 0
M  V30 34 H -1.797819 2.732261 -0.257036 0
M  V30 35 H 2.191637 4.217417 2.454057 0
M  V30 36 H 1.896241 5.068116 4.744950 0
M  V30 37 H -1.896594 5.057149 1.583967 0
M  V30 38 H 2.299822 2.421359 0.859938 0
M  V30 39 H 2.282514 0.038587 0.501346 0
M  V30 40 H 2.669751 -4.716615 -0.094357 0
M  V30 END ATOM
M  V30 BEGIN BOND
M  V30 1 1 1 2
M  V30 2 2 2 3
M  V30 3 1 2 4
M  V30 4 2 4 5
M  V30 5 1 5 6
M  V30 6 2 6 7
M  V30 7 1 7 8
M  V30 8 1 8 9
M  V30 9 1 9 10
M  V30 10 2 10 11
M  V30 11 1 11 12
M  V30 12 2 12 13
M  V30 13 1 13 14
M  V30 14 1 14 15
M  V30 15 2 15 16
M  V30 16 1 16 17
M  V30 17 2 17 18
M  V30 18 1 18 19
M  V30 19 1 18 20
M  V30 20 1 20 21
M  V30 21 2 20 22
M  V30 22 1 13 23
M  V30 23 2 23 24
M  V30 24 2 9 25
M  V30 25 1 25 26
M  V30 26 2 26 27
M  V30 27 1 27 4
M  V30 28 1 26 7
M  V30 29 1 24 10
M  V30 30 1 22 15
M  V30 31 1 1 28
M  V30 32 1 1 29
M  V30 33 1 5 30
M  V30 34 1 6 31
M  V30 35 1 8 32
M  V30 36 1 11 33
M  V30 37 1 12 34
M  V30 38 1 16 35
M  V30 39 1 17 36
M  V30 40 1 22 37
M  V30 41 1 23 38
M  V30 42 1 24 39
M  V30 43 1 27 40
M  V30 END BOND
M  V30 END CTAB
M  END
>  <Dataset>  (411) 
ChEMBL_Kinases

>  <Ligand_Instance>  (411) 
nan

>  <PDB_ID>  (411) 
nan

>  <Standardized_SMILES>  (411) 
NC(=O)c1ccc2[nH]c(-c3ccc(Oc4ccc(Cl)c(Cl)c4)cc3)nc2c1

>  <Name>  (411) 
nan

>  <Pocket>  (411) 
nan

>  <ATP_Site>  (411) 
nan

>  <Peripheral>  (411) 
nan

>  <Num_H_Atoms_ProtBoundConf>  (411) 
nan

>  <Num_Resolved_Atoms>  (411) 
nan

>  <Num_Not_Resolved_Atoms>  (411) 
nan

$$$$
CHEMBL175676
     RDKit          3D

  0  0  0  0  0  0  0  0  0  0999 V3000
M  V30 BEGIN CTAB
M  V30 COUNTS 40 43 0 0 0
M  V30 BEGIN ATOM
M  V30 1 N 1.398052 -7.410358 -0.238830 0
M  V30 2 C 1.722022 -6.223618 -0.952455 0
M  V30 3 O 2.349482 -6.678435 -1.934960 0
M  V30 4 C 1.313716 -4.913977 -0.460250 0
M  V30 5 C 0.601423 -4.834924 0.718562 0
M  V30 6 C 0.268659 -3.550522 1.088224 0
M  V30 7 C 0.597965 -2.416276 0.373318 0
M  V30 8 N 0.386928 -1.093842 0.534041 0
M  V30 9 C 0.944709 -0.429386 -0.494483 0
M  V30 10 C 0.960014 1.033002 -0.732309 0
M  V30 11 C 1.567305 1.608476 -1.830650 0
M  V30 12 C 1.512479 2.996335 -1.940477 0
M  V30 13 C 0.878260 3.780721 -0.994518 0
M  V30 14 C 0.271829 3.199780 0.103180 0
M  V30 15 O -0.372892 3.977530 1.067648 0
M  V30 16 C -0.962009 3.326276 2.146540 0
M  V30 17 C -0.255206 3.071891 3.322677 0
M  V30 18 C -0.791913 2.430319 4.420700 0
M  V30 19 C -2.111243 2.039710 4.289672 0
M  V30 20 Cl -2.902429 1.217161 5.614382 0
M  V30 21 C -2.881799 2.250323 3.166586 0
M  V30 22 Cl -4.551163 1.734559 3.052133 0
M  V30 23 C -2.275702 2.899941 2.105267 0
M  V30 24 C 0.330382 1.828575 0.204361 0
M  V30 25 N 1.509477 -1.350211 -1.304603 0
M  V30 26 C 1.311124 -2.586228 -0.793751 0
M  V30 27 C 1.691949 -3.855653 -1.245899 0
M  V30 28 H 1.531287 -7.739379 0.754274 0
M  V30 29 H 1.518098 -7.766639 0.750177 0
M  V30 30 H 0.329937 -5.707207 1.298830 0
M  V30 31 H -0.296747 -3.402336 2.011554 0
M  V30 32 H -0.124404 -0.670376 1.327049 0
M  V30 33 H 2.058202 0.965869 -2.557687 0
M  V30 34 H 2.003078 3.417830 -2.821475 0
M  V30 35 H 0.861111 4.854441 -1.121717 0
M  V30 36 H 0.783385 3.402503 3.370672 0
M  V30 37 H -0.222707 2.247329 5.315685 0
M  V30 38 H -2.854559 3.086816 1.193205 0
M  V30 39 H -0.144747 1.384285 1.062811 0
M  V30 40 H 2.250126 -3.972750 -2.161656 0
M  V30 END ATOM
M  V30 BEGIN BOND
M  V30 1 1 1 2
M  V30 2 2 2 3
M  V30 3 1 2 4
M  V30 4 2 4 5
M  V30 5 1 5 6
M  V30 6 2 6 7
M  V30 7 1 7 8
M  V30 8 1 8 9
M  V30 9 1 9 10
M  V30 10 2 10 11
M  V30 11 1 11 12
M  V30 12 2 12 13
M  V30 13 1 13 14
M  V30 14 1 14 15
M  V30 15 1 15 16
M  V30 16 2 16 17
M  V30 17 1 17 18
M  V30 18 2 18 19
M  V30 19 1 19 20
M  V30 20 1 19 21
M  V30 21 1 21 22
M  V30 22 2 21 23
M  V30 23 2 14 24
M  V30 24 2 9 25
M  V30 25 1 25 26
M  V30 26 2 26 27
M  V30 27 1 27 4
M  V30 28 1 26 7
M  V30 29 1 24 10
M  V30 30 1 23 16
M  V30 31 1 1 28
M  V30 32 1 1 29
M  V30 33 1 5 30
M  V30 34 1 6 31
M  V30 35 1 8 32
M  V30 36 1 11 33
M  V30 37 1 12 34
M  V30 38 1 13 35
M  V30 39 1 17 36
M  V30 40 1 18 37
M  V30 41 1 23 38
M  V30 42 1 24 39
M  V30 43 1 27 40
M  V30 END BOND
M  V30 END CTAB
M  END
>  <Dataset>  (412) 
ChEMBL_Kinases

>  <Ligand_Instance>  (412) 
nan

>  <PDB_ID>  (412) 
nan

>  <Standardized_SMILES>  (412) 
NC(=O)c1ccc2[nH]c(-c3cccc(Oc4ccc(Cl)c(Cl)c4)c3)nc2c1

>  <Name>  (412) 
nan

>  <Pocket>  (412) 
nan

>  <ATP_Site>  (412) 
nan

>  <Peripheral>  (412) 
nan

>  <Num_H_Atoms_ProtBoundConf>  (412) 
nan

>  <Num_Resolved_Atoms>  (412) 
nan

>  <Num_Not_Resolved_Atoms>  (412) 
nan

$$$$
CHEMBL175780
     RDKit          3D

  0  0  0  0  0  0  0  0  0  0999 V3000
M  V30 BEGIN CTAB
M  V30 COUNTS 36 38 0 0 0
M  V30 BEGIN ATOM
M  V30 1 C -0.330231 -5.581401 4.122078 0
M  V30 2 C 0.825763 -5.929401 3.220775 0
M  V30 3 O 1.616187 -4.810137 2.866848 0
M  V30 4 C 1.072437 -3.738849 2.178058 0
M  V30 5 C -0.201316 -3.493443 1.707138 0
M  V30 6 C -0.470835 -2.316893 1.040138 0
M  V30 7 C 0.517776 -1.372913 0.833341 0
M  V30 8 C 0.186298 -0.145998 0.120363 0
M  V30 9 N 1.055669 0.864037 -0.150680 0
M  V30 10 C 0.384391 1.830336 -0.827354 0
M  V30 11 C 0.834653 3.028979 -1.312211 0
M  V30 12 C -0.126393 3.751664 -1.947695 0
M  V30 13 C 0.101308 5.046243 -2.547513 0
M  V30 14 N 1.466775 5.517815 -2.390318 0
M  V30 15 O 0.172317 6.141498 -3.090555 0
M  V30 16 C -1.443692 3.385376 -2.127857 0
M  V30 17 C -1.881436 2.155247 -1.623604 0
M  V30 18 C -0.917515 1.412653 -0.977228 0
M  V30 19 N -1.001664 0.215277 -0.393000 0
M  V30 20 C 1.799699 -1.584629 1.289676 0
M  V30 21 C 2.069497 -2.778128 1.965265 0
M  V30 22 H -0.388233 -4.480554 4.266740 0
M  V30 23 H -1.268361 -5.905207 3.650135 0
M  V30 24 H -0.153183 -6.099952 5.097979 0
M  V30 25 H 1.438056 -6.749137 3.648668 0
M  V30 26 H 0.429855 -6.333758 2.249185 0
M  V30 27 H -0.862104 -4.293093 1.928789 0
M  V30 28 H -1.503264 -2.195640 0.697468 0
M  V30 29 H 1.830704 3.421416 -1.234477 0
M  V30 30 H 2.011683 5.549714 -1.472616 0
M  V30 31 H 2.271660 5.687099 -1.712019 0
M  V30 32 H -2.233343 3.943052 -2.631227 0
M  V30 33 H -2.865568 1.766088 -1.699441 0
M  V30 34 H -1.860618 -0.399648 -0.319172 0
M  V30 35 H 2.518842 -0.814915 1.097144 0
M  V30 36 H 3.117852 -2.819666 2.272162 0
M  V30 END ATOM
M  V30 BEGIN BOND
M  V30 1 1 1 2
M  V30 2 1 2 3
M  V30 3 1 3 4
M  V30 4 2 4 5
M  V30 5 1 5 6
M  V30 6 2 6 7
M  V30 7 1 7 8
M  V30 8 2 8 9
M  V30 9 1 9 10
M  V30 10 2 10 11
M  V30 11 1 11 12
M  V30 12 1 12 13
M  V30 13 1 13 14
M  V30 14 2 13 15
M  V30 15 2 12 16
M  V30 16 1 16 17
M  V30 17 2 17 18
M  V30 18 1 18 19
M  V30 19 1 7 20
M  V30 20 2 20 21
M  V30 21 1 21 4
M  V30 22 1 19 8
M  V30 23 1 18 10
M  V30 24 1 1 22
M  V30 25 1 1 23
M  V30 26 1 1 24
M  V30 27 1 2 25
M  V30 28 1 2 26
M  V30 29 1 5 27
M  V30 30 1 6 28
M  V30 31 1 11 29
M  V30 32 1 14 30
M  V30 33 1 14 31
M  V30 34 1 16 32
M  V30 35 1 17 33
M  V30 36 1 19 34
M  V30 37 1 20 35
M  V30 38 1 21 36
M  V30 END BOND
M  V30 END CTAB
M  END
>  <Dataset>  (413) 
ChEMBL_Kinases

>  <Ligand_Instance>  (413) 
nan

>  <PDB_ID>  (413) 
nan

>  <Standardized_SMILES>  (413) 
CCOc1ccc(-c2nc3cc(C(N)=O)ccc3[nH]2)cc1

>  <Name>  (413) 
nan

>  <Pocket>  (413) 
nan

>  <ATP_Site>  (413) 
nan

>  <Peripheral>  (413) 
nan

>  <Num_H_Atoms_ProtBoundConf>  (413) 
nan

>  <Num_Resolved_Atoms>  (413) 
nan

>  <Num_Not_Resolved_Atoms>  (413) 
nan

$$$$
CHEMBL175879
     RDKit          3D

  0  0  0  0  0  0  0  0  0  0999 V3000
M  V30 BEGIN CTAB
M  V30 COUNTS 43 46 0 0 0
M  V30 BEGIN ATOM
M  V30 1 C -1.208325 -7.926734 0.165876 0
M  V30 2 C -0.749370 -6.680413 -0.508054 0
M  V30 3 C -0.253735 -6.705406 -1.785150 0
M  V30 4 C 0.163676 -5.529481 -2.381073 0
M  V30 5 C 0.085522 -4.322653 -1.697704 0
M  V30 6 O 0.496946 -3.117606 -2.266663 0
M  V30 7 C 0.395753 -1.936465 -1.534313 0
M  V30 8 C -0.688302 -1.082403 -1.505086 0
M  V30 9 C -0.663456 0.064032 -0.733353 0
M  V30 10 C 0.468990 0.336734 0.007774 0
M  V30 11 C 0.515843 1.544669 0.831084 0
M  V30 12 N 1.546376 1.937693 1.601415 0
M  V30 13 C 1.251493 3.095647 2.222427 0
M  V30 14 C 2.007309 3.849423 3.095732 0
M  V30 15 C 1.403473 5.003364 3.561177 0
M  V30 16 C 2.062494 5.926321 4.498606 0
M  V30 17 N 3.377749 5.577634 4.918551 0
M  V30 18 O 1.667922 7.002862 5.016361 0
M  V30 19 C 0.129464 5.359985 3.166863 0
M  V30 20 C -0.600024 4.562443 2.277602 0
M  V30 21 C -0.016852 3.400434 1.796587 0
M  V30 22 N -0.470971 2.453551 0.944688 0
M  V30 23 C 1.554430 -0.515171 -0.019337 0
M  V30 24 C 1.544283 -1.679571 -0.795696 0
M  V30 25 C -0.420318 -4.346165 -0.413953 0
M  V30 26 C -0.843223 -5.504109 0.203215 0
M  V30 27 H -0.339498 -8.366659 0.693947 0
M  V30 28 H -1.547863 -8.689844 -0.555502 0
M  V30 29 H -2.049557 -7.714976 0.860665 0
M  V30 30 H -0.209066 -7.673240 -2.287127 0
M  V30 31 H 0.554773 -5.556801 -3.391830 0
M  V30 32 H -1.493131 -1.419180 -2.126514 0
M  V30 33 H -1.538104 0.691873 -0.750342 0
M  V30 34 H 2.990459 3.610212 3.423868 0
M  V30 35 H 3.930404 5.003451 5.593038 0
M  V30 36 H 3.114868 4.923306 5.677756 0
M  V30 37 H -0.341323 6.263007 3.531965 0
M  V30 38 H -1.602624 4.832718 1.960412 0
M  V30 39 H -1.377825 2.385119 0.450558 0
M  V30 40 H 2.407558 -0.235630 0.588077 0
M  V30 41 H 2.431934 -2.297905 -0.765982 0
M  V30 42 H -0.477267 -3.399051 0.111181 0
M  V30 43 H -1.235918 -5.504396 1.207045 0
M  V30 END ATOM
M  V30 BEGIN BOND
M  V30 1 1 1 2
M  V30 2 2 2 3
M  V30 3 1 3 4
M  V30 4 2 4 5
M  V30 5 1 5 6
M  V30 6 1 6 7
M  V30 7 2 7 8
M  V30 8 1 8 9
M  V30 9 2 9 10
M  V30 10 1 10 11
M  V30 11 2 11 12
M  V30 12 1 12 13
M  V30 13 2 13 14
M  V30 14 1 14 15
M  V30 15 1 15 16
M  V30 16 1 16 17
M  V30 17 2 16 18
M  V30 18 2 15 19
M  V30 19 1 19 20
M  V30 20 2 20 21
M  V30 21 1 21 22
M  V30 22 1 10 23
M  V30 23 2 23 24
M  V30 24 1 5 25
M  V30 25 2 25 26
M  V30 26 1 26 2
M  V30 27 1 24 7
M  V30 28 1 22 11
M  V30 29 1 21 13
M  V30 30 1 1 27
M  V30 31 1 1 28
M  V30 32 1 1 29
M  V30 33 1 3 30
M  V30 34 1 4 31
M  V30 35 1 8 32
M  V30 36 1 9 33
M  V30 37 1 14 34
M  V30 38 1 17 35
M  V30 39 1 17 36
M  V30 40 1 19 37
M  V30 41 1 20 38
M  V30 42 1 22 39
M  V30 43 1 23 40
M  V30 44 1 24 41
M  V30 45 1 25 42
M  V30 46 1 26 43
M  V30 END BOND
M  V30 END CTAB
M  END
>  <Dataset>  (414) 
ChEMBL_Kinases

>  <Ligand_Instance>  (414) 
nan

>  <PDB_ID>  (414) 
nan

>  <Standardized_SMILES>  (414) 
Cc1ccc(Oc2ccc(-c3nc4cc(C(N)=O)ccc4[nH]3)cc2)cc1

>  <Name>  (414) 
nan

>  <Pocket>  (414) 
nan

>  <ATP_Site>  (414) 
nan

>  <Peripheral>  (414) 
nan

>  <Num_H_Atoms_ProtBoundConf>  (414) 
nan

>  <Num_Resolved_Atoms>  (414) 
nan

>  <Num_Not_Resolved_Atoms>  (414) 
nan

$$$$
CHEMBL1760007
     RDKit          3D

  0  0  0  0  0  0  0  0  0  0999 V3000
M  V30 BEGIN CTAB
M  V30 COUNTS 53 55 0 0 0
M  V30 BEGIN ATOM
M  V30 1 C -1.457948 -4.241296 6.351776 0
M  V30 2 N -0.933157 -3.954673 5.048501 0
M  V30 3 C -0.021078 -2.859549 4.873952 0
M  V30 4 O 0.236187 -2.232792 5.937677 0
M  V30 5 C 0.544960 -2.521652 3.569088 0
M  V30 6 C 1.409850 -1.442220 3.546429 0
M  V30 7 C 2.002392 -1.035284 2.366941 0
M  V30 8 C 2.873827 0.029758 2.265229 0
M  V30 9 C 3.416570 0.361272 1.040708 0
M  V30 10 C 3.125664 -0.340049 -0.135443 0
M  V30 11 C 3.849847 0.150957 -1.291240 0
M  V30 12 C 3.356620 1.333617 -2.038589 0
M  V30 13 N 2.037811 1.159873 -2.556100 0
M  V30 14 C 0.743395 1.009585 -2.018906 0
M  V30 15 O 0.618551 1.060130 -0.771839 0
M  V30 16 N -0.468894 0.802996 -2.724844 0
M  V30 17 C -1.636538 0.685874 -1.899823 0
M  V30 18 C -2.378668 1.821857 -1.556742 0
M  V30 19 C -3.497835 1.749041 -0.772057 0
M  V30 20 C -4.307296 2.941154 -0.390823 0
M  V30 21 C -3.928724 0.527861 -0.291380 0
M  V30 22 Cl -5.348808 0.346123 0.717660 0
M  V30 23 C -3.224228 -0.608562 -0.608384 0
M  V30 24 C -2.106956 -0.508841 -1.395780 0
M  V30 25 O -1.396850 -1.640021 -1.717437 0
M  V30 26 C -1.770776 -2.929608 -1.265958 0
M  V30 27 C 2.235373 -1.419460 -0.001214 0
M  V30 28 C 1.695544 -1.746842 1.225003 0
M  V30 29 C 0.832381 -2.823534 1.249650 0
M  V30 30 N 0.265738 -3.201077 2.418197 0
M  V30 31 H -1.503709 -5.348243 6.458338 0
M  V30 32 H -2.494604 -3.818057 6.414271 0
M  V30 33 H -0.778767 -3.811065 7.105956 0
M  V30 34 H -1.179485 -4.506877 4.197601 0
M  V30 35 H 1.648124 -0.886203 4.445279 0
M  V30 36 H 3.095446 0.567855 3.174648 0
M  V30 37 H 4.091075 1.222854 1.092266 0
M  V30 38 H 4.950072 0.308085 -0.997775 0
M  V30 39 H 3.964258 -0.753772 -1.984514 0
M  V30 40 H 4.043320 1.569497 -2.906418 0
M  V30 41 H 3.402077 2.271150 -1.403293 0
M  V30 42 H 1.942427 1.125851 -3.616611 0
M  V30 43 H -0.396291 0.755999 -3.773306 0
M  V30 44 H -2.057652 2.804108 -1.925692 0
M  V30 45 H -5.335373 2.652915 -0.130953 0
M  V30 46 H -3.779683 3.451512 0.422870 0
M  V30 47 H -4.366872 3.591543 -1.307000 0
M  V30 48 H -3.511438 -1.606251 -0.260487 0
M  V30 49 H -0.928188 -3.606763 -1.562111 0
M  V30 50 H -2.714352 -3.228043 -1.792348 0
M  V30 51 H -1.921343 -2.951631 -0.166139 0
M  V30 52 H 2.062936 -1.907275 -0.950643 0
M  V30 53 H 0.587132 -3.385815 0.359411 0
M  V30 END ATOM
M  V30 BEGIN BOND
M  V30 1 1 1 2
M  V30 2 1 2 3
M  V30 3 2 3 4
M  V30 4 1 3 5
M  V30 5 2 5 6
M  V30 6 1 6 7
M  V30 7 2 7 8
M  V30 8 1 8 9
M  V30 9 2 9 10
M  V30 10 1 10 11
M  V30 11 1 11 12
M  V30 12 1 12 13
M  V30 13 1 13 14
M  V30 14 2 14 15
M  V30 15 1 14 16
M  V30 16 1 16 17
M  V30 17 2 17 18
M  V30 18 1 18 19
M  V30 19 1 19 20
M  V30 20 2 19 21
M  V30 21 1 21 22
M  V30 22 1 21 23
M  V30 23 2 23 24
M  V30 24 1 24 25
M  V30 25 1 25 26
M  V30 26 1 10 27
M  V30 27 2 27 28
M  V30 28 1 28 29
M  V30 29 2 29 30
M  V30 30 1 30 5
M  V30 31 1 28 7
M  V30 32 1 24 17
M  V30 33 1 1 31
M  V30 34 1 1 32
M  V30 35 1 1 33
M  V30 36 1 2 34
M  V30 37 1 6 35
M  V30 38 1 8 36
M  V30 39 1 9 37
M  V30 40 1 11 38
M  V30 41 1 11 39
M  V30 42 1 12 40
M  V30 43 1 12 41
M  V30 44 1 13 42
M  V30 45 1 16 43
M  V30 46 1 18 44
M  V30 47 1 20 45
M  V30 48 1 20 46
M  V30 49 1 20 47
M  V30 50 1 23 48
M  V30 51 1 26 49
M  V30 52 1 26 50
M  V30 53 1 26 51
M  V30 54 1 27 52
M  V30 55 1 29 53
M  V30 END BOND
M  V30 END CTAB
M  END
>  <Dataset>  (415) 
ChEMBL_Kinases

>  <Ligand_Instance>  (415) 
nan

>  <PDB_ID>  (415) 
nan

>  <Standardized_SMILES>  (415) 
CNC(=O)c1cc2ccc(CCNC(=O)Nc3cc(C)c(Cl)cc3OC)cc2cn1

>  <Name>  (415) 
nan

>  <Pocket>  (415) 
nan

>  <ATP_Site>  (415) 
nan

>  <Peripheral>  (415) 
nan

>  <Num_H_Atoms_ProtBoundConf>  (415) 
nan

>  <Num_Resolved_Atoms>  (415) 
nan

>  <Num_Not_Resolved_Atoms>  (415) 
nan

$$$$
CHEMBL176015
     RDKit          3D

  0  0  0  0  0  0  0  0  0  0999 V3000
M  V30 BEGIN CTAB
M  V30 COUNTS 41 44 0 0 0
M  V30 BEGIN ATOM
M  V30 1 N 3.362340 -7.474557 1.318231 0
M  V30 2 S 3.052901 -6.999439 -0.320081 0
M  V30 3 O 4.283512 -6.461606 -0.991922 0
M  V30 4 O 2.521996 -8.186662 -1.083466 0
M  V30 5 C 1.794978 -5.799320 -0.296522 0
M  V30 6 C 0.439260 -6.044350 -0.373490 0
M  V30 7 C -0.475454 -5.003526 -0.345189 0
M  V30 8 C -0.078728 -3.681422 -0.239493 0
M  V30 9 N -0.687234 -2.480513 -0.186839 0
M  V30 10 C 0.255139 -1.524336 -0.081062 0
M  V30 11 C -0.004820 -0.087060 0.002919 0
M  V30 12 C -1.313927 0.356156 -0.026225 0
M  V30 13 C -1.545060 1.737137 0.055345 0
M  V30 14 C -0.458059 2.585286 0.160501 0
M  V30 15 O -0.593669 3.986943 0.247729 0
M  V30 16 C -0.716124 4.626863 1.475313 0
M  V30 17 C 0.399155 5.070759 2.175060 0
M  V30 18 C 0.247030 5.698316 3.382987 0
M  V30 19 C -0.977112 5.927364 3.971665 0
M  V30 20 C -2.083668 5.479524 3.263344 0
M  V30 21 C -1.976764 4.843147 2.044430 0
M  V30 22 C 0.855879 2.155958 0.190789 0
M  V30 23 C 1.079893 0.777522 0.109066 0
M  V30 24 N 1.448337 -2.135357 -0.068312 0
M  V30 25 C 1.302541 -3.470308 -0.163639 0
M  V30 26 C 2.235107 -4.489853 -0.189724 0
M  V30 27 H 3.993984 -6.775403 1.787791 0
M  V30 28 H 2.442747 -7.407423 1.826626 0
M  V30 29 H 0.143663 -7.083765 -0.455857 0
M  V30 30 H -1.543850 -5.215821 -0.407106 0
M  V30 31 H -1.740459 -2.379680 -0.227262 0
M  V30 32 H -2.143879 -0.333989 -0.109354 0
M  V30 33 H -2.532675 2.144281 0.038191 0
M  V30 34 H 1.387296 4.923970 1.772052 0
M  V30 35 H 1.092729 6.070156 3.980343 0
M  V30 36 H -1.104745 6.421776 4.924292 0
M  V30 37 H -3.068283 5.614373 3.643315 0
M  V30 38 H -2.821017 4.483970 1.470887 0
M  V30 39 H 1.698145 2.828788 0.273320 0
M  V30 40 H 2.104367 0.411290 0.130580 0
M  V30 41 H 3.277367 -4.205240 -0.124153 0
M  V30 END ATOM
M  V30 BEGIN BOND
M  V30 1 1 1 2
M  V30 2 2 2 3
M  V30 3 2 2 4
M  V30 4 1 2 5
M  V30 5 2 5 6
M  V30 6 1 6 7
M  V30 7 2 7 8
M  V30 8 1 8 9
M  V30 9 1 9 10
M  V30 10 1 10 11
M  V30 11 2 11 12
M  V30 12 1 12 13
M  V30 13 2 13 14
M  V30 14 1 14 15
M  V30 15 1 15 16
M  V30 16 2 16 17
M  V30 17 1 17 18
M  V30 18 2 18 19
M  V30 19 1 19 20
M  V30 20 2 20 21
M  V30 21 1 14 22
M  V30 22 2 22 23
M  V30 23 2 10 24
M  V30 24 1 24 25
M  V30 25 2 25 26
M  V30 26 1 26 5
M  V30 27 1 25 8
M  V30 28 1 23 11
M  V30 29 1 21 16
M  V30 30 1 1 27
M  V30 31 1 1 28
M  V30 32 1 6 29
M  V30 33 1 7 30
M  V30 34 1 9 31
M  V30 35 1 12 32
M  V30 36 1 13 33
M  V30 37 1 17 34
M  V30 38 1 18 35
M  V30 39 1 19 36
M  V30 40 1 20 37
M  V30 41 1 21 38
M  V30 42 1 22 39
M  V30 43 1 23 40
M  V30 44 1 26 41
M  V30 END BOND
M  V30 END CTAB
M  END
>  <Dataset>  (416) 
ChEMBL_Kinases

>  <Ligand_Instance>  (416) 
nan

>  <PDB_ID>  (416) 
nan

>  <Standardized_SMILES>  (416) 
NS(=O)(=O)c1ccc2[nH]c(-c3ccc(Oc4ccccc4)cc3)nc2c1

>  <Name>  (416) 
nan

>  <Pocket>  (416) 
nan

>  <ATP_Site>  (416) 
nan

>  <Peripheral>  (416) 
nan

>  <Num_H_Atoms_ProtBoundConf>  (416) 
nan

>  <Num_Resolved_Atoms>  (416) 
nan

>  <Num_Not_Resolved_Atoms>  (416) 
nan

$$$$
CHEMBL1760621
     RDKit          3D

  0  0  0  0  0  0  0  0  0  0999 V3000
M  V30 BEGIN CTAB
M  V30 COUNTS 49 51 0 0 0
M  V30 BEGIN ATOM
M  V30 1 C 1.574585 -6.437727 5.142164 0
M  V30 2 N 1.486815 -5.350615 4.183240 0
M  V30 3 C 2.549994 -4.509174 3.779731 0
M  V30 4 O 3.683199 -4.682630 4.267885 0
M  V30 5 C 2.310708 -3.445542 2.795566 0
M  V30 6 C 3.350382 -2.627137 2.404764 0
M  V30 7 C 3.088049 -1.638322 1.477869 0
M  V30 8 C 4.102603 -0.806611 1.068123 0
M  V30 9 C 3.773606 0.160162 0.140197 0
M  V30 10 C 2.508524 0.373986 -0.422060 0
M  V30 11 C 2.341891 1.458445 -1.403943 0
M  V30 12 C 1.977259 2.781715 -0.794286 0
M  V30 13 N 0.729421 2.683659 -0.076923 0
M  V30 14 C -0.489166 2.319016 -0.677315 0
M  V30 15 O -0.590209 2.047290 -1.898714 0
M  V30 16 N -1.664716 2.251645 0.123268 0
M  V30 17 C -2.950171 1.895053 -0.373926 0
M  V30 18 C -3.908924 2.756539 -0.883317 0
M  V30 19 C -5.116676 2.293350 -1.334712 0
M  V30 20 C -5.441014 0.940349 -1.304945 0
M  V30 21 F -6.622341 0.481185 -1.745714 0
M  V30 22 C -4.523437 0.056814 -0.810176 0
M  V30 23 C -4.829360 -1.391515 -0.760944 0
M  V30 24 F -3.759680 -2.076878 -0.226512 0
M  V30 25 F -5.943848 -1.598558 0.014008 0
M  V30 26 F -5.075858 -1.833562 -2.040074 0
M  V30 27 C -3.318066 0.555543 -0.364150 0
M  V30 28 C 1.541027 -0.497095 0.035501 0
M  V30 29 C 1.817017 -1.481737 0.962912 0
M  V30 30 C 0.777553 -2.322236 1.372733 0
M  V30 31 N 1.061255 -3.280277 2.279626 0
M  V30 32 H 2.531146 -6.416454 5.726619 0
M  V30 33 H 0.762231 -6.264230 5.890741 0
M  V30 34 H 1.425704 -7.434492 4.683645 0
M  V30 35 H 0.538384 -5.214833 3.782751 0
M  V30 36 H 4.345745 -2.740427 2.800025 0
M  V30 37 H 5.119640 -0.865888 1.423514 0
M  V30 38 H 4.583606 0.828318 -0.190485 0
M  V30 39 H 3.318037 1.549594 -1.945683 0
M  V30 40 H 1.560486 1.176707 -2.134386 0
M  V30 41 H 1.804294 3.495985 -1.626339 0
M  V30 42 H 2.772986 3.215675 -0.181894 0
M  V30 43 H 0.742382 2.900231 0.958546 0
M  V30 44 H -1.618152 2.471473 1.145130 0
M  V30 45 H -3.615881 3.810018 -0.889446 0
M  V30 46 H -5.846712 3.011698 -1.730247 0
M  V30 47 H -2.607117 -0.158096 0.022774 0
M  V30 48 H 0.552787 -0.363489 -0.376150 0
M  V30 49 H -0.217082 -2.184376 0.956608 0
M  V30 END ATOM
M  V30 BEGIN BOND
M  V30 1 1 1 2
M  V30 2 1 2 3
M  V30 3 2 3 4
M  V30 4 1 3 5
M  V30 5 2 5 6
M  V30 6 1 6 7
M  V30 7 2 7 8
M  V30 8 1 8 9
M  V30 9 2 9 10
M  V30 10 1 10 11
M  V30 11 1 11 12
M  V30 12 1 12 13
M  V30 13 1 13 14
M  V30 14 2 14 15
M  V30 15 1 14 16
M  V30 16 1 16 17
M  V30 17 2 17 18
M  V30 18 1 18 19
M  V30 19 2 19 20
M  V30 20 1 20 21
M  V30 21 1 20 22
M  V30 22 1 22 23
M  V30 23 1 23 24
M  V30 24 1 23 25
M  V30 25 1 23 26
M  V30 26 2 22 27
M  V30 27 1 10 28
M  V30 28 2 28 29
M  V30 29 1 29 30
M  V30 30 2 30 31
M  V30 31 1 31 5
M  V30 32 1 29 7
M  V30 33 1 27 17
M  V30 34 1 1 32
M  V30 35 1 1 33
M  V30 36 1 1 34
M  V30 37 1 2 35
M  V30 38 1 6 36
M  V30 39 1 8 37
M  V30 40 1 9 38
M  V30 41 1 11 39
M  V30 42 1 11 40
M  V30 43 1 12 41
M  V30 44 1 12 42
M  V30 45 1 13 43
M  V30 46 1 16 44
M  V30 47 1 18 45
M  V30 48 1 19 46
M  V30 49 1 27 47
M  V30 50 1 28 48
M  V30 51 1 30 49
M  V30 END BOND
M  V30 END CTAB
M  END
>  <Dataset>  (417) 
ChEMBL_Kinases

>  <Ligand_Instance>  (417) 
nan

>  <PDB_ID>  (417) 
nan

>  <Standardized_SMILES>  (417) 
CNC(=O)c1cc2ccc(CCNC(=O)Nc3ccc(F)c(C(F)(F)F)c3)cc2cn1

>  <Name>  (417) 
nan

>  <Pocket>  (417) 
nan

>  <ATP_Site>  (417) 
nan

>  <Peripheral>  (417) 
nan

>  <Num_H_Atoms_ProtBoundConf>  (417) 
nan

>  <Num_Resolved_Atoms>  (417) 
nan

>  <Num_Not_Resolved_Atoms>  (417) 
nan

$$$$
CHEMBL17603
     RDKit          3D

  0  0  0  0  0  0  0  0  0  0999 V3000
M  V30 BEGIN CTAB
M  V30 COUNTS 38 40 0 0 0
M  V30 BEGIN ATOM
M  V30 1 C -0.062068 -1.098602 4.473212 0
M  V30 2 C 0.861945 -1.096196 3.236519 0
M  V30 3 C 1.968168 -2.102882 3.608778 0
M  V30 4 C 1.504057 0.233081 3.212570 0
M  V30 5 C 0.875375 1.135308 2.180082 0
M  V30 6 O 0.633279 2.362390 2.425691 0
M  V30 7 C 0.547511 0.546865 0.866266 0
M  V30 8 C 0.611336 1.256039 -0.301742 0
M  V30 9 S 1.045115 2.945026 -0.712493 0
M  V30 10 C 0.898156 3.186099 -2.519554 0
M  V30 11 C -0.555881 3.060750 -2.911171 0
M  V30 12 O -1.339000 4.017828 -2.260418 0
M  V30 13 S 0.111233 0.023865 -1.525197 0
M  V30 14 C -0.127400 -1.274710 -0.400024 0
M  V30 15 C -0.564144 -2.633966 -0.782067 0
M  V30 16 N -0.756802 -3.614487 -0.050522 0
M  V30 17 C -1.153859 -4.780986 -0.567499 0
M  V30 18 C -1.353250 -4.877154 -1.988763 0
M  V30 19 S -0.902612 -3.104565 -2.464531 0
M  V30 20 C 0.171342 -0.748316 0.833377 0
M  V30 21 C 0.079494 -1.551381 2.079026 0
M  V30 22 H -0.926084 -1.780171 4.323566 0
M  V30 23 H 0.496848 -1.287244 5.404942 0
M  V30 24 H -0.510494 -0.075762 4.513114 0
M  V30 25 H 2.057282 -2.242983 4.690541 0
M  V30 26 H 1.629220 -3.078893 3.194289 0
M  V30 27 H 2.927968 -1.861737 3.149342 0
M  V30 28 H 2.566214 0.104236 2.843404 0
M  V30 29 H 1.503478 0.701322 4.200328 0
M  V30 30 H 1.462798 2.425834 -3.090313 0
M  V30 31 H 1.201469 4.216164 -2.703433 0
M  V30 32 H -0.904812 2.025707 -2.728667 0
M  V30 33 H -0.669288 3.260906 -3.996817 0
M  V30 34 H -2.265763 3.679151 -2.285522 0
M  V30 35 H -1.285485 -5.564501 0.198267 0
M  V30 36 H -1.685371 -5.898103 -2.316412 0
M  V30 37 H -1.011494 -1.702234 2.363789 0
M  V30 38 H 0.396239 -2.626835 1.890225 0
M  V30 END ATOM
M  V30 BEGIN BOND
M  V30 1 1 1 2
M  V30 2 1 2 3
M  V30 3 1 2 4
M  V30 4 1 4 5
M  V30 5 2 5 6
M  V30 6 1 5 7
M  V30 7 2 7 8
M  V30 8 1 8 9
M  V30 9 1 9 10
M  V30 10 1 10 11
M  V30 11 1 11 12
M  V30 12 1 8 13
M  V30 13 1 13 14
M  V30 14 1 14 15
M  V30 15 2 15 16
M  V30 16 1 16 17
M  V30 17 2 17 18
M  V30 18 1 18 19
M  V30 19 2 14 20
M  V30 20 1 20 21
M  V30 21 1 21 2
M  V30 22 1 20 7
M  V30 23 1 19 15
M  V30 24 1 1 22
M  V30 25 1 1 23
M  V30 26 1 1 24
M  V30 27 1 3 25
M  V30 28 1 3 26
M  V30 29 1 3 27
M  V30 30 1 4 28
M  V30 31 1 4 29
M  V30 32 1 10 30
M  V30 33 1 10 31
M  V30 34 1 11 32
M  V30 35 1 11 33
M  V30 36 1 12 34
M  V30 37 1 17 35
M  V30 38 1 18 36
M  V30 39 1 21 37
M  V30 40 1 21 38
M  V30 END BOND
M  V30 END CTAB
M  END
>  <Dataset>  (418) 
ChEMBL_Kinases

>  <Ligand_Instance>  (418) 
nan

>  <PDB_ID>  (418) 
nan

>  <Standardized_SMILES>  (418) 
CC1(C)CC(=O)c2c(SCCO)sc(-c3nccs3)c2C1

>  <Name>  (418) 
nan

>  <Pocket>  (418) 
nan

>  <ATP_Site>  (418) 
nan

>  <Peripheral>  (418) 
nan

>  <Num_H_Atoms_ProtBoundConf>  (418) 
nan

>  <Num_Resolved_Atoms>  (418) 
nan

>  <Num_Not_Resolved_Atoms>  (418) 
nan

$$$$
CHEMBL176041
     RDKit          3D

  0  0  0  0  0  0  0  0  0  0999 V3000
M  V30 BEGIN CTAB
M  V30 COUNTS 29 31 0 0 0
M  V30 BEGIN ATOM
M  V30 1 N 2.798562 -2.718815 5.555468 0
M  V30 2 C 2.903646 -2.763637 4.144128 0
M  V30 3 O 3.810977 -3.443666 3.602174 0
M  V30 4 C 1.862982 -1.951383 3.481824 0
M  V30 5 C 0.866300 -1.204741 4.103771 0
M  V30 6 C -0.016944 -0.509419 3.304848 0
M  V30 7 C 0.026473 -0.508505 1.936704 0
M  V30 8 N -0.733368 0.095645 1.010815 0
M  V30 9 C -0.242451 -0.249155 -0.215553 0
M  V30 10 C -0.754783 0.175375 -1.527353 0
M  V30 11 C -0.136407 -0.268816 -2.676888 0
M  V30 12 C -0.632548 0.141657 -3.920446 0
M  V30 13 C -1.739869 0.989035 -3.943206 0
M  V30 14 C -2.346073 1.423631 -2.782203 0
M  V30 15 C -1.851916 1.014909 -1.548023 0
M  V30 16 N 0.819860 -1.066583 -0.012112 0
M  V30 17 C 1.009154 -1.244249 1.306952 0
M  V30 18 C 1.895258 -1.941705 2.103681 0
M  V30 19 H 3.343723 -1.958725 6.035489 0
M  V30 20 H 2.715723 -2.694365 6.582491 0
M  V30 21 H 0.883500 -1.244615 5.175346 0
M  V30 22 H -0.763922 0.047751 3.867891 0
M  V30 23 H -1.552283 0.717512 1.185500 0
M  V30 24 H 0.736856 -0.937612 -2.638105 0
M  V30 25 H -0.187336 -0.175491 -4.854264 0
M  V30 26 H -2.170340 1.341771 -4.886237 0
M  V30 27 H -3.200064 2.075680 -2.740956 0
M  V30 28 H -2.288594 1.325624 -0.617274 0
M  V30 29 H 2.666780 -2.519506 1.614235 0
M  V30 END ATOM
M  V30 BEGIN BOND
M  V30 1 1 1 2
M  V30 2 2 2 3
M  V30 3 1 2 4
M  V30 4 2 4 5
M  V30 5 1 5 6
M  V30 6 2 6 7
M  V30 7 1 7 8
M  V30 8 1 8 9
M  V30 9 1 9 10
M  V30 10 2 10 11
M  V30 11 1 11 12
M  V30 12 2 12 13
M  V30 13 1 13 14
M  V30 14 2 14 15
M  V30 15 2 9 16
M  V30 16 1 16 17
M  V30 17 2 17 18
M  V30 18 1 18 4
M  V30 19 1 17 7
M  V30 20 1 15 10
M  V30 21 1 1 19
M  V30 22 1 1 20
M  V30 23 1 5 21
M  V30 24 1 6 22
M  V30 25 1 8 23
M  V30 26 1 11 24
M  V30 27 1 12 25
M  V30 28 1 13 26
M  V30 29 1 14 27
M  V30 30 1 15 28
M  V30 31 1 18 29
M  V30 END BOND
M  V30 END CTAB
M  END
>  <Dataset>  (419) 
ChEMBL_Kinases

>  <Ligand_Instance>  (419) 
nan

>  <PDB_ID>  (419) 
nan

>  <Standardized_SMILES>  (419) 
NC(=O)c1ccc2[nH]c(-c3ccccc3)nc2c1

>  <Name>  (419) 
nan

>  <Pocket>  (419) 
nan

>  <ATP_Site>  (419) 
nan

>  <Peripheral>  (419) 
nan

>  <Num_H_Atoms_ProtBoundConf>  (419) 
nan

>  <Num_Resolved_Atoms>  (419) 
nan

>  <Num_Not_Resolved_Atoms>  (419) 
nan

$$$$
CHEMBL1760615
     RDKit          3D

  0  0  0  0  0  0  0  0  0  0999 V3000
M  V30 BEGIN CTAB
M  V30 COUNTS 49 51 0 0 0
M  V30 BEGIN ATOM
M  V30 1 C 3.975927 -9.250998 2.471972 0
M  V30 2 N 3.594359 -7.985049 1.866037 0
M  V30 3 C 3.727061 -6.728342 2.480743 0
M  V30 4 O 4.217545 -6.769510 3.637260 0
M  V30 5 C 3.316930 -5.507444 1.796119 0
M  V30 6 C 3.452426 -4.278164 2.410994 0
M  V30 7 C 3.060373 -3.128986 1.752268 0
M  V30 8 C 3.178315 -1.862924 2.334143 0
M  V30 9 C 2.788677 -0.704437 1.683360 0
M  V30 10 C 2.257946 -0.816534 0.394567 0
M  V30 11 C 1.837141 0.450225 -0.304584 0
M  V30 12 C 0.396803 0.762062 -0.004207 0
M  V30 13 N -0.070562 1.969312 -0.647084 0
M  V30 14 C -1.444424 2.284460 -0.372460 0
M  V30 15 O -2.009538 1.436547 0.394809 0
M  V30 16 N -2.070935 3.436774 -0.922318 0
M  V30 17 C -3.445900 3.747918 -0.644628 0
M  V30 18 C -4.363061 3.200338 -1.539030 0
M  V30 19 C -5.712543 3.451912 -1.343385 0
M  V30 20 C -6.085476 4.223853 -0.285030 0
M  V30 21 C -5.181206 4.779474 0.619299 0
M  V30 22 C -5.654835 5.603313 1.739638 0
M  V30 23 F -5.951986 4.879032 2.872964 0
M  V30 24 F -4.707434 6.555767 2.059462 0
M  V30 25 F -6.817436 6.282071 1.393642 0
M  V30 26 C -3.823363 4.532972 0.431924 0
M  V30 27 C 2.116742 -2.056015 -0.236296 0
M  V30 28 C 2.525499 -3.181434 0.467830 0
M  V30 29 C 2.409670 -4.450701 -0.109796 0
M  V30 30 N 2.797310 -5.572185 0.545031 0
M  V30 31 H 3.093143 -9.788668 2.895140 0
M  V30 32 H 4.447804 -9.921278 1.732966 0
M  V30 33 H 4.676579 -9.058692 3.309639 0
M  V30 34 H 3.196418 -8.106846 0.890836 0
M  V30 35 H 3.868260 -4.212405 3.415507 0
M  V30 36 H 3.592020 -1.792355 3.334750 0
M  V30 37 H 2.886533 0.266930 2.147315 0
M  V30 38 H 2.515419 1.288299 -0.025140 0
M  V30 39 H 1.928644 0.356224 -1.413640 0
M  V30 40 H 0.256020 0.743291 1.086300 0
M  V30 41 H -0.195189 -0.099867 -0.414668 0
M  V30 42 H 0.473135 2.623278 -1.276964 0
M  V30 43 H -1.475179 4.056436 -1.547629 0
M  V30 44 H -4.049427 2.590454 -2.372889 0
M  V30 45 H -6.412128 3.019489 -2.046673 0
M  V30 46 H -7.166016 4.386095 -0.184421 0
M  V30 47 H -3.069632 4.935297 1.098776 0
M  V30 48 H 1.709757 -2.124624 -1.220448 0
M  V30 49 H 2.002712 -4.571818 -1.106402 0
M  V30 END ATOM
M  V30 BEGIN BOND
M  V30 1 1 1 2
M  V30 2 1 2 3
M  V30 3 2 3 4
M  V30 4 1 3 5
M  V30 5 2 5 6
M  V30 6 1 6 7
M  V30 7 2 7 8
M  V30 8 1 8 9
M  V30 9 2 9 10
M  V30 10 1 10 11
M  V30 11 1 11 12
M  V30 12 1 12 13
M  V30 13 1 13 14
M  V30 14 2 14 15
M  V30 15 1 14 16
M  V30 16 1 16 17
M  V30 17 2 17 18
M  V30 18 1 18 19
M  V30 19 2 19 20
M  V30 20 1 20 21
M  V30 21 1 21 22
M  V30 22 1 22 23
M  V30 23 1 22 24
M  V30 24 1 22 25
M  V30 25 2 21 26
M  V30 26 1 10 27
M  V30 27 2 27 28
M  V30 28 1 28 29
M  V30 29 2 29 30
M  V30 30 1 30 5
M  V30 31 1 28 7
M  V30 32 1 26 17
M  V30 33 1 1 31
M  V30 34 1 1 32
M  V30 35 1 1 33
M  V30 36 1 2 34
M  V30 37 1 6 35
M  V30 38 1 8 36
M  V30 39 1 9 37
M  V30 40 1 11 38
M  V30 41 1 11 39
M  V30 42 1 12 40
M  V30 43 1 12 41
M  V30 44 1 13 42
M  V30 45 1 16 43
M  V30 46 1 18 44
M  V30 47 1 19 45
M  V30 48 1 20 46
M  V30 49 1 26 47
M  V30 50 1 27 48
M  V30 51 1 29 49
M  V30 END BOND
M  V30 END CTAB
M  END
>  <Dataset>  (420) 
ChEMBL_Kinases

>  <Ligand_Instance>  (420) 
nan

>  <PDB_ID>  (420) 
nan

>  <Standardized_SMILES>  (420) 
CNC(=O)c1cc2ccc(CCNC(=O)Nc3cccc(C(F)(F)F)c3)cc2cn1

>  <Name>  (420) 
nan

>  <Pocket>  (420) 
nan

>  <ATP_Site>  (420) 
nan

>  <Peripheral>  (420) 
nan

>  <Num_H_Atoms_ProtBoundConf>  (420) 
nan

>  <Num_Resolved_Atoms>  (420) 
nan

>  <Num_Not_Resolved_Atoms>  (420) 
nan

$$$$
CHEMBL1760616
     RDKit          3D

  0  0  0  0  0  0  0  0  0  0999 V3000
M  V30 BEGIN CTAB
M  V30 COUNTS 50 52 0 0 0
M  V30 BEGIN ATOM
M  V30 1 C -0.396725 -6.721727 3.164816 0
M  V30 2 N -0.039559 -5.738166 2.181472 0
M  V30 3 C 0.629015 -4.571630 2.678518 0
M  V30 4 O 0.791260 -4.611764 3.920323 0
M  V30 5 C 1.064189 -3.472695 1.823624 0
M  V30 6 C 1.693777 -2.424473 2.462000 0
M  V30 7 C 2.139279 -1.341864 1.729793 0
M  V30 8 C 2.763563 -0.318710 2.412759 0
M  V30 9 C 3.183351 0.728813 1.619938 0
M  V30 10 C 3.059466 0.882203 0.243489 0
M  V30 11 C 3.609075 2.026024 -0.461296 0
M  V30 12 C 2.816634 3.269217 -0.453571 0
M  V30 13 N 1.508336 3.167237 -1.001795 0
M  V30 14 C 0.298898 2.517851 -0.694018 0
M  V30 15 O 0.245828 1.842144 0.339834 0
M  V30 16 N -0.889893 2.545648 -1.441067 0
M  V30 17 C -1.994430 1.809137 -0.930822 0
M  V30 18 C -2.760504 2.594195 -0.094749 0
M  V30 19 C -3.904386 2.078558 0.523443 0
M  V30 20 C -4.268649 0.776725 0.295537 0
M  V30 21 C -3.478122 0.023657 -0.545902 0
M  V30 22 O -3.822957 -1.289795 -0.792150 0
M  V30 23 C -3.335771 -2.319277 0.019831 0
M  V30 24 F -1.972223 -2.360440 -0.004956 0
M  V30 25 F -3.734738 -2.085757 1.327814 0
M  V30 26 F -3.877068 -3.538172 -0.358844 0
M  V30 27 C -2.349644 0.510101 -1.163991 0
M  V30 28 C 2.411403 -0.211465 -0.354106 0
M  V30 29 C 1.959901 -1.299446 0.363645 0
M  V30 30 C 1.327389 -2.363071 -0.240683 0
M  V30 31 N 0.899706 -3.409916 0.488099 0
M  V30 32 H -0.728234 -6.212739 4.090591 0
M  V30 33 H -1.205144 -7.397162 2.866342 0
M  V30 34 H 0.494915 -7.324664 3.419285 0
M  V30 35 H -0.227818 -5.805674 1.137374 0
M  V30 36 H 1.849205 -2.431544 3.542486 0
M  V30 37 H 2.942182 -0.274306 3.472755 0
M  V30 38 H 3.687346 1.567598 2.125683 0
M  V30 39 H 4.634795 2.216966 0.004945 0
M  V30 40 H 3.849111 1.692967 -1.516097 0
M  V30 41 H 2.713025 3.622480 0.621025 0
M  V30 42 H 3.365272 4.130250 -0.941504 0
M  V30 43 H 1.368132 3.720218 -1.893909 0
M  V30 44 H -0.890663 3.113159 -2.337902 0
M  V30 45 H -2.595381 3.628148 0.174314 0
M  V30 46 H -4.549268 2.647039 1.192617 0
M  V30 47 H -5.135800 0.318823 0.739033 0
M  V30 48 H -1.690313 -0.016984 -1.827961 0
M  V30 49 H 2.274625 -0.165410 -1.442583 0
M  V30 50 H 1.169130 -2.363747 -1.314215 0
M  V30 END ATOM
M  V30 BEGIN BOND
M  V30 1 1 1 2
M  V30 2 1 2 3
M  V30 3 2 3 4
M  V30 4 1 3 5
M  V30 5 2 5 6
M  V30 6 1 6 7
M  V30 7 2 7 8
M  V30 8 1 8 9
M  V30 9 2 9 10
M  V30 10 1 10 11
M  V30 11 1 11 12
M  V30 12 1 12 13
M  V30 13 1 13 14
M  V30 14 2 14 15
M  V30 15 1 14 16
M  V30 16 1 16 17
M  V30 17 2 17 18
M  V30 18 1 18 19
M  V30 19 2 19 20
M  V30 20 1 20 21
M  V30 21 1 21 22
M  V30 22 1 22 23
M  V30 23 1 23 24
M  V30 24 1 23 25
M  V30 25 1 23 26
M  V30 26 2 21 27
M  V30 27 1 10 28
M  V30 28 2 28 29
M  V30 29 1 29 30
M  V30 30 2 30 31
M  V30 31 1 31 5
M  V30 32 1 29 7
M  V30 33 1 27 17
M  V30 34 1 1 32
M  V30 35 1 1 33
M  V30 36 1 1 34
M  V30 37 1 2 35
M  V30 38 1 6 36
M  V30 39 1 8 37
M  V30 40 1 9 38
M  V30 41 1 11 39
M  V30 42 1 11 40
M  V30 43 1 12 41
M  V30 44 1 12 42
M  V30 45 1 13 43
M  V30 46 1 16 44
M  V30 47 1 18 45
M  V30 48 1 19 46
M  V30 49 1 20 47
M  V30 50 1 27 48
M  V30 51 1 28 49
M  V30 52 1 30 50
M  V30 END BOND
M  V30 END CTAB
M  END
>  <Dataset>  (421) 
ChEMBL_Kinases

>  <Ligand_Instance>  (421) 
nan

>  <PDB_ID>  (421) 
nan

>  <Standardized_SMILES>  (421) 
CNC(=O)c1cc2ccc(CCNC(=O)Nc3cccc(OC(F)(F)F)c3)cc2cn1

>  <Name>  (421) 
nan

>  <Pocket>  (421) 
nan

>  <ATP_Site>  (421) 
nan

>  <Peripheral>  (421) 
nan

>  <Num_H_Atoms_ProtBoundConf>  (421) 
nan

>  <Num_Resolved_Atoms>  (421) 
nan

>  <Num_Not_Resolved_Atoms>  (421) 
nan

$$$$
CHEMBL1760617
     RDKit          3D

  0  0  0  0  0  0  0  0  0  0999 V3000
M  V30 BEGIN CTAB
M  V30 COUNTS 52 54 0 0 0
M  V30 BEGIN ATOM
M  V30 1 C 2.479568 -4.922695 5.097047 0
M  V30 2 N 2.472193 -4.048104 3.929896 0
M  V30 3 C 2.089854 -2.717086 4.146404 0
M  V30 4 O 1.793892 -2.436278 5.348191 0
M  V30 5 C 2.027605 -1.709748 3.090737 0
M  V30 6 C 1.635947 -0.431179 3.430684 0
M  V30 7 C 1.570051 0.536883 2.449153 0
M  V30 8 C 1.180671 1.815918 2.780537 0
M  V30 9 C 1.136078 2.736527 1.754525 0
M  V30 10 C 1.447661 2.497497 0.411110 0
M  V30 11 C 1.383586 3.628105 -0.513279 0
M  V30 12 C 0.047403 3.983039 -1.066474 0
M  V30 13 N -0.663795 2.996831 -1.811748 0
M  V30 14 C -1.243782 1.753065 -1.560189 0
M  V30 15 O -1.202057 1.311517 -0.399620 0
M  V30 16 N -1.894781 0.903763 -2.490309 0
M  V30 17 C -2.415081 -0.327664 -2.000013 0
M  V30 18 C -3.710226 -0.163627 -1.571920 0
M  V30 19 C -4.449526 -1.229040 -1.045650 0
M  V30 20 C -3.837824 -2.477130 -0.963141 0
M  V30 21 C -2.542890 -2.596107 -1.402107 0
M  V30 22 S -1.757306 -4.150377 -1.310140 0
M  V30 23 O -2.828774 -5.206494 -1.448238 0
M  V30 24 O -0.760750 -4.277030 -2.419733 0
M  V30 25 C -0.914475 -4.392934 0.224165 0
M  V30 26 F -1.768841 -4.322032 1.295932 0
M  V30 27 F -0.367152 -5.679619 0.162869 0
M  V30 28 F 0.143674 -3.535714 0.274066 0
M  V30 29 C -1.812695 -1.565198 -1.916641 0
M  V30 30 C 1.834569 1.179795 0.145578 0
M  V30 31 C 1.892408 0.228357 1.143107 0
M  V30 32 C 2.282486 -1.054897 0.818049 0
M  V30 33 N 2.333745 -1.970831 1.806434 0
M  V30 34 H 3.261957 -5.696403 4.874727 0
M  V30 35 H 2.700086 -4.362902 6.020737 0
M  V30 36 H 1.535506 -5.468345 5.236926 0
M  V30 37 H 2.733371 -4.372581 2.975198 0
M  V30 38 H 1.370160 -0.141586 4.458740 0
M  V30 39 H 0.921836 2.098004 3.781564 0
M  V30 40 H 0.821950 3.750514 2.046479 0
M  V30 41 H 2.070349 3.469441 -1.403869 0
M  V30 42 H 1.829921 4.505415 0.058742 0
M  V30 43 H 0.203237 4.895676 -1.712673 0
M  V30 44 H -0.601269 4.280161 -0.186523 0
M  V30 45 H -0.816010 3.231177 -2.848036 0
M  V30 46 H -1.947965 1.249606 -3.494454 0
M  V30 47 H -4.308849 0.739392 -1.575271 0
M  V30 48 H -5.467966 -1.168347 -0.692395 0
M  V30 49 H -4.337264 -3.365988 -0.566495 0
M  V30 50 H -0.803214 -1.570292 -2.280098 0
M  V30 51 H 2.075687 0.997469 -0.898130 0
M  V30 52 H 2.541380 -1.324466 -0.200758 0
M  V30 END ATOM
M  V30 BEGIN BOND
M  V30 1 1 1 2
M  V30 2 1 2 3
M  V30 3 2 3 4
M  V30 4 1 3 5
M  V30 5 2 5 6
M  V30 6 1 6 7
M  V30 7 2 7 8
M  V30 8 1 8 9
M  V30 9 2 9 10
M  V30 10 1 10 11
M  V30 11 1 11 12
M  V30 12 1 12 13
M  V30 13 1 13 14
M  V30 14 2 14 15
M  V30 15 1 14 16
M  V30 16 1 16 17
M  V30 17 2 17 18
M  V30 18 1 18 19
M  V30 19 2 19 20
M  V30 20 1 20 21
M  V30 21 1 21 22
M  V30 22 2 22 23
M  V30 23 2 22 24
M  V30 24 1 22 25
M  V30 25 1 25 26
M  V30 26 1 25 27
M  V30 27 1 25 28
M  V30 28 2 21 29
M  V30 29 1 10 30
M  V30 30 2 30 31
M  V30 31 1 31 32
M  V30 32 2 32 33
M  V30 33 1 33 5
M  V30 34 1 31 7
M  V30 35 1 29 17
M  V30 36 1 1 34
M  V30 37 1 1 35
M  V30 38 1 1 36
M  V30 39 1 2 37
M  V30 40 1 6 38
M  V30 41 1 8 39
M  V30 42 1 9 40
M  V30 43 1 11 41
M  V30 44 1 11 42
M  V30 45 1 12 43
M  V30 46 1 12 44
M  V30 47 1 13 45
M  V30 48 1 16 46
M  V30 49 1 18 47
M  V30 50 1 19 48
M  V30 51 1 20 49
M  V30 52 1 29 50
M  V30 53 1 30 51
M  V30 54 1 32 52
M  V30 END BOND
M  V30 END CTAB
M  END
>  <Dataset>  (422) 
ChEMBL_Kinases

>  <Ligand_Instance>  (422) 
nan

>  <PDB_ID>  (422) 
nan

>  <Standardized_SMILES>  (422) 
CNC(=O)c1cc2ccc(CCNC(=O)Nc3cccc(S(=O)(=O)C(F)(F)F)c3)cc2cn1

>  <Name>  (422) 
nan

>  <Pocket>  (422) 
nan

>  <ATP_Site>  (422) 
nan

>  <Peripheral>  (422) 
nan

>  <Num_H_Atoms_ProtBoundConf>  (422) 
nan

>  <Num_Resolved_Atoms>  (422) 
nan

>  <Num_Not_Resolved_Atoms>  (422) 
nan

$$$$
CHEMBL1760618
     RDKit          3D

  0  0  0  0  0  0  0  0  0  0999 V3000
M  V30 BEGIN CTAB
M  V30 COUNTS 49 51 0 0 0
M  V30 BEGIN ATOM
M  V30 1 C 5.197277 -8.051766 4.051352 0
M  V30 2 N 4.590264 -7.045464 3.204318 0
M  V30 3 C 4.669352 -5.674694 3.525527 0
M  V30 4 O 5.303639 -5.453131 4.589354 0
M  V30 5 C 4.060981 -4.655493 2.678088 0
M  V30 6 C 4.162795 -3.324648 3.030751 0
M  V30 7 C 3.579229 -2.357503 2.216394 0
M  V30 8 C 3.635183 -1.004841 2.497451 0
M  V30 9 C 3.015586 -0.113486 1.613780 0
M  V30 10 C 2.358102 -0.563016 0.480124 0
M  V30 11 C 1.702998 0.398308 -0.451505 0
M  V30 12 C 0.251825 0.654445 -0.060037 0
M  V30 13 N -0.370145 1.584828 -0.967714 0
M  V30 14 C -1.713754 1.885684 -0.688789 0
M  V30 15 O -2.397464 1.417621 0.267188 0
M  V30 16 N -2.443438 2.802411 -1.524581 0
M  V30 17 C -3.824025 3.112010 -1.238615 0
M  V30 18 C -4.718653 2.266390 -1.865060 0
M  V30 19 C -6.075743 2.476586 -1.656963 0
M  V30 20 C -6.502089 3.505296 -0.844649 0
M  V30 21 C -7.971926 3.678898 -0.661209 0
M  V30 22 F -8.285303 4.575983 0.315447 0
M  V30 23 F -8.465691 2.403103 -0.385391 0
M  V30 24 F -8.464933 4.074400 -1.906747 0
M  V30 25 C -5.578497 4.341480 -0.226486 0
M  V30 26 C -4.210746 4.152770 -0.418267 0
M  V30 27 C 2.311562 -1.937147 0.211381 0
M  V30 28 C 2.924278 -2.816319 1.085559 0
M  V30 29 C 2.824205 -4.159302 0.734022 0
M  V30 30 N 3.410651 -5.045810 1.564396 0
M  V30 31 H 5.536207 -8.935642 3.472526 0
M  V30 32 H 6.060363 -7.569392 4.567506 0
M  V30 33 H 4.517444 -8.396766 4.870687 0
M  V30 34 H 4.082181 -7.360178 2.332905 0
M  V30 35 H 4.672419 -2.974810 3.909661 0
M  V30 36 H 4.158795 -0.677478 3.395987 0
M  V30 37 H 3.071688 0.957906 1.855567 0
M  V30 38 H 2.259312 1.348426 -0.534595 0
M  V30 39 H 1.657587 -0.030739 -1.483865 0
M  V30 40 H 0.192800 0.973121 1.000687 0
M  V30 41 H -0.296318 -0.316569 -0.141816 0
M  V30 42 H 0.133876 2.011738 -1.779747 0
M  V30 43 H -1.909734 3.220215 -2.339512 0
M  V30 44 H -4.422353 1.447102 -2.510569 0
M  V30 45 H -6.803609 1.839760 -2.126935 0
M  V30 46 H -5.917497 5.150402 0.412401 0
M  V30 47 H -3.455745 4.765800 0.032340 0
M  V30 48 H 1.777350 -2.214947 -0.697454 0
M  V30 49 H 2.302619 -4.472990 -0.159293 0
M  V30 END ATOM
M  V30 BEGIN BOND
M  V30 1 1 1 2
M  V30 2 1 2 3
M  V30 3 2 3 4
M  V30 4 1 3 5
M  V30 5 2 5 6
M  V30 6 1 6 7
M  V30 7 2 7 8
M  V30 8 1 8 9
M  V30 9 2 9 10
M  V30 10 1 10 11
M  V30 11 1 11 12
M  V30 12 1 12 13
M  V30 13 1 13 14
M  V30 14 2 14 15
M  V30 15 1 14 16
M  V30 16 1 16 17
M  V30 17 2 17 18
M  V30 18 1 18 19
M  V30 19 2 19 20
M  V30 20 1 20 21
M  V30 21 1 21 22
M  V30 22 1 21 23
M  V30 23 1 21 24
M  V30 24 1 20 25
M  V30 25 2 25 26
M  V30 26 1 10 27
M  V30 27 2 27 28
M  V30 28 1 28 29
M  V30 29 2 29 30
M  V30 30 1 30 5
M  V30 31 1 28 7
M  V30 32 1 26 17
M  V30 33 1 1 31
M  V30 34 1 1 32
M  V30 35 1 1 33
M  V30 36 1 2 34
M  V30 37 1 6 35
M  V30 38 1 8 36
M  V30 39 1 9 37
M  V30 40 1 11 38
M  V30 41 1 11 39
M  V30 42 1 12 40
M  V30 43 1 12 41
M  V30 44 1 13 42
M  V30 45 1 16 43
M  V30 46 1 18 44
M  V30 47 1 19 45
M  V30 48 1 25 46
M  V30 49 1 26 47
M  V30 50 1 27 48
M  V30 51 1 29 49
M  V30 END BOND
M  V30 END CTAB
M  END
>  <Dataset>  (423) 
ChEMBL_Kinases

>  <Ligand_Instance>  (423) 
nan

>  <PDB_ID>  (423) 
nan

>  <Standardized_SMILES>  (423) 
CNC(=O)c1cc2ccc(CCNC(=O)Nc3ccc(C(F)(F)F)cc3)cc2cn1

>  <Name>  (423) 
nan

>  <Pocket>  (423) 
nan

>  <ATP_Site>  (423) 
nan

>  <Peripheral>  (423) 
nan

>  <Num_H_Atoms_ProtBoundConf>  (423) 
nan

>  <Num_Resolved_Atoms>  (423) 
nan

>  <Num_Not_Resolved_Atoms>  (423) 
nan

$$$$
CHEMBL1760619
     RDKit          3D

  0  0  0  0  0  0  0  0  0  0999 V3000
M  V30 BEGIN CTAB
M  V30 COUNTS 52 54 0 0 0
M  V30 BEGIN ATOM
M  V30 1 C 0.183206 -7.185600 4.305469 0
M  V30 2 N 0.355282 -5.825865 3.822068 0
M  V30 3 C 1.596451 -5.104943 3.840976 0
M  V30 4 O 2.631519 -5.640805 4.295428 0
M  V30 5 C 1.590009 -3.736300 3.311408 0
M  V30 6 C 2.774360 -3.012241 3.315534 0
M  V30 7 C 2.789780 -1.716689 2.819391 0
M  V30 8 C 3.971245 -0.988757 2.821290 0
M  V30 9 C 4.016475 0.302138 2.334028 0
M  V30 10 C 2.872155 0.893245 1.832072 0
M  V30 11 C 2.736486 2.265775 1.269901 0
M  V30 12 C 2.974329 2.347890 -0.179282 0
M  V30 13 N 2.189297 1.629427 -1.084671 0
M  V30 14 C 0.808358 1.867136 -1.123137 0
M  V30 15 O 0.170365 2.665482 -0.428455 0
M  V30 16 N -0.015725 1.136899 -2.048451 0
M  V30 17 C -1.418820 1.197313 -2.274942 0
M  V30 18 C -2.083060 2.020283 -3.169335 0
M  V30 19 C -3.459884 1.931038 -3.244385 0
M  V30 20 C -4.185106 1.054372 -2.461770 0
M  V30 21 C -5.632640 1.124702 -2.703475 0
M  V30 22 C -3.503385 0.245562 -1.579324 0
M  V30 23 C -4.355746 -0.667146 -0.776023 0
M  V30 24 F -3.497822 -1.399961 0.052090 0
M  V30 25 F -5.207522 0.047617 0.045699 0
M  V30 26 F -5.052202 -1.556482 -1.564406 0
M  V30 27 C -2.142859 0.321397 -1.492919 0
M  V30 28 C 1.668351 0.179851 1.819222 0
M  V30 29 C 1.637183 -1.126263 2.315727 0
M  V30 30 C 0.477598 -1.891933 2.333588 0
M  V30 31 N 0.480255 -3.148006 2.818827 0
M  V30 32 H -0.216221 -7.860499 3.532280 0
M  V30 33 H 1.130622 -7.603492 4.675493 0
M  V30 34 H -0.523297 -7.153486 5.151818 0
M  V30 35 H -0.543699 -5.401312 3.443102 0
M  V30 36 H 3.694985 -3.427839 3.696227 0
M  V30 37 H 4.896535 -1.400420 3.201575 0
M  V30 38 H 4.900152 0.928046 2.304004 0
M  V30 39 H 1.847291 2.774949 1.661167 0
M  V30 40 H 3.584024 2.824258 1.748401 0
M  V30 41 H 4.047172 2.043962 -0.340647 0
M  V30 42 H 2.972914 3.418469 -0.479512 0
M  V30 43 H 2.572315 0.899597 -1.761184 0
M  V30 44 H 0.398867 0.427725 -2.696801 0
M  V30 45 H -1.448419 2.675187 -3.742998 0
M  V30 46 H -3.867751 2.626427 -3.981920 0
M  V30 47 H -6.182319 0.487703 -1.984848 0
M  V30 48 H -6.000929 2.154127 -2.575584 0
M  V30 49 H -5.851106 0.741162 -3.722690 0
M  V30 50 H -1.706957 -0.353378 -0.772497 0
M  V30 51 H 0.725506 0.512165 1.465340 0
M  V30 52 H -0.433274 -1.439029 1.940823 0
M  V30 END ATOM
M  V30 BEGIN BOND
M  V30 1 1 1 2
M  V30 2 1 2 3
M  V30 3 2 3 4
M  V30 4 1 3 5
M  V30 5 2 5 6
M  V30 6 1 6 7
M  V30 7 2 7 8
M  V30 8 1 8 9
M  V30 9 2 9 10
M  V30 10 1 10 11
M  V30 11 1 11 12
M  V30 12 1 12 13
M  V30 13 1 13 14
M  V30 14 2 14 15
M  V30 15 1 14 16
M  V30 16 1 16 17
M  V30 17 2 17 18
M  V30 18 1 18 19
M  V30 19 2 19 20
M  V30 20 1 20 21
M  V30 21 1 20 22
M  V30 22 1 22 23
M  V30 23 1 23 24
M  V30 24 1 23 25
M  V30 25 1 23 26
M  V30 26 2 22 27
M  V30 27 1 10 28
M  V30 28 2 28 29
M  V30 29 1 29 30
M  V30 30 2 30 31
M  V30 31 1 31 5
M  V30 32 1 29 7
M  V30 33 1 27 17
M  V30 34 1 1 32
M  V30 35 1 1 33
M  V30 36 1 1 34
M  V30 37 1 2 35
M  V30 38 1 6 36
M  V30 39 1 8 37
M  V30 40 1 9 38
M  V30 41 1 11 39
M  V30 42 1 11 40
M  V30 43 1 12 41
M  V30 44 1 12 42
M  V30 45 1 13 43
M  V30 46 1 16 44
M  V30 47 1 18 45
M  V30 48 1 19 46
M  V30 49 1 21 47
M  V30 50 1 21 48
M  V30 51 1 21 49
M  V30 52 1 27 50
M  V30 53 1 28 51
M  V30 54 1 30 52
M  V30 END BOND
M  V30 END CTAB
M  END
>  <Dataset>  (424) 
ChEMBL_Kinases

>  <Ligand_Instance>  (424) 
nan

>  <PDB_ID>  (424) 
nan

>  <Standardized_SMILES>  (424) 
CNC(=O)c1cc2ccc(CCNC(=O)Nc3ccc(C)c(C(F)(F)F)c3)cc2cn1

>  <Name>  (424) 
nan

>  <Pocket>  (424) 
nan

>  <ATP_Site>  (424) 
nan

>  <Peripheral>  (424) 
nan

>  <Num_H_Atoms_ProtBoundConf>  (424) 
nan

>  <Num_Resolved_Atoms>  (424) 
nan

>  <Num_Not_Resolved_Atoms>  (424) 
nan

$$$$
CHEMBL1760620
     RDKit          3D

  0  0  0  0  0  0  0  0  0  0999 V3000
M  V30 BEGIN CTAB
M  V30 COUNTS 49 51 0 0 0
M  V30 BEGIN ATOM
M  V30 1 C 2.173537 -6.782591 4.535028 0
M  V30 2 N 1.896282 -5.678823 3.643119 0
M  V30 3 C 2.887283 -4.672649 3.497773 0
M  V30 4 O 3.960980 -4.743501 4.121870 0
M  V30 5 C 2.599790 -3.548843 2.586898 0
M  V30 6 C 3.546387 -2.549596 2.422333 0
M  V30 7 C 3.309736 -1.483133 1.577343 0
M  V30 8 C 4.223835 -0.467802 1.384506 0
M  V30 9 C 3.891152 0.553075 0.518663 0
M  V30 10 C 2.685024 0.638305 -0.186162 0
M  V30 11 C 2.454407 1.797009 -1.090325 0
M  V30 12 C 1.802326 2.949816 -0.381869 0
M  V30 13 N 0.515600 2.594378 0.172576 0
M  V30 14 C -0.585796 2.142363 -0.595240 0
M  V30 15 O -0.439139 2.046411 -1.836929 0
M  V30 16 N -1.824463 1.799977 -0.030320 0
M  V30 17 C -2.998278 1.339421 -0.666331 0
M  V30 18 C -3.197275 1.118726 -2.001593 0
M  V30 19 C -4.375478 0.666319 -2.554823 0
M  V30 20 C -5.452519 0.404854 -1.751455 0
M  V30 21 Cl -6.951043 -0.167191 -2.426255 0
M  V30 22 C -5.286798 0.615689 -0.406666 0
M  V30 23 C -6.436759 0.341123 0.490457 0
M  V30 24 F -6.123142 0.597444 1.807308 0
M  V30 25 F -7.525033 1.112143 0.164804 0
M  V30 26 F -6.822663 -0.998317 0.431107 0
M  V30 27 C -4.107722 1.062607 0.096844 0
M  V30 28 C 1.805120 -0.399062 0.039857 0
M  V30 29 C 2.108082 -1.434725 0.899705 0
M  V30 30 C 1.155257 -2.442793 1.066868 0
M  V30 31 N 1.428526 -3.463532 1.900730 0
M  V30 32 H 3.010060 -7.399278 4.171847 0
M  V30 33 H 2.499723 -6.367396 5.519171 0
M  V30 34 H 1.318265 -7.429334 4.733599 0
M  V30 35 H 0.982660 -5.604817 3.102817 0
M  V30 36 H 4.482265 -2.592189 2.953382 0
M  V30 37 H 5.168543 -0.478357 1.898727 0
M  V30 38 H 4.655204 1.337053 0.401029 0
M  V30 39 H 3.458133 2.111670 -1.452085 0
M  V30 40 H 1.796863 1.472308 -1.911185 0
M  V30 41 H 1.700340 3.762989 -1.148826 0
M  V30 42 H 2.502247 3.290692 0.391367 0
M  V30 43 H 0.401139 2.682136 1.225680 0
M  V30 44 H -1.839737 1.915430 1.006508 0
M  V30 45 H -2.396845 1.302404 -2.690167 0
M  V30 46 H -4.468294 0.512451 -3.615916 0
M  V30 47 H -4.063417 1.203589 1.184610 0
M  V30 48 H 0.868402 -0.362977 -0.487470 0
M  V30 49 H 0.200134 -2.410929 0.532692 0
M  V30 END ATOM
M  V30 BEGIN BOND
M  V30 1 1 1 2
M  V30 2 1 2 3
M  V30 3 2 3 4
M  V30 4 1 3 5
M  V30 5 2 5 6
M  V30 6 1 6 7
M  V30 7 2 7 8
M  V30 8 1 8 9
M  V30 9 2 9 10
M  V30 10 1 10 11
M  V30 11 1 11 12
M  V30 12 1 12 13
M  V30 13 1 13 14
M  V30 14 2 14 15
M  V30 15 1 14 16
M  V30 16 1 16 17
M  V30 17 2 17 18
M  V30 18 1 18 19
M  V30 19 2 19 20
M  V30 20 1 20 21
M  V30 21 1 20 22
M  V30 22 1 22 23
M  V30 23 1 23 24
M  V30 24 1 23 25
M  V30 25 1 23 26
M  V30 26 2 22 27
M  V30 27 1 10 28
M  V30 28 2 28 29
M  V30 29 1 29 30
M  V30 30 2 30 31
M  V30 31 1 31 5
M  V30 32 1 29 7
M  V30 33 1 27 17
M  V30 34 1 1 32
M  V30 35 1 1 33
M  V30 36 1 1 34
M  V30 37 1 2 35
M  V30 38 1 6 36
M  V30 39 1 8 37
M  V30 40 1 9 38
M  V30 41 1 11 39
M  V30 42 1 11 40
M  V30 43 1 12 41
M  V30 44 1 12 42
M  V30 45 1 13 43
M  V30 46 1 16 44
M  V30 47 1 18 45
M  V30 48 1 19 46
M  V30 49 1 27 47
M  V30 50 1 28 48
M  V30 51 1 30 49
M  V30 END BOND
M  V30 END CTAB
M  END
>  <Dataset>  (425) 
ChEMBL_Kinases

>  <Ligand_Instance>  (425) 
nan

>  <PDB_ID>  (425) 
nan

>  <Standardized_SMILES>  (425) 
CNC(=O)c1cc2ccc(CCNC(=O)Nc3ccc(Cl)c(C(F)(F)F)c3)cc2cn1

>  <Name>  (425) 
nan

>  <Pocket>  (425) 
nan

>  <ATP_Site>  (425) 
nan

>  <Peripheral>  (425) 
nan

>  <Num_H_Atoms_ProtBoundConf>  (425) 
nan

>  <Num_Resolved_Atoms>  (425) 
nan

>  <Num_Not_Resolved_Atoms>  (425) 
nan

$$$$
CHEMBL1760195
     RDKit          3D

  0  0  0  0  0  0  0  0  0  0999 V3000
M  V30 BEGIN CTAB
M  V30 COUNTS 46 50 0 0 0
M  V30 BEGIN ATOM
M  V30 1 O 3.006256 0.591158 2.683132 0
M  V30 2 C 2.158107 0.972328 3.525622 0
M  V30 3 N 2.686521 0.996539 4.834525 0
M  V30 4 C 4.051201 0.592774 4.954439 0
M  V30 5 C 5.113872 1.464505 4.862183 0
M  V30 6 C 6.370792 0.912047 5.000361 0
M  V30 7 C 6.591184 -0.438600 5.220333 0
M  V30 8 Br 8.369902 -1.112811 5.399266 0
M  V30 9 C 5.479344 -1.272481 5.304676 0
M  V30 10 C 4.196024 -0.761796 5.172011 0
M  V30 11 N 0.795989 1.352201 3.250369 0
M  V30 12 C 0.224299 1.342820 1.945254 0
M  V30 13 C 0.211480 2.388250 1.043415 0
M  V30 14 C -0.384481 2.220954 -0.189802 0
M  V30 15 C -0.960446 1.002972 -0.500589 0
M  V30 16 N -1.546830 0.824454 -1.704227 0
M  V30 17 C -2.118783 -0.360862 -2.035070 0
M  V30 18 C -2.763799 -0.609563 -3.319162 0
M  V30 19 C -3.832780 -0.140919 -4.048790 0
M  V30 20 C -3.869301 -0.853066 -5.230659 0
M  V30 21 C -2.815332 -1.734799 -5.178008 0
M  V30 22 O -2.193087 -1.561267 -4.044156 0
M  V30 23 C -2.103428 -1.402783 -1.130580 0
M  V30 24 C -2.669972 -2.730870 -1.330464 0
M  V30 25 C -3.676591 -3.376533 -0.643006 0
M  V30 26 C -3.803477 -4.605307 -1.254707 0
M  V30 27 C -2.882002 -4.663281 -2.278791 0
M  V30 28 O -2.220029 -3.517882 -2.292310 0
M  V30 29 N -1.521529 -1.257461 0.090754 0
M  V30 30 C -0.952528 -0.053665 0.399200 0
M  V30 31 C -0.350568 0.114432 1.645802 0
M  V30 32 H 2.081757 1.300027 5.652193 0
M  V30 33 H 4.926427 2.511015 4.691107 0
M  V30 34 H 7.204474 1.605557 4.926416 0
M  V30 35 H 5.646477 -2.328055 5.476354 0
M  V30 36 H 3.376380 -1.464725 5.248316 0
M  V30 37 H 0.253960 1.640311 4.104345 0
M  V30 38 H 0.688966 3.301609 1.381395 0
M  V30 39 H -0.380951 3.057989 -0.879752 0
M  V30 40 H -4.401703 0.647139 -3.581366 0
M  V30 41 H -4.625300 -0.650521 -5.951388 0
M  V30 42 H -2.588166 -2.433562 -5.974775 0
M  V30 43 H -4.185203 -2.911668 0.185679 0
M  V30 44 H -4.524616 -5.355326 -0.937937 0
M  V30 45 H -2.796768 -5.541760 -2.904745 0
M  V30 46 H -0.377443 -0.745986 2.301041 0
M  V30 END ATOM
M  V30 BEGIN BOND
M  V30 1 2 1 2
M  V30 2 1 2 3
M  V30 3 1 3 4
M  V30 4 2 4 5
M  V30 5 1 5 6
M  V30 6 2 6 7
M  V30 7 1 7 8
M  V30 8 1 7 9
M  V30 9 2 9 10
M  V30 10 1 2 11
M  V30 11 1 11 12
M  V30 12 2 12 13
M  V30 13 1 13 14
M  V30 14 2 14 15
M  V30 15 1 15 16
M  V30 16 2 16 17
M  V30 17 1 17 18
M  V30 18 2 18 19
M  V30 19 1 19 20
M  V30 20 2 20 21
M  V30 21 1 21 22
M  V30 22 1 17 23
M  V30 23 1 23 24
M  V30 24 2 24 25
M  V30 25 1 25 26
M  V30 26 2 26 27
M  V30 27 1 27 28
M  V30 28 2 23 29
M  V30 29 1 29 30
M  V30 30 2 30 31
M  V30 31 1 10 4
M  V30 32 1 31 12
M  V30 33 1 30 15
M  V30 34 1 22 18
M  V30 35 1 28 24
M  V30 36 1 3 32
M  V30 37 1 5 33
M  V30 38 1 6 34
M  V30 39 1 9 35
M  V30 40 1 10 36
M  V30 41 1 11 37
M  V30 42 1 13 38
M  V30 43 1 14 39
M  V30 44 1 19 40
M  V30 45 1 20 41
M  V30 46 1 21 42
M  V30 47 1 25 43
M  V30 48 1 26 44
M  V30 49 1 27 45
M  V30 50 1 31 46
M  V30 END BOND
M  V30 END CTAB
M  END
>  <Dataset>  (426) 
ChEMBL_Kinases

>  <Ligand_Instance>  (426) 
nan

>  <PDB_ID>  (426) 
nan

>  <Standardized_SMILES>  (426) 
O=C(Nc1ccc(Br)cc1)Nc1ccc2nc(-c3ccco3)c(-c3ccco3)nc2c1

>  <Name>  (426) 
nan

>  <Pocket>  (426) 
nan

>  <ATP_Site>  (426) 
nan

>  <Peripheral>  (426) 
nan

>  <Num_H_Atoms_ProtBoundConf>  (426) 
nan

>  <Num_Resolved_Atoms>  (426) 
nan

>  <Num_Not_Resolved_Atoms>  (426) 
nan

$$$$
CHEMBL1685043
     RDKit          3D

  0  0  0  0  0  0  0  0  0  0999 V3000
M  V30 BEGIN CTAB
M  V30 COUNTS 62 63 0 0 0
M  V30 BEGIN ATOM
M  V30 1 C 3.367643 -3.749935 2.152690 0
M  V30 2 C 3.483616 -2.639602 1.041094 0
M  V30 3 C 3.477733 -1.315342 1.675474 0
M  V30 4 C 3.712380 -0.148393 0.836289 0
M  V30 5 C 2.836389 0.122589 -0.315558 0
M  V30 6 C 2.879521 -0.755401 -1.501718 0
M  V30 7 C 1.921029 -0.497510 -2.611832 0
M  V30 8 C 1.904213 0.728727 -3.391827 0
M  V30 9 C 1.635706 2.051445 -2.802292 0
M  V30 10 C 0.324439 2.125395 -2.091282 0
M  V30 11 O -0.512671 1.165867 -1.977772 0
M  V30 12 N -0.122837 3.313589 -1.455529 0
M  V30 13 C -1.415687 3.070891 -0.860854 0
M  V30 14 C -1.274623 2.615295 0.448477 0
M  V30 15 C -2.391465 2.317405 1.209155 0
M  V30 16 C -3.637597 2.481426 0.643246 0
M  V30 17 S -5.106658 2.122059 1.544911 0
M  V30 18 O -6.195563 3.056496 1.095192 0
M  V30 19 O -4.816465 2.348956 3.017447 0
M  V30 20 N -5.570224 0.498142 1.318637 0
M  V30 21 C -4.539331 -0.419546 1.808585 0
M  V30 22 N -3.514369 -0.570808 2.298195 0
M  V30 23 N -2.931496 -1.693107 2.572135 0
M  V30 24 C -3.343819 -2.746104 2.370327 0
M  V30 25 C -3.268890 -4.269882 2.398804 0
M  V30 26 O -4.171472 -5.031830 1.963677 0
M  V30 27 O -2.143664 -4.830740 2.933931 0
M  V30 28 C -1.919200 -6.226441 3.033877 0
M  V30 29 C -0.576753 -6.448130 3.674249 0
M  V30 30 S -5.001234 -2.250180 1.579761 0
M  V30 31 C -3.769423 2.933096 -0.653857 0
M  V30 32 C -2.665095 3.234169 -1.424495 0
M  V30 33 H 3.430438 -4.696916 1.589817 0
M  V30 34 H 4.235685 -3.586496 2.799958 0
M  V30 35 H 2.408696 -3.611730 2.681111 0
M  V30 36 H 2.497663 -2.861258 0.501859 0
M  V30 37 H 4.346888 -2.848993 0.451683 0
M  V30 38 H 2.471440 -1.234938 2.228606 0
M  V30 39 H 4.188028 -1.286016 2.581094 0
M  V30 40 H 4.779453 -0.151898 0.394753 0
M  V30 41 H 3.809610 0.797180 1.496687 0
M  V30 42 H 3.111553 1.192624 -0.619307 0
M  V30 43 H 1.743299 0.164480 0.000466 0
M  V30 44 H 3.914403 -0.557918 -2.014820 0
M  V30 45 H 2.885918 -1.819370 -1.211111 0
M  V30 46 H 0.850262 -0.712414 -2.254264 0
M  V30 47 H 2.090014 -1.350459 -3.371303 0
M  V30 48 H 2.854273 0.842666 -4.006513 0
M  V30 49 H 1.129050 0.563657 -4.232107 0
M  V30 50 H 1.550217 2.758512 -3.708998 0
M  V30 51 H 2.414451 2.469100 -2.185259 0
M  V30 52 H 0.487054 4.167279 -1.486175 0
M  V30 53 H -0.344100 2.456353 0.975337 0
M  V30 54 H -2.327567 1.961817 2.229104 0
M  V30 55 H -6.470421 0.250143 0.887779 0
M  V30 56 H -2.678446 -6.726131 3.653008 0
M  V30 57 H -1.894995 -6.718619 2.039354 0
M  V30 58 H 0.203006 -6.149173 2.916371 0
M  V30 59 H -0.393278 -5.860310 4.578340 0
M  V30 60 H -0.395410 -7.540807 3.835774 0
M  V30 61 H -4.723474 3.081776 -1.152713 0
M  V30 62 H -2.629022 3.593021 -2.443961 0
M  V30 END ATOM
M  V30 BEGIN BOND
M  V30 1 1 1 2
M  V30 2 1 2 3
M  V30 3 1 3 4
M  V30 4 1 4 5
M  V30 5 1 5 6
M  V30 6 1 6 7
M  V30 7 1 7 8
M  V30 8 1 8 9
M  V30 9 1 9 10
M  V30 10 2 10 11
M  V30 11 1 10 12
M  V30 12 1 12 13
M  V30 13 2 13 14
M  V30 14 1 14 15
M  V30 15 2 15 16
M  V30 16 1 16 17
M  V30 17 2 17 18
M  V30 18 2 17 19
M  V30 19 1 17 20
M  V30 20 1 20 21
M  V30 21 2 21 22
M  V30 22 1 22 23
M  V30 23 2 23 24
M  V30 24 1 24 25
M  V30 25 2 25 26
M  V30 26 1 25 27
M  V30 27 1 27 28
M  V30 28 1 28 29
M  V30 29 1 24 30
M  V30 30 1 16 31
M  V30 31 2 31 32
M  V30 32 1 32 13
M  V30 33 1 30 21
M  V30 34 1 1 33
M  V30 35 1 1 34
M  V30 36 1 1 35
M  V30 37 1 2 36
M  V30 38 1 2 37
M  V30 39 1 3 38
M  V30 40 1 3 39
M  V30 41 1 4 40
M  V30 42 1 4 41
M  V30 43 1 5 42
M  V30 44 1 5 43
M  V30 45 1 6 44
M  V30 46 1 6 45
M  V30 47 1 7 46
M  V30 48 1 7 47
M  V30 49 1 8 48
M  V30 50 1 8 49
M  V30 51 1 9 50
M  V30 52 1 9 51
M  V30 53 1 12 52
M  V30 54 1 14 53
M  V30 55 1 15 54
M  V30 56 1 20 55
M  V30 57 1 28 56
M  V30 58 1 28 57
M  V30 59 1 29 58
M  V30 60 1 29 59
M  V30 61 1 29 60
M  V30 62 1 31 61
M  V30 63 1 32 62
M  V30 END BOND
M  V30 END CTAB
M  END
>  <Dataset>  (427) 
ChEMBL_Kinases

>  <Ligand_Instance>  (427) 
nan

>  <PDB_ID>  (427) 
nan

>  <Standardized_SMILES>  (427) 
CCCCCCCCCC(=O)Nc1ccc(S(=O)(=O)Nc2nnc(C(=O)OCC)s2)cc1

>  <Name>  (427) 
nan

>  <Pocket>  (427) 
nan

>  <ATP_Site>  (427) 
nan

>  <Peripheral>  (427) 
nan

>  <Num_H_Atoms_ProtBoundConf>  (427) 
nan

>  <Num_Resolved_Atoms>  (427) 
nan

>  <Num_Not_Resolved_Atoms>  (427) 
nan

$$$$
CHEMBL1685042
     RDKit          3D

  0  0  0  0  0  0  0  0  0  0999 V3000
M  V30 BEGIN CTAB
M  V30 COUNTS 65 66 0 0 0
M  V30 BEGIN ATOM
M  V30 1 C 4.903560 -0.073528 2.929444 0
M  V30 2 C 6.362220 -0.080548 3.149901 0
M  V30 3 C 7.250324 -0.621430 2.078629 0
M  V30 4 C 7.219839 0.036060 0.755651 0
M  V30 5 C 5.937049 -0.015588 -0.012218 0
M  V30 6 C 5.555189 -1.453018 -0.338681 0
M  V30 7 C 4.260370 -1.486157 -1.078665 0
M  V30 8 C 4.372275 -0.703195 -2.359179 0
M  V30 9 C 3.050688 -0.736169 -3.138120 0
M  V30 10 C 1.976899 -0.123962 -2.274706 0
M  V30 11 O 1.834106 0.416398 -1.134770 0
M  V30 12 N 0.639472 -0.087671 -2.819724 0
M  V30 13 C -0.188193 0.526937 -1.829136 0
M  V30 14 C -0.746702 -0.356466 -0.928516 0
M  V30 15 C -1.556963 0.115142 0.073476 0
M  V30 16 C -1.833048 1.457925 0.209558 0
M  V30 17 S -2.815908 2.270679 1.395665 0
M  V30 18 O -2.777783 1.479428 2.695364 0
M  V30 19 O -2.203354 3.612988 1.762376 0
M  V30 20 N -4.431665 2.510531 0.942178 0
M  V30 21 C -5.388131 1.528573 0.647198 0
M  V30 22 N -6.670804 1.476106 0.281185 0
M  V30 23 N -7.243113 0.377692 0.099226 0
M  V30 24 C -6.664073 -0.787693 0.243715 0
M  V30 25 C -7.122014 -2.179150 0.092609 0
M  V30 26 C -7.648481 -2.722737 1.382566 0
M  V30 27 O -7.628116 -1.948986 2.371583 0
M  V30 28 O -8.128665 -3.998741 1.483573 0
M  V30 29 C -8.642881 -4.593746 2.652077 0
M  V30 30 C -9.844975 -3.814666 3.117576 0
M  V30 31 S -4.999684 -0.314651 0.725344 0
M  V30 32 C -1.261420 2.329902 -0.707333 0
M  V30 33 C -0.439701 1.881107 -1.728672 0
M  V30 34 H 4.414991 -0.303595 3.931909 0
M  V30 35 H 4.579318 0.971425 2.629605 0
M  V30 36 H 4.485691 -0.782533 2.223813 0
M  V30 37 H 6.583037 -0.705751 4.064873 0
M  V30 38 H 6.711287 0.970168 3.330674 0
M  V30 39 H 8.322546 -0.547598 2.443889 0
M  V30 40 H 7.095978 -1.731999 2.015703 0
M  V30 41 H 8.018605 -0.365334 0.075013 0
M  V30 42 H 7.470305 1.120885 0.898585 0
M  V30 43 H 5.118258 0.584262 0.380303 0
M  V30 44 H 6.186469 0.471931 -1.013418 0
M  V30 45 H 5.580140 -2.054949 0.577271 0
M  V30 46 H 6.340385 -1.786906 -1.063467 0
M  V30 47 H 4.037830 -2.569655 -1.299893 0
M  V30 48 H 3.465032 -1.066221 -0.434389 0
M  V30 49 H 5.194471 -1.088245 -2.960275 0
M  V30 50 H 4.472490 0.376645 -2.064588 0
M  V30 51 H 2.810407 -1.781968 -3.326453 0
M  V30 52 H 3.135148 -0.201535 -4.087061 0
M  V30 53 H 0.361215 -0.459368 -3.782073 0
M  V30 54 H -0.586194 -1.416364 -0.959042 0
M  V30 55 H -2.029317 -0.492575 0.816543 0
M  V30 56 H -4.876664 3.445563 0.837967 0
M  V30 57 H -6.244320 -2.773589 -0.210539 0
M  V30 58 H -7.898897 -2.178628 -0.692299 0
M  V30 59 H -8.876950 -5.665031 2.484913 0
M  V30 60 H -7.854646 -4.514587 3.444604 0
M  V30 61 H -9.535037 -2.794704 3.358663 0
M  V30 62 H -10.261822 -4.270007 4.062243 0
M  V30 63 H -10.668615 -3.855041 2.378031 0
M  V30 64 H -1.386568 3.412552 -0.730512 0
M  V30 65 H 0.028047 2.523583 -2.464976 0
M  V30 END ATOM
M  V30 BEGIN BOND
M  V30 1 1 1 2
M  V30 2 1 2 3
M  V30 3 1 3 4
M  V30 4 1 4 5
M  V30 5 1 5 6
M  V30 6 1 6 7
M  V30 7 1 7 8
M  V30 8 1 8 9
M  V30 9 1 9 10
M  V30 10 2 10 11
M  V30 11 1 10 12
M  V30 12 1 12 13
M  V30 13 2 13 14
M  V30 14 1 14 15
M  V30 15 2 15 16
M  V30 16 1 16 17
M  V30 17 2 17 18
M  V30 18 2 17 19
M  V30 19 1 17 20
M  V30 20 1 20 21
M  V30 21 2 21 22
M  V30 22 1 22 23
M  V30 23 2 23 24
M  V30 24 1 24 25
M  V30 25 1 25 26
M  V30 26 2 26 27
M  V30 27 1 26 28
M  V30 28 1 28 29
M  V30 29 1 29 30
M  V30 30 1 24 31
M  V30 31 1 16 32
M  V30 32 2 32 33
M  V30 33 1 33 13
M  V30 34 1 31 21
M  V30 35 1 1 34
M  V30 36 1 1 35
M  V30 37 1 1 36
M  V30 38 1 2 37
M  V30 39 1 2 38
M  V30 40 1 3 39
M  V30 41 1 3 40
M  V30 42 1 4 41
M  V30 43 1 4 42
M  V30 44 1 5 43
M  V30 45 1 5 44
M  V30 46 1 6 45
M  V30 47 1 6 46
M  V30 48 1 7 47
M  V30 49 1 7 48
M  V30 50 1 8 49
M  V30 51 1 8 50
M  V30 52 1 9 51
M  V30 53 1 9 52
M  V30 54 1 12 53
M  V30 55 1 14 54
M  V30 56 1 15 55
M  V30 57 1 20 56
M  V30 58 1 25 57
M  V30 59 1 25 58
M  V30 60 1 29 59
M  V30 61 1 29 60
M  V30 62 1 30 61
M  V30 63 1 30 62
M  V30 64 1 30 63
M  V30 65 1 32 64
M  V30 66 1 33 65
M  V30 END BOND
M  V30 END CTAB
M  END
>  <Dataset>  (428) 
ChEMBL_Kinases

>  <Ligand_Instance>  (428) 
nan

>  <PDB_ID>  (428) 
nan

>  <Standardized_SMILES>  (428) 
CCCCCCCCCC(=O)Nc1ccc(S(=O)(=O)Nc2nnc(CC(=O)OCC)s2)cc1

>  <Name>  (428) 
nan

>  <Pocket>  (428) 
nan

>  <ATP_Site>  (428) 
nan

>  <Peripheral>  (428) 
nan

>  <Num_H_Atoms_ProtBoundConf>  (428) 
nan

>  <Num_Resolved_Atoms>  (428) 
nan

>  <Num_Not_Resolved_Atoms>  (428) 
nan

$$$$
CHEMBL1685041
     RDKit          3D

  0  0  0  0  0  0  0  0  0  0999 V3000
M  V30 BEGIN CTAB
M  V30 COUNTS 59 60 0 0 0
M  V30 BEGIN ATOM
M  V30 1 C 0.336506 -1.780630 1.854791 0
M  V30 2 C 1.450468 -2.385445 2.646124 0
M  V30 3 C 2.687966 -2.633520 1.802002 0
M  V30 4 C 3.168222 -1.298984 1.234175 0
M  V30 5 C 4.392623 -1.506618 0.392581 0
M  V30 6 C 4.252330 -2.396104 -0.768422 0
M  V30 7 C 3.333680 -2.151971 -1.879848 0
M  V30 8 C 3.468536 -0.984949 -2.773972 0
M  V30 9 C 3.271346 0.368959 -2.196951 0
M  V30 10 C 1.892389 0.509629 -1.652552 0
M  V30 11 O 0.884016 -0.270562 -1.572818 0
M  V30 12 N 1.599999 1.796288 -1.084401 0
M  V30 13 C 0.301912 1.988899 -0.550446 0
M  V30 14 C -0.653426 2.469889 -1.451306 0
M  V30 15 C -1.947534 2.680497 -0.990579 0
M  V30 16 C -2.339980 2.437306 0.319788 0
M  V30 17 S -4.009702 2.757958 0.723612 0
M  V30 18 O -4.133248 3.116298 2.191776 0
M  V30 19 O -4.492408 3.949068 -0.051089 0
M  V30 20 N -5.027992 1.386657 0.488613 0
M  V30 21 C -4.660416 0.319199 1.291497 0
M  V30 22 N -3.857017 0.017543 2.113286 0
M  V30 23 N -3.598963 -1.001502 2.800312 0
M  V30 24 C -4.551791 -2.090634 2.489439 0
M  V30 25 C -4.808267 -3.468225 2.910556 0
M  V30 26 C -4.089189 -4.469771 2.124093 0
M  V30 27 O -3.336437 -4.103593 1.185783 0
M  V30 28 O -4.260997 -5.807578 2.440243 0
M  V30 29 S -5.662672 -1.293403 1.178741 0
M  V30 30 C -1.368788 1.963287 1.178873 0
M  V30 31 C -0.078963 1.748335 0.738831 0
M  V30 32 H 0.570992 -1.687290 0.764163 0
M  V30 33 H -0.605331 -2.365866 1.904892 0
M  V30 34 H 0.114981 -0.773199 2.257299 0
M  V30 35 H 1.741937 -1.695901 3.462446 0
M  V30 36 H 1.069470 -3.303604 3.107624 0
M  V30 37 H 3.522109 -3.008891 2.427201 0
M  V30 38 H 2.533161 -3.345461 0.990863 0
M  V30 39 H 3.505197 -0.722191 2.146607 0
M  V30 40 H 2.367001 -0.724187 0.801802 0
M  V30 41 H 5.134091 -2.077919 1.089568 0
M  V30 42 H 4.946131 -0.596260 0.197533 0
M  V30 43 H 5.308872 -2.428446 -1.239985 0
M  V30 44 H 4.172026 -3.480750 -0.422586 0
M  V30 45 H 3.341376 -3.066817 -2.585726 0
M  V30 46 H 2.248133 -2.172905 -1.513641 0
M  V30 47 H 4.478274 -0.997073 -3.305479 0
M  V30 48 H 2.677859 -1.150690 -3.596771 0
M  V30 49 H 3.425349 1.117906 -3.033699 0
M  V30 50 H 3.981189 0.567749 -1.395910 0
M  V30 51 H 2.231673 2.647524 -1.003769 0
M  V30 52 H -0.393969 2.676171 -2.491066 0
M  V30 53 H -2.653620 3.053767 -1.724517 0
M  V30 54 H -5.831508 1.343335 -0.174201 0
M  V30 55 H -5.912970 -3.678572 2.793077 0
M  V30 56 H -4.591326 -3.627398 4.001202 0
M  V30 57 H -3.863562 -6.551926 1.852415 0
M  V30 58 H -1.684406 1.780121 2.186023 0
M  V30 59 H 0.673539 1.387515 1.381451 0
M  V30 END ATOM
M  V30 BEGIN BOND
M  V30 1 1 1 2
M  V30 2 1 2 3
M  V30 3 1 3 4
M  V30 4 1 4 5
M  V30 5 1 5 6
M  V30 6 1 6 7
M  V30 7 1 7 8
M  V30 8 1 8 9
M  V30 9 1 9 10
M  V30 10 2 10 11
M  V30 11 1 10 12
M  V30 12 1 12 13
M  V30 13 2 13 14
M  V30 14 1 14 15
M  V30 15 2 15 16
M  V30 16 1 16 17
M  V30 17 2 17 18
M  V30 18 2 17 19
M  V30 19 1 17 20
M  V30 20 1 20 21
M  V30 21 2 21 22
M  V30 22 1 22 23
M  V30 23 2 23 24
M  V30 24 1 24 25
M  V30 25 1 25 26
M  V30 26 2 26 27
M  V30 27 1 26 28
M  V30 28 1 24 29
M  V30 29 1 16 30
M  V30 30 2 30 31
M  V30 31 1 31 13
M  V30 32 1 29 21
M  V30 33 1 1 32
M  V30 34 1 1 33
M  V30 35 1 1 34
M  V30 36 1 2 35
M  V30 37 1 2 36
M  V30 38 1 3 37
M  V30 39 1 3 38
M  V30 40 1 4 39
M  V30 41 1 4 40
M  V30 42 1 5 41
M  V30 43 1 5 42
M  V30 44 1 6 43
M  V30 45 1 6 44
M  V30 46 1 7 45
M  V30 47 1 7 46
M  V30 48 1 8 47
M  V30 49 1 8 48
M  V30 50 1 9 49
M  V30 51 1 9 50
M  V30 52 1 12 51
M  V30 53 1 14 52
M  V30 54 1 15 53
M  V30 55 1 20 54
M  V30 56 1 25 55
M  V30 57 1 25 56
M  V30 58 1 28 57
M  V30 59 1 30 58
M  V30 60 1 31 59
M  V30 END BOND
M  V30 END CTAB
M  END
>  <Dataset>  (429) 
ChEMBL_Kinases

>  <Ligand_Instance>  (429) 
nan

>  <PDB_ID>  (429) 
nan

>  <Standardized_SMILES>  (429) 
CCCCCCCCCC(=O)Nc1ccc(S(=O)(=O)Nc2nnc(CC(=O)O)s2)cc1

>  <Name>  (429) 
nan

>  <Pocket>  (429) 
nan

>  <ATP_Site>  (429) 
nan

>  <Peripheral>  (429) 
nan

>  <Num_H_Atoms_ProtBoundConf>  (429) 
nan

>  <Num_Resolved_Atoms>  (429) 
nan

>  <Num_Not_Resolved_Atoms>  (429) 
nan

$$$$
CHEMBL1685039
     RDKit          3D

  0  0  0  0  0  0  0  0  0  0999 V3000
M  V30 BEGIN CTAB
M  V30 COUNTS 59 60 0 0 0
M  V30 BEGIN ATOM
M  V30 1 C 3.477128 -3.102374 3.318308 0
M  V30 2 C 3.647442 -3.485102 1.856917 0
M  V30 3 C 5.050926 -3.308809 1.400281 0
M  V30 4 C 5.656010 -1.981799 1.478925 0
M  V30 5 C 5.193506 -0.791478 0.771436 0
M  V30 6 C 5.192796 -0.753085 -0.707945 0
M  V30 7 C 4.290301 -1.600836 -1.496771 0
M  V30 8 C 2.815705 -1.297167 -1.322409 0
M  V30 9 C 2.518830 0.138630 -1.760674 0
M  V30 10 C 1.060028 0.327266 -1.558464 0
M  V30 11 O 0.398862 -0.654414 -1.134386 0
M  V30 12 N 0.507092 1.585497 -1.852201 0
M  V30 13 C -0.896688 1.774804 -1.665034 0
M  V30 14 C -1.907598 1.598311 -2.589462 0
M  V30 15 C -3.230723 1.814189 -2.263960 0
M  V30 16 C -3.536453 2.221053 -0.961631 0
M  V30 17 S -5.256328 2.475991 -0.643354 0
M  V30 18 O -5.454963 3.455759 0.482884 0
M  V30 19 O -5.918098 3.077179 -1.848830 0
M  V30 20 N -6.031087 0.997465 -0.208137 0
M  V30 21 C -5.541547 0.386054 0.964805 0
M  V30 22 N -4.782994 0.407257 1.878261 0
M  V30 23 N -4.683901 -0.475914 2.814951 0
M  V30 24 C -5.331941 -1.456752 2.922526 0
M  V30 25 C -5.509639 -2.641223 3.793872 0
M  V30 26 C -6.614871 -3.551729 3.274494 0
M  V30 27 S -6.425735 -1.245278 1.383089 0
M  V30 28 C -2.527070 2.396812 -0.041626 0
M  V30 29 C -1.197170 2.182303 -0.360625 0
M  V30 30 H 2.506293 -3.483162 3.705294 0
M  V30 31 H 3.438921 -1.994174 3.454114 0
M  V30 32 H 4.320691 -3.561731 3.862827 0
M  V30 33 H 3.457839 -4.609112 1.827278 0
M  V30 34 H 2.903746 -3.060253 1.214799 0
M  V30 35 H 5.654443 -3.942982 2.172634 0
M  V30 36 H 5.315752 -3.846218 0.464360 0
M  V30 37 H 6.749040 -2.133168 1.125370 0
M  V30 38 H 5.800881 -1.666901 2.578317 0
M  V30 39 H 4.213705 -0.383591 1.196056 0
M  V30 40 H 5.904909 0.052149 1.088799 0
M  V30 41 H 5.173022 0.320276 -1.094043 0
M  V30 42 H 6.252289 -1.057945 -1.022678 0
M  V30 43 H 4.413637 -2.663321 -1.255220 0
M  V30 44 H 4.560211 -1.478153 -2.580101 0
M  V30 45 H 2.505888 -1.469459 -0.302213 0
M  V30 46 H 2.258033 -1.969109 -1.997842 0
M  V30 47 H 3.080113 0.890358 -1.206179 0
M  V30 48 H 2.800061 0.264841 -2.835715 0
M  V30 49 H 1.007341 2.428781 -2.203681 0
M  V30 50 H -1.532010 1.282741 -3.557518 0
M  V30 51 H -3.973111 1.650839 -3.056736 0
M  V30 52 H -6.806499 0.654115 -0.837699 0
M  V30 53 H -5.771994 -2.337575 4.829752 0
M  V30 54 H -4.554903 -3.208123 3.774234 0
M  V30 55 H -7.262029 -2.899405 2.651025 0
M  V30 56 H -7.181994 -4.033240 4.080084 0
M  V30 57 H -6.160010 -4.322205 2.614338 0
M  V30 58 H -2.873938 2.714968 0.945754 0
M  V30 59 H -0.493278 2.353211 0.448896 0
M  V30 END ATOM
M  V30 BEGIN BOND
M  V30 1 1 1 2
M  V30 2 1 2 3
M  V30 3 1 3 4
M  V30 4 1 4 5
M  V30 5 1 5 6
M  V30 6 1 6 7
M  V30 7 1 7 8
M  V30 8 1 8 9
M  V30 9 1 9 10
M  V30 10 2 10 11
M  V30 11 1 10 12
M  V30 12 1 12 13
M  V30 13 2 13 14
M  V30 14 1 14 15
M  V30 15 2 15 16
M  V30 16 1 16 17
M  V30 17 2 17 18
M  V30 18 2 17 19
M  V30 19 1 17 20
M  V30 20 1 20 21
M  V30 21 2 21 22
M  V30 22 1 22 23
M  V30 23 2 23 24
M  V30 24 1 24 25
M  V30 25 1 25 26
M  V30 26 1 24 27
M  V30 27 1 16 28
M  V30 28 2 28 29
M  V30 29 1 29 13
M  V30 30 1 27 21
M  V30 31 1 1 30
M  V30 32 1 1 31
M  V30 33 1 1 32
M  V30 34 1 2 33
M  V30 35 1 2 34
M  V30 36 1 3 35
M  V30 37 1 3 36
M  V30 38 1 4 37
M  V30 39 1 4 38
M  V30 40 1 5 39
M  V30 41 1 5 40
M  V30 42 1 6 41
M  V30 43 1 6 42
M  V30 44 1 7 43
M  V30 45 1 7 44
M  V30 46 1 8 45
M  V30 47 1 8 46
M  V30 48 1 9 47
M  V30 49 1 9 48
M  V30 50 1 12 49
M  V30 51 1 14 50
M  V30 52 1 15 51
M  V30 53 1 20 52
M  V30 54 1 25 53
M  V30 55 1 25 54
M  V30 56 1 26 55
M  V30 57 1 26 56
M  V30 58 1 26 57
M  V30 59 1 28 58
M  V30 60 1 29 59
M  V30 END BOND
M  V30 END CTAB
M  END
>  <Dataset>  (430) 
ChEMBL_Kinases

>  <Ligand_Instance>  (430) 
nan

>  <PDB_ID>  (430) 
nan

>  <Standardized_SMILES>  (430) 
CCCCCCCCCC(=O)Nc1ccc(S(=O)(=O)Nc2nnc(CC)s2)cc1

>  <Name>  (430) 
nan

>  <Pocket>  (430) 
nan

>  <ATP_Site>  (430) 
nan

>  <Peripheral>  (430) 
nan

>  <Num_H_Atoms_ProtBoundConf>  (430) 
nan

>  <Num_Resolved_Atoms>  (430) 
nan

>  <Num_Not_Resolved_Atoms>  (430) 
nan

$$$$
CHEMBL168461
     RDKit          3D

  0  0  0  0  0  0  0  0  0  0999 V3000
M  V30 BEGIN CTAB
M  V30 COUNTS 25 24 0 0 0
M  V30 BEGIN ATOM
M  V30 1 N 1.074837 1.722696 3.499659 0
M  V30 2 C 1.013682 0.328629 3.164743 0
M  V30 3 S 0.460903 -0.886727 4.370917 0
M  V30 4 N 1.329096 -0.178868 2.029918 0
M  V30 5 C 1.271736 -1.561299 1.687946 0
M  V30 6 C 0.290999 -1.938417 0.630499 0
M  V30 7 C 0.489303 -1.301259 -0.699938 0
M  V30 8 C 0.424839 0.186031 -0.735514 0 CFG=1
M  V30 9 N 0.639109 0.631949 -2.120821 0
M  V30 10 C -0.908126 0.713027 -0.343359 0
M  V30 11 O -1.448181 1.371594 -1.292059 0
M  V30 12 O -1.518815 0.531815 0.888105 0
M  V30 13 H 0.048686 1.903157 3.561450 0
M  V30 14 H 1.843291 2.423955 3.654979 0
M  V30 15 H -0.931170 -1.071134 4.192093 0
M  V30 16 H 2.303887 -1.837820 1.326440 0
M  V30 17 H 1.114488 -2.125791 2.630149 0
M  V30 18 H 0.426342 -3.044084 0.465894 0
M  V30 19 H -0.758617 -1.829238 0.959842 0
M  V30 20 H -0.347476 -1.668195 -1.356798 0
M  V30 21 H 1.411438 -1.660406 -1.209149 0
M  V30 22 H 1.188760 0.716865 -0.149119 0
M  V30 23 H -0.210809 0.420917 -2.702715 0
M  V30 24 H 1.410330 0.082259 -2.576778 0
M  V30 25 H -2.533086 0.665708 0.953578 0
M  V30 END ATOM
M  V30 BEGIN BOND
M  V30 1 1 1 2
M  V30 2 1 2 3
M  V30 3 2 2 4
M  V30 4 1 4 5
M  V30 5 1 5 6
M  V30 6 1 6 7
M  V30 7 1 7 8
M  V30 8 1 8 9
M  V30 9 1 8 10
M  V30 10 2 10 11
M  V30 11 1 10 12
M  V30 12 1 1 13
M  V30 13 1 1 14
M  V30 14 1 3 15
M  V30 15 1 5 16
M  V30 16 1 5 17
M  V30 17 1 6 18
M  V30 18 1 6 19
M  V30 19 1 7 20
M  V30 20 1 7 21
M  V30 21 1 8 22 CFG=1
M  V30 22 1 9 23
M  V30 23 1 9 24
M  V30 24 1 12 25
M  V30 END BOND
M  V30 END CTAB
M  END
>  <Dataset>  (431) 
ChEMBL_Kinases

>  <Ligand_Instance>  (431) 
nan

>  <PDB_ID>  (431) 
nan

>  <Standardized_SMILES>  (431) 
N/C(S)=N/CCC[C@@H](N)C(=O)O

>  <Name>  (431) 
nan

>  <Pocket>  (431) 
nan

>  <ATP_Site>  (431) 
nan

>  <Peripheral>  (431) 
nan

>  <Num_H_Atoms_ProtBoundConf>  (431) 
nan

>  <Num_Resolved_Atoms>  (431) 
nan

>  <Num_Not_Resolved_Atoms>  (431) 
nan

$$$$
CHEMBL1684493
     RDKit          3D

  0  0  0  0  0  0  0  0  0  0999 V3000
M  V30 BEGIN CTAB
M  V30 COUNTS 48 50 0 0 0
M  V30 BEGIN ATOM
M  V30 1 O -0.365470 -2.301741 2.462491 0
M  V30 2 C 0.177789 -1.894979 1.412615 0
M  V30 3 N 1.255008 -2.741764 1.200651 0
M  V30 4 O 2.223636 -3.647807 1.173637 0
M  V30 5 C 3.312555 -3.174580 1.932445 0
M  V30 6 C 4.458400 -4.162664 1.869965 0
M  V30 7 O 4.852152 -4.317087 0.542595 0
M  V30 8 C -0.204414 -0.783472 0.569270 0
M  V30 9 C 0.469563 -0.351692 -0.538487 0
M  V30 10 C 0.001755 0.741489 -1.236930 0
M  V30 11 C 0.756334 1.185918 -2.436940 0
M  V30 12 N 1.529148 2.377219 -2.094490 0
M  V30 13 O 2.806274 2.303270 -1.598044 0
M  V30 14 C 2.841480 3.249107 -0.572627 0
M  V30 15 C 1.995785 4.406266 -1.045209 0
M  V30 16 C 1.214913 3.781013 -2.163915 0
M  V30 17 O 0.423443 4.191089 -3.057543 0
M  V30 18 C -1.142323 1.361080 -0.780032 0
M  V30 19 F -1.516841 2.421011 -1.535375 0
M  V30 20 C -1.808451 0.901712 0.349020 0
M  V30 21 F -2.882544 1.679045 0.608729 0
M  V30 22 C -1.342850 -0.211851 1.068255 0
M  V30 23 N -2.187562 -0.479529 2.159305 0
M  V30 24 C -3.250501 -1.353057 2.479432 0
M  V30 25 C -3.307066 -2.230313 3.539446 0
M  V30 26 C -4.319729 -3.097157 3.846427 0
M  V30 27 C -5.416583 -3.109350 3.013448 0
M  V30 28 I -6.976440 -4.439610 3.480582 0
M  V30 29 C -5.434912 -2.257821 1.928264 0
M  V30 30 C -4.371084 -1.411201 1.685890 0
M  V30 31 F -4.594402 -0.682777 0.580857 0
M  V30 32 H 1.808040 -2.521618 0.311075 0
M  V30 33 H 3.012695 -3.026146 2.995125 0
M  V30 34 H 3.696431 -2.200633 1.571415 0
M  V30 35 H 4.081592 -5.141669 2.266051 0
M  V30 36 H 5.309293 -3.838879 2.469195 0
M  V30 37 H 5.489829 -3.551062 0.376058 0
M  V30 38 H 1.357965 -0.896546 -0.824266 0
M  V30 39 H 1.454871 0.383160 -2.737224 0
M  V30 40 H 0.063459 1.396598 -3.283743 0
M  V30 41 H 2.469968 2.853036 0.387086 0
M  V30 42 H 3.866074 3.640313 -0.410587 0
M  V30 43 H 2.613940 5.245807 -1.425047 0
M  V30 44 H 1.301345 4.699820 -0.238347 0
M  V30 45 H -1.904147 0.186926 2.925906 0
M  V30 46 H -2.446460 -2.241274 4.226284 0
M  V30 47 H -4.280463 -3.750950 4.699184 0
M  V30 48 H -6.347472 -2.353861 1.342829 0
M  V30 END ATOM
M  V30 BEGIN BOND
M  V30 1 2 1 2
M  V30 2 1 2 3
M  V30 3 1 3 4
M  V30 4 1 4 5
M  V30 5 1 5 6
M  V30 6 1 6 7
M  V30 7 1 2 8
M  V30 8 2 8 9
M  V30 9 1 9 10
M  V30 10 1 10 11
M  V30 11 1 11 12
M  V30 12 1 12 13
M  V30 13 1 13 14
M  V30 14 1 14 15
M  V30 15 1 15 16
M  V30 16 2 16 17
M  V30 17 2 10 18
M  V30 18 1 18 19
M  V30 19 1 18 20
M  V30 20 1 20 21
M  V30 21 2 20 22
M  V30 22 1 22 23
M  V30 23 1 23 24
M  V30 24 2 24 25
M  V30 25 1 25 26
M  V30 26 2 26 27
M  V30 27 1 27 28
M  V30 28 1 27 29
M  V30 29 2 29 30
M  V30 30 1 30 31
M  V30 31 1 22 8
M  V30 32 1 30 24
M  V30 33 1 16 12
M  V30 34 1 3 32
M  V30 35 1 5 33
M  V30 36 1 5 34
M  V30 37 1 6 35
M  V30 38 1 6 36
M  V30 39 1 7 37
M  V30 40 1 9 38
M  V30 41 1 11 39
M  V30 42 1 11 40
M  V30 43 1 14 41
M  V30 44 1 14 42
M  V30 45 1 15 43
M  V30 46 1 15 44
M  V30 47 1 23 45
M  V30 48 1 25 46
M  V30 49 1 26 47
M  V30 50 1 29 48
M  V30 END BOND
M  V30 END CTAB
M  END
>  <Dataset>  (432) 
ChEMBL_Kinases

>  <Ligand_Instance>  (432) 
nan

>  <PDB_ID>  (432) 
nan

>  <Standardized_SMILES>  (432) 
O=C(NOCCO)c1cc(CN2OCCC2=O)c(F)c(F)c1Nc1ccc(I)cc1F

>  <Name>  (432) 
nan

>  <Pocket>  (432) 
nan

>  <ATP_Site>  (432) 
nan

>  <Peripheral>  (432) 
nan

>  <Num_H_Atoms_ProtBoundConf>  (432) 
nan

>  <Num_Resolved_Atoms>  (432) 
nan

>  <Num_Not_Resolved_Atoms>  (432) 
nan

$$$$
CHEMBL1684492
     RDKit          3D

  0  0  0  0  0  0  0  0  0  0999 V3000
M  V30 BEGIN CTAB
M  V30 COUNTS 50 51 0 0 0
M  V30 BEGIN ATOM
M  V30 1 C 3.319984 -3.646839 0.644391 0
M  V30 2 O 3.789743 -2.691381 -0.201161 0
M  V30 3 N 3.041604 -2.428078 -1.268117 0
M  V30 4 C 1.799645 -3.022505 -1.645052 0
M  V30 5 C 0.640850 -2.283413 -1.073940 0
M  V30 6 C 0.882138 -1.175646 -0.291918 0
M  V30 7 C -0.184879 -0.501600 0.229446 0
M  V30 8 C -0.041070 0.684147 1.039965 0
M  V30 9 O -0.915178 1.408926 1.534335 0
M  V30 10 N 1.244273 1.168820 1.372664 0
M  V30 11 O 1.291276 2.288366 2.137797 0
M  V30 12 C 2.567011 2.712561 2.428745 0
M  V30 13 C 2.623711 3.962516 3.283549 0
M  V30 14 O 2.002789 5.027581 2.666557 0
M  V30 15 C -1.467415 -0.917696 -0.018515 0
M  V30 16 N -2.690089 -0.371648 0.450648 0
M  V30 17 C -3.638876 -0.682870 1.474677 0
M  V30 18 C -4.867566 -0.892016 0.846821 0
M  V30 19 C -6.003703 -1.222201 1.591044 0
M  V30 20 C -5.873263 -1.334684 2.962093 0
M  V30 21 I -7.484209 -1.824683 4.229545 0
M  V30 22 C -4.670584 -1.128781 3.564304 0
M  V30 23 C -3.557796 -0.804363 2.824345 0
M  V30 24 F -2.319676 -0.583603 3.294687 0
M  V30 25 C -1.690277 -2.040590 -0.812553 0
M  V30 26 F -2.918425 -2.555395 -1.134131 0
M  V30 27 C -0.634516 -2.751022 -1.360037 0
M  V30 28 F -0.805791 -3.850873 -2.139531 0
M  V30 29 C 3.649802 -1.406881 -2.070378 0
M  V30 30 C 2.990788 -0.935615 -3.333575 0
M  V30 31 O 4.738064 -1.022075 -1.556310 0
M  V30 32 H 4.032406 -3.718739 1.497320 0
M  V30 33 H 2.376497 -3.258156 1.106125 0
M  V30 34 H 3.215706 -4.662133 0.246159 0
M  V30 35 H 1.676959 -4.069286 -1.330211 0
M  V30 36 H 1.662252 -3.025565 -2.749958 0
M  V30 37 H 1.895203 -0.875993 -0.116042 0
M  V30 38 H 2.155594 0.735858 1.077980 0
M  V30 39 H 3.121281 2.943889 1.479059 0
M  V30 40 H 3.116630 1.898062 2.933307 0
M  V30 41 H 2.242226 3.769375 4.292286 0
M  V30 42 H 3.702893 4.208370 3.392996 0
M  V30 43 H 1.740245 5.733375 3.286982 0
M  V30 44 H -2.785497 0.434725 -0.198577 0
M  V30 45 H -5.137279 -0.843016 -0.210479 0
M  V30 46 H -6.984900 -1.402180 1.214993 0
M  V30 47 H -4.512184 -1.203137 4.626600 0
M  V30 48 H 2.093621 -0.336942 -3.155272 0
M  V30 49 H 2.761360 -1.814825 -3.992698 0
M  V30 50 H 3.710146 -0.333575 -3.901697 0
M  V30 END ATOM
M  V30 BEGIN BOND
M  V30 1 1 1 2
M  V30 2 1 2 3
M  V30 3 1 3 4
M  V30 4 1 4 5
M  V30 5 2 5 6
M  V30 6 1 6 7
M  V30 7 1 7 8
M  V30 8 2 8 9
M  V30 9 1 8 10
M  V30 10 1 10 11
M  V30 11 1 11 12
M  V30 12 1 12 13
M  V30 13 1 13 14
M  V30 14 2 7 15
M  V30 15 1 15 16
M  V30 16 1 16 17
M  V30 17 2 17 18
M  V30 18 1 18 19
M  V30 19 2 19 20
M  V30 20 1 20 21
M  V30 21 1 20 22
M  V30 22 2 22 23
M  V30 23 1 23 24
M  V30 24 1 15 25
M  V30 25 1 25 26
M  V30 26 2 25 27
M  V30 27 1 27 28
M  V30 28 1 3 29
M  V30 29 1 29 30
M  V30 30 2 29 31
M  V30 31 1 27 5
M  V30 32 1 23 17
M  V30 33 1 1 32
M  V30 34 1 1 33
M  V30 35 1 1 34
M  V30 36 1 4 35
M  V30 37 1 4 36
M  V30 38 1 6 37
M  V30 39 1 10 38
M  V30 40 1 12 39
M  V30 41 1 12 40
M  V30 42 1 13 41
M  V30 43 1 13 42
M  V30 44 1 14 43
M  V30 45 1 16 44
M  V30 46 1 18 45
M  V30 47 1 19 46
M  V30 48 1 22 47
M  V30 49 1 30 48
M  V30 50 1 30 49
M  V30 51 1 30 50
M  V30 END BOND
M  V30 END CTAB
M  END
>  <Dataset>  (433) 
ChEMBL_Kinases

>  <Ligand_Instance>  (433) 
nan

>  <PDB_ID>  (433) 
nan

>  <Standardized_SMILES>  (433) 
CON(Cc1cc(C(=O)NOCCO)c(Nc2ccc(I)cc2F)c(F)c1F)C(C)=O

>  <Name>  (433) 
nan

>  <Pocket>  (433) 
nan

>  <ATP_Site>  (433) 
nan

>  <Peripheral>  (433) 
nan

>  <Num_H_Atoms_ProtBoundConf>  (433) 
nan

>  <Num_Resolved_Atoms>  (433) 
nan

>  <Num_Not_Resolved_Atoms>  (433) 
nan

$$$$
CHEMBL1684491
     RDKit          3D

  0  0  0  0  0  0  0  0  0  0999 V3000
M  V30 BEGIN CTAB
M  V30 COUNTS 49 50 0 0 0
M  V30 BEGIN ATOM
M  V30 1 O 0.617027 -3.457264 1.529455 0
M  V30 2 C 0.723355 -2.218695 1.689019 0
M  V30 3 N 2.052015 -1.869521 1.983144 0
M  V30 4 O 3.182517 -2.600897 2.117585 0
M  V30 5 C 3.735448 -2.642207 0.828792 0
M  V30 6 C 5.032964 -3.416375 0.809122 0
M  V30 7 O 5.992131 -2.877838 1.629424 0
M  V30 8 C -0.308419 -1.199055 1.605615 0
M  V30 9 C -0.042252 0.121813 1.862119 0
M  V30 10 C -1.073507 1.044168 1.790759 0
M  V30 11 C -0.773352 2.479115 2.070873 0
M  V30 12 N -0.734604 3.172191 0.803786 0
M  V30 13 O -0.467393 4.481569 0.930521 0
M  V30 14 C 0.912781 4.640449 0.965172 0
M  V30 15 C 1.254483 6.121468 1.124777 0
M  V30 16 O 0.712904 6.781071 0.031029 0
M  V30 17 C -2.362515 0.648118 1.464923 0
M  V30 18 F -3.298616 1.615265 1.420833 0
M  V30 19 C -2.582951 -0.709653 1.211642 0
M  V30 20 F -3.879255 -0.968259 0.905385 0
M  V30 21 C -1.570619 -1.636490 1.278062 0
M  V30 22 N -2.008926 -2.931059 0.963453 0
M  V30 23 C -2.342269 -3.733592 -0.162217 0
M  V30 24 C -3.669615 -4.145029 -0.003917 0
M  V30 25 C -4.300032 -4.952425 -0.958953 0
M  V30 26 C -3.548196 -5.316293 -2.053309 0
M  V30 27 I -4.376919 -6.530893 -3.566904 0
M  V30 28 C -2.240199 -4.925784 -2.234592 0
M  V30 29 C -1.647355 -4.132516 -1.279587 0
M  V30 30 F -0.385668 -3.649992 -1.293208 0
M  V30 31 H 2.404685 -0.909080 2.159371 0
M  V30 32 H 3.001148 -3.046577 0.131393 0
M  V30 33 H 3.940636 -1.593930 0.521812 0
M  V30 34 H 4.792745 -4.471986 1.082798 0
M  V30 35 H 5.384732 -3.447028 -0.241972 0
M  V30 36 H 6.620055 -2.341007 1.069998 0
M  V30 37 H 0.940893 0.478762 2.118990 0
M  V30 38 H -1.534556 2.847645 2.752076 0
M  V30 39 H 0.228884 2.567968 2.522885 0
M  V30 40 H -0.227493 2.671066 0.071578 0
M  V30 41 H 1.401516 4.051413 1.757234 0
M  V30 42 H 1.383119 4.344990 -0.011529 0
M  V30 43 H 2.342709 6.280690 1.134705 0
M  V30 44 H 0.875050 6.508636 2.101808 0
M  V30 45 H -0.203996 6.465266 -0.175182 0
M  V30 46 H -2.059081 -3.289957 1.945211 0
M  V30 47 H -4.373183 -3.926104 0.814922 0
M  V30 48 H -5.318039 -5.305163 -0.899546 0
M  V30 49 H -1.609889 -5.184442 -3.073754 0
M  V30 END ATOM
M  V30 BEGIN BOND
M  V30 1 2 1 2
M  V30 2 1 2 3
M  V30 3 1 3 4
M  V30 4 1 4 5
M  V30 5 1 5 6
M  V30 6 1 6 7
M  V30 7 1 2 8
M  V30 8 2 8 9
M  V30 9 1 9 10
M  V30 10 1 10 11
M  V30 11 1 11 12
M  V30 12 1 12 13
M  V30 13 1 13 14
M  V30 14 1 14 15
M  V30 15 1 15 16
M  V30 16 2 10 17
M  V30 17 1 17 18
M  V30 18 1 17 19
M  V30 19 1 19 20
M  V30 20 2 19 21
M  V30 21 1 21 22
M  V30 22 1 22 23
M  V30 23 2 23 24
M  V30 24 1 24 25
M  V30 25 2 25 26
M  V30 26 1 26 27
M  V30 27 1 26 28
M  V30 28 2 28 29
M  V30 29 1 29 30
M  V30 30 1 21 8
M  V30 31 1 29 23
M  V30 32 1 3 31
M  V30 33 1 5 32
M  V30 34 1 5 33
M  V30 35 1 6 34
M  V30 36 1 6 35
M  V30 37 1 7 36
M  V30 38 1 9 37
M  V30 39 1 11 38
M  V30 40 1 11 39
M  V30 41 1 12 40
M  V30 42 1 14 41
M  V30 43 1 14 42
M  V30 44 1 15 43
M  V30 45 1 15 44
M  V30 46 1 16 45
M  V30 47 1 22 46
M  V30 48 1 24 47
M  V30 49 1 25 48
M  V30 50 1 28 49
M  V30 END BOND
M  V30 END CTAB
M  END
>  <Dataset>  (434) 
ChEMBL_Kinases

>  <Ligand_Instance>  (434) 
nan

>  <PDB_ID>  (434) 
nan

>  <Standardized_SMILES>  (434) 
O=C(NOCCO)c1cc(CNOCCO)c(F)c(F)c1Nc1ccc(I)cc1F

>  <Name>  (434) 
nan

>  <Pocket>  (434) 
nan

>  <ATP_Site>  (434) 
nan

>  <Peripheral>  (434) 
nan

>  <Num_H_Atoms_ProtBoundConf>  (434) 
nan

>  <Num_Resolved_Atoms>  (434) 
nan

>  <Num_Not_Resolved_Atoms>  (434) 
nan

$$$$
CHEMBL168418
     RDKit          3D

  0  0  0  0  0  0  0  0  0  0999 V3000
M  V30 BEGIN CTAB
M  V30 COUNTS 39 41 0 0 0
M  V30 BEGIN ATOM
M  V30 1 O 0.646733 0.003535 -2.137641 0
M  V30 2 C 0.071106 -0.087343 -1.022462 0
M  V30 3 N 0.352730 -1.356744 -0.465552 0
M  V30 4 C 1.164704 -2.401122 -1.049488 0
M  V30 5 C 2.613917 -2.160801 -0.930862 0
M  V30 6 C 3.187187 -2.632701 0.256433 0
M  V30 7 C 4.528199 -2.525515 0.584480 0
M  V30 8 C 5.327573 -1.902194 -0.351404 0
M  V30 9 C 4.826245 -1.416213 -1.538498 0
M  V30 10 C 3.477849 -1.550386 -1.814789 0
M  V30 11 C -0.728194 0.997465 -0.489370 0
M  V30 12 C -0.803986 2.125023 -1.318629 0
M  V30 13 C -1.521950 3.245192 -0.974446 0
M  V30 14 C -2.197489 3.283011 0.221042 0
M  V30 15 N -2.116501 2.200813 1.001605 0
M  V30 16 C -1.424731 1.094660 0.693057 0
M  V30 17 O -1.336482 -0.021583 1.491378 0
M  V30 18 C -1.917169 -0.230642 2.715422 0
M  V30 19 C -1.552846 -1.490489 3.204196 0
M  V30 20 C -2.005896 -1.964214 4.440106 0
M  V30 21 C -2.845100 -1.140823 5.192426 0
M  V30 22 C -3.175770 0.077130 4.681325 0
M  V30 23 C -2.742135 0.549470 3.481284 0
M  V30 24 H -0.076618 -1.549430 0.469708 0
M  V30 25 H 0.900180 -2.484374 -2.150331 0
M  V30 26 H 0.902891 -3.368374 -0.558162 0
M  V30 27 H 2.587659 -3.130610 1.020336 0
M  V30 28 H 4.920734 -2.904474 1.510560 0
M  V30 29 H 6.395354 -1.812909 -0.097841 0
M  V30 30 H 5.458159 -0.929750 -2.266043 0
M  V30 31 H 3.014077 -1.198543 -2.724118 0
M  V30 32 H -0.295274 2.179099 -2.289398 0
M  V30 33 H -1.560283 4.098182 -1.635289 0
M  V30 34 H -2.779491 4.132655 0.549511 0
M  V30 35 H -0.915501 -2.225986 2.732813 0
M  V30 36 H -1.768123 -2.906042 4.867162 0
M  V30 37 H -3.211114 -1.486106 6.156650 0
M  V30 38 H -3.832715 0.757909 5.236967 0
M  V30 39 H -2.980962 1.492419 3.053976 0
M  V30 END ATOM
M  V30 BEGIN BOND
M  V30 1 2 1 2
M  V30 2 1 2 3
M  V30 3 1 3 4
M  V30 4 1 4 5
M  V30 5 2 5 6
M  V30 6 1 6 7
M  V30 7 2 7 8
M  V30 8 1 8 9
M  V30 9 2 9 10
M  V30 10 1 2 11
M  V30 11 2 11 12
M  V30 12 1 12 13
M  V30 13 2 13 14
M  V30 14 1 14 15
M  V30 15 2 15 16
M  V30 16 1 16 17
M  V30 17 1 17 18
M  V30 18 2 18 19
M  V30 19 1 19 20
M  V30 20 2 20 21
M  V30 21 1 21 22
M  V30 22 2 22 23
M  V30 23 1 10 5
M  V30 24 1 16 11
M  V30 25 1 23 18
M  V30 26 1 3 24
M  V30 27 1 4 25
M  V30 28 1 4 26
M  V30 29 1 6 27
M  V30 30 1 7 28
M  V30 31 1 8 29
M  V30 32 1 9 30
M  V30 33 1 10 31
M  V30 34 1 12 32
M  V30 35 1 13 33
M  V30 36 1 14 34
M  V30 37 1 19 35
M  V30 38 1 20 36
M  V30 39 1 21 37
M  V30 40 1 22 38
M  V30 41 1 23 39
M  V30 END BOND
M  V30 END CTAB
M  END
>  <Dataset>  (435) 
ChEMBL_Kinases

>  <Ligand_Instance>  (435) 
nan

>  <PDB_ID>  (435) 
nan

>  <Standardized_SMILES>  (435) 
O=C(NCc1ccccc1)c1cccnc1Oc1ccccc1

>  <Name>  (435) 
nan

>  <Pocket>  (435) 
nan

>  <ATP_Site>  (435) 
nan

>  <Peripheral>  (435) 
nan

>  <Num_H_Atoms_ProtBoundConf>  (435) 
nan

>  <Num_Resolved_Atoms>  (435) 
nan

>  <Num_Not_Resolved_Atoms>  (435) 
nan

$$$$
CHEMBL1684072
     RDKit          3D

  0  0  0  0  0  0  0  0  0  0999 V3000
M  V30 BEGIN CTAB
M  V30 COUNTS 39 41 0 0 0
M  V30 BEGIN ATOM
M  V30 1 C 0.845835 -5.026354 1.465885 0
M  V30 2 N 1.054384 -3.644324 1.082349 0
M  V30 3 C 2.032834 -3.428139 0.175594 0
M  V30 4 O 2.725833 -4.357827 -0.312396 0
M  V30 5 C 2.272493 -2.109973 -0.226709 0
M  V30 6 F 3.255296 -1.876348 -1.139833 0
M  V30 7 C 1.547830 -1.041793 0.269908 0
M  V30 8 N 1.779095 0.297390 -0.127868 0
M  V30 9 C 1.153326 0.968022 -1.215014 0
M  V30 10 C 0.238077 0.263521 -1.955986 0
M  V30 11 C -0.328318 0.991271 -3.000812 0
M  V30 12 C -0.016992 2.312690 -3.293768 0
M  V30 13 I -0.948753 3.291720 -4.902671 0
M  V30 14 C 0.913080 2.924751 -2.488476 0
M  V30 15 C 1.533742 2.275510 -1.418224 0
M  V30 16 F 2.451407 2.894528 -0.631290 0
M  V30 17 C 0.560089 -1.373943 1.201498 0
M  V30 18 C -0.181983 -0.320178 1.715757 0
M  V30 19 O 0.030802 0.864505 1.356522 0
M  V30 20 N -1.145998 -0.636457 2.623848 0
M  V30 21 C -1.898355 0.502969 3.135126 0
M  V30 22 C -1.136798 0.987618 4.376063 0
M  V30 23 O -1.853076 2.074990 4.865603 0
M  V30 24 C -1.398583 -1.895795 3.029345 0
M  V30 25 N -0.669227 -2.917058 2.521839 0
M  V30 26 C 0.297543 -2.663051 1.620152 0
M  V30 27 H 1.161954 -5.734757 0.670099 0
M  V30 28 H 1.390708 -5.286384 2.413516 0
M  V30 29 H -0.233815 -5.144110 1.701794 0
M  V30 30 H 2.488231 0.724374 0.506102 0
M  V30 31 H -0.031361 -0.755852 -1.765052 0
M  V30 32 H -1.067265 0.479116 -3.627586 0
M  V30 33 H 1.175007 3.968335 -2.700600 0
M  V30 34 H -2.917401 0.195549 3.433786 0
M  V30 35 H -1.919407 1.334365 2.403345 0
M  V30 36 H -1.043964 0.185483 5.118424 0
M  V30 37 H -0.121598 1.305058 4.074526 0
M  V30 38 H -1.219021 2.817600 5.027269 0
M  V30 39 H -2.188685 -2.087823 3.764047 0
M  V30 END ATOM
M  V30 BEGIN BOND
M  V30 1 1 1 2
M  V30 2 1 2 3
M  V30 3 2 3 4
M  V30 4 1 3 5
M  V30 5 1 5 6
M  V30 6 2 5 7
M  V30 7 1 7 8
M  V30 8 1 8 9
M  V30 9 2 9 10
M  V30 10 1 10 11
M  V30 11 2 11 12
M  V30 12 1 12 13
M  V30 13 1 12 14
M  V30 14 2 14 15
M  V30 15 1 15 16
M  V30 16 1 7 17
M  V30 17 1 17 18
M  V30 18 2 18 19
M  V30 19 1 18 20
M  V30 20 1 20 21
M  V30 21 1 21 22
M  V30 22 1 22 23
M  V30 23 1 20 24
M  V30 24 2 24 25
M  V30 25 1 25 26
M  V30 26 1 26 2
M  V30 27 1 15 9
M  V30 28 2 26 17
M  V30 29 1 1 27
M  V30 30 1 1 28
M  V30 31 1 1 29
M  V30 32 1 8 30
M  V30 33 1 10 31
M  V30 34 1 11 32
M  V30 35 1 14 33
M  V30 36 1 21 34
M  V30 37 1 21 35
M  V30 38 1 22 36
M  V30 39 1 22 37
M  V30 40 1 23 38
M  V30 41 1 24 39
M  V30 END BOND
M  V30 END CTAB
M  END
>  <Dataset>  (436) 
ChEMBL_Kinases

>  <Ligand_Instance>  (436) 
nan

>  <PDB_ID>  (436) 
nan

>  <Standardized_SMILES>  (436) 
Cn1c(=O)c(F)c(Nc2ccc(I)cc2F)c2c(=O)n(CCO)cnc21

>  <Name>  (436) 
nan

>  <Pocket>  (436) 
nan

>  <ATP_Site>  (436) 
nan

>  <Peripheral>  (436) 
nan

>  <Num_H_Atoms_ProtBoundConf>  (436) 
nan

>  <Num_Resolved_Atoms>  (436) 
nan

>  <Num_Not_Resolved_Atoms>  (436) 
nan

$$$$
CHEMBL1684064
     RDKit          3D

  0  0  0  0  0  0  0  0  0  0999 V3000
M  V30 BEGIN CTAB
M  V30 COUNTS 43 45 0 0 0
M  V30 BEGIN ATOM
M  V30 1 C -0.015428 -2.904560 4.972619 0
M  V30 2 N 0.396022 -1.876959 4.021727 0
M  V30 3 C 1.188250 -0.905222 4.466809 0
M  V30 4 O 1.566094 -0.880158 5.666244 0
M  V30 5 C 1.559874 0.061577 3.525004 0
M  V30 6 C 1.107245 -0.017444 2.198884 0
M  V30 7 N 1.615273 1.064679 1.468997 0
M  V30 8 C 1.323278 2.206713 0.717513 0
M  V30 9 C 1.602468 2.616298 -0.568484 0
M  V30 10 C 1.141410 3.835156 -0.998375 0
M  V30 11 C 0.404559 4.688804 -0.210448 0
M  V30 12 I -0.192888 6.512965 -1.097466 0
M  V30 13 C 0.114937 4.308500 1.064165 0
M  V30 14 C 0.571991 3.068969 1.532177 0
M  V30 15 F 0.175400 2.877858 2.833338 0
M  V30 16 C 0.292309 -1.076242 1.872904 0
M  V30 17 C -0.098583 -1.072196 0.556043 0
M  V30 18 O 0.240210 -0.210348 -0.261332 0
M  V30 19 N -0.897424 -2.060116 0.118260 0
M  V30 20 C -1.378147 -2.177893 -1.224798 0
M  V30 21 C -0.459881 -2.982408 -2.109597 0 CFG=2
M  V30 22 O -0.342655 -4.261262 -1.574955 0
M  V30 23 C 0.916196 -2.408769 -2.200637 0
M  V30 24 O 1.647574 -3.272866 -3.048551 0
M  V30 25 C -1.273647 -3.009479 1.006739 0
M  V30 26 N -0.873254 -2.993856 2.310051 0
M  V30 27 C -0.079539 -2.031879 2.789056 0
M  V30 28 H 0.658562 -2.908084 5.867784 0
M  V30 29 H -1.087662 -2.769225 5.266724 0
M  V30 30 H 0.109193 -3.880533 4.455741 0
M  V30 31 H 2.215282 0.833845 3.964150 0
M  V30 32 H 2.665385 1.129521 1.398688 0
M  V30 33 H 2.180407 1.861672 -1.071432 0
M  V30 34 H 1.416913 4.058139 -2.023721 0
M  V30 35 H -0.465730 5.021128 1.631541 0
M  V30 36 H -2.370489 -2.670781 -1.208730 0
M  V30 37 H -1.494448 -1.157382 -1.667243 0
M  V30 38 H -0.890318 -3.029546 -3.123479 0
M  V30 39 H 0.220817 -4.195085 -0.755183 0
M  V30 40 H 1.392430 -2.520844 -1.205045 0
M  V30 41 H 0.998572 -1.423117 -2.657027 0
M  V30 42 H 2.096467 -3.987891 -2.528808 0
M  V30 43 H -1.922060 -3.841061 0.718944 0
M  V30 END ATOM
M  V30 BEGIN BOND
M  V30 1 1 1 2
M  V30 2 1 2 3
M  V30 3 2 3 4
M  V30 4 1 3 5
M  V30 5 2 5 6
M  V30 6 1 6 7
M  V30 7 1 7 8
M  V30 8 2 8 9
M  V30 9 1 9 10
M  V30 10 2 10 11
M  V30 11 1 11 12
M  V30 12 1 11 13
M  V30 13 2 13 14
M  V30 14 1 14 15
M  V30 15 1 6 16
M  V30 16 1 16 17
M  V30 17 2 17 18
M  V30 18 1 17 19
M  V30 19 1 19 20
M  V30 20 1 20 21
M  V30 21 1 21 22
M  V30 22 1 21 23
M  V30 23 1 23 24
M  V30 24 1 19 25
M  V30 25 2 25 26
M  V30 26 1 26 27
M  V30 27 1 27 2
M  V30 28 1 14 8
M  V30 29 2 27 16
M  V30 30 1 1 28
M  V30 31 1 1 29
M  V30 32 1 1 30
M  V30 33 1 5 31
M  V30 34 1 7 32
M  V30 35 1 9 33
M  V30 36 1 10 34
M  V30 37 1 13 35
M  V30 38 1 20 36
M  V30 39 1 20 37
M  V30 40 1 21 38 CFG=3
M  V30 41 1 22 39
M  V30 42 1 23 40
M  V30 43 1 23 41
M  V30 44 1 24 42
M  V30 45 1 25 43
M  V30 END BOND
M  V30 END CTAB
M  END
>  <Dataset>  (437) 
ChEMBL_Kinases

>  <Ligand_Instance>  (437) 
nan

>  <PDB_ID>  (437) 
nan

>  <Standardized_SMILES>  (437) 
Cn1c(=O)cc(Nc2ccc(I)cc2F)c2c(=O)n(C[C@H](O)CO)cnc21

>  <Name>  (437) 
nan

>  <Pocket>  (437) 
nan

>  <ATP_Site>  (437) 
nan

>  <Peripheral>  (437) 
nan

>  <Num_H_Atoms_ProtBoundConf>  (437) 
nan

>  <Num_Resolved_Atoms>  (437) 
nan

>  <Num_Not_Resolved_Atoms>  (437) 
nan

$$$$
CHEMBL1684061
     RDKit          3D

  0  0  0  0  0  0  0  0  0  0999 V3000
M  V30 BEGIN CTAB
M  V30 COUNTS 39 41 0 0 0
M  V30 BEGIN ATOM
M  V30 1 C 1.272831 -4.934249 2.146235 0
M  V30 2 N 1.462897 -3.554185 1.728621 0
M  V30 3 C 2.714013 -3.162660 1.438450 0
M  V30 4 O 3.732253 -3.894656 1.500610 0
M  V30 5 C 2.828355 -1.841222 1.046878 0
M  V30 6 C 1.784659 -0.906741 0.930358 0
M  V30 7 N 2.068238 0.393619 0.525854 0
M  V30 8 C 1.796125 1.229811 -0.588093 0
M  V30 9 C 1.124133 0.918402 -1.745377 0
M  V30 10 C 0.874162 1.745380 -2.806052 0
M  V30 11 C 1.365393 3.024042 -2.662567 0
M  V30 12 I 1.053275 4.407367 -4.221357 0
M  V30 13 C 2.049105 3.412329 -1.532866 0
M  V30 14 C 2.264615 2.527745 -0.503719 0
M  V30 15 F 2.948623 3.000055 0.570412 0
M  V30 16 C 0.578261 -1.479323 1.267766 0
M  V30 17 C -0.522633 -0.654046 1.217210 0
M  V30 18 O -0.473150 0.551583 0.878649 0
M  V30 19 N -1.760297 -1.065857 1.531880 0
M  V30 20 C -2.950002 -0.246409 1.496163 0
M  V30 21 C -3.169107 0.435849 2.846654 0
M  V30 22 O -4.324181 1.236921 2.826402 0
M  V30 23 C -1.921435 -2.361622 1.918557 0
M  V30 24 N -0.857508 -3.212138 1.984453 0
M  V30 25 C 0.368031 -2.776884 1.665792 0
M  V30 26 H 0.234140 -5.262855 1.925723 0
M  V30 27 H 1.941322 -5.543535 1.481959 0
M  V30 28 H 1.493344 -5.076104 3.211663 0
M  V30 29 H 3.846802 -1.505037 0.806153 0
M  V30 30 H 2.625939 0.753835 1.325042 0
M  V30 31 H 0.762249 -0.104882 -1.796762 0
M  V30 32 H 0.331854 1.379964 -3.663741 0
M  V30 33 H 2.418980 4.440658 -1.468662 0
M  V30 34 H -3.820155 -0.836539 1.218037 0
M  V30 35 H -2.789889 0.542910 0.738087 0
M  V30 36 H -2.339591 1.132307 3.072426 0
M  V30 37 H -3.275712 -0.362543 3.592634 0
M  V30 38 H -4.256959 1.790980 3.650821 0
M  V30 39 H -2.892015 -2.783073 2.191819 0
M  V30 END ATOM
M  V30 BEGIN BOND
M  V30 1 1 1 2
M  V30 2 1 2 3
M  V30 3 2 3 4
M  V30 4 1 3 5
M  V30 5 2 5 6
M  V30 6 1 6 7
M  V30 7 1 7 8
M  V30 8 2 8 9
M  V30 9 1 9 10
M  V30 10 2 10 11
M  V30 11 1 11 12
M  V30 12 1 11 13
M  V30 13 2 13 14
M  V30 14 1 14 15
M  V30 15 1 6 16
M  V30 16 1 16 17
M  V30 17 2 17 18
M  V30 18 1 17 19
M  V30 19 1 19 20
M  V30 20 1 20 21
M  V30 21 1 21 22
M  V30 22 1 19 23
M  V30 23 2 23 24
M  V30 24 1 24 25
M  V30 25 1 25 2
M  V30 26 1 14 8
M  V30 27 2 25 16
M  V30 28 1 1 26
M  V30 29 1 1 27
M  V30 30 1 1 28
M  V30 31 1 5 29
M  V30 32 1 7 30
M  V30 33 1 9 31
M  V30 34 1 10 32
M  V30 35 1 13 33
M  V30 36 1 20 34
M  V30 37 1 20 35
M  V30 38 1 21 36
M  V30 39 1 21 37
M  V30 40 1 22 38
M  V30 41 1 23 39
M  V30 END BOND
M  V30 END CTAB
M  END
>  <Dataset>  (438) 
ChEMBL_Kinases

>  <Ligand_Instance>  (438) 
nan

>  <PDB_ID>  (438) 
nan

>  <Standardized_SMILES>  (438) 
Cn1c(=O)cc(Nc2ccc(I)cc2F)c2c(=O)n(CCO)cnc21

>  <Name>  (438) 
nan

>  <Pocket>  (438) 
nan

>  <ATP_Site>  (438) 
nan

>  <Peripheral>  (438) 
nan

>  <Num_H_Atoms_ProtBoundConf>  (438) 
nan

>  <Num_Resolved_Atoms>  (438) 
nan

>  <Num_Not_Resolved_Atoms>  (438) 
nan

$$$$
CHEMBL1683442
     RDKit          3D

  0  0  0  0  0  0  0  0  0  0999 V3000
M  V30 BEGIN CTAB
M  V30 COUNTS 53 56 0 0 0
M  V30 BEGIN ATOM
M  V30 1 C 7.108217 -4.225511 2.707767 0
M  V30 2 C 6.571106 -3.460452 1.537566 0
M  V30 3 O 6.255348 -4.085460 0.517094 0
M  V30 4 N 6.476837 -2.064791 1.722448 0
M  V30 5 C 5.984278 -1.209748 0.696694 0
M  V30 6 C 6.976050 -0.746433 -0.142538 0
M  V30 7 C 6.648918 0.106365 -1.202521 0
M  V30 8 C 5.318542 0.487706 -1.409849 0
M  V30 9 C 4.396718 -0.024774 -0.521043 0
M  V30 10 C 2.985184 0.367492 -0.724993 0
M  V30 11 C 1.886410 -0.011543 0.025557 0
M  V30 12 C 0.781036 0.617040 -0.561971 0
M  V30 13 C -0.581664 0.465962 -0.055801 0
M  V30 14 C -0.874387 -0.313394 1.045554 0
M  V30 15 C -2.186493 -0.407305 1.463579 0
M  V30 16 C -3.247086 0.228157 0.855922 0
M  V30 17 N -4.597820 0.132044 1.287315 0
M  V30 18 C -5.037833 -0.624345 2.440754 0
M  V30 19 C -5.920474 -1.740902 1.877441 0
M  V30 20 N -6.988298 -1.195312 1.079198 0
M  V30 21 C -7.053598 -1.836714 -0.219914 0
M  V30 22 C -6.961813 0.233362 0.986335 0
M  V30 23 C -5.635384 0.810387 0.566272 0
M  V30 24 C -2.930759 1.000262 -0.240955 0
M  V30 25 C -1.617584 1.118648 -0.691797 0
M  V30 26 N 1.229444 1.330752 -1.611410 0
M  V30 27 N 2.555116 1.191065 -1.723286 0
M  V30 28 C 4.679030 -0.866964 0.534942 0
M  V30 29 H 6.599543 -3.838971 3.602898 0
M  V30 30 H 8.179546 -3.883106 2.790627 0
M  V30 31 H 7.015508 -5.315205 2.592445 0
M  V30 32 H 6.754473 -1.561128 2.605698 0
M  V30 33 H 8.044132 -0.955831 -0.104649 0
M  V30 34 H 7.377208 0.510216 -1.903375 0
M  V30 35 H 5.044257 1.141351 -2.216983 0
M  V30 36 H 1.955881 -0.667254 0.881726 0
M  V30 37 H -0.067326 -0.828137 1.549461 0
M  V30 38 H -2.356877 -1.021228 2.317184 0
M  V30 39 H -5.673895 0.074335 3.052058 0
M  V30 40 H -4.243678 -1.048840 3.051205 0
M  V30 41 H -6.281107 -2.372618 2.714251 0
M  V30 42 H -5.228196 -2.385966 1.296751 0
M  V30 43 H -7.539412 -1.099374 -0.899045 0
M  V30 44 H -7.658146 -2.758770 -0.096672 0
M  V30 45 H -6.010540 -2.094123 -0.528868 0
M  V30 46 H -7.281984 0.663587 1.954820 0
M  V30 47 H -7.705443 0.512211 0.204609 0
M  V30 48 H -5.508211 0.820799 -0.535117 0
M  V30 49 H -5.603696 1.885159 0.898533 0
M  V30 50 H -3.635495 1.553600 -0.817966 0
M  V30 51 H -1.360357 1.730981 -1.563252 0
M  V30 52 H 0.604865 1.898698 -2.226207 0
M  V30 53 H 3.945972 -1.249964 1.209109 0
M  V30 END ATOM
M  V30 BEGIN BOND
M  V30 1 1 1 2
M  V30 2 2 2 3
M  V30 3 1 2 4
M  V30 4 1 4 5
M  V30 5 2 5 6
M  V30 6 1 6 7
M  V30 7 2 7 8
M  V30 8 1 8 9
M  V30 9 1 9 10
M  V30 10 1 10 11
M  V30 11 2 11 12
M  V30 12 1 12 13
M  V30 13 2 13 14
M  V30 14 1 14 15
M  V30 15 2 15 16
M  V30 16 1 16 17
M  V30 17 1 17 18
M  V30 18 1 18 19
M  V30 19 1 19 20
M  V30 20 1 20 21
M  V30 21 1 20 22
M  V30 22 1 22 23
M  V30 23 1 16 24
M  V30 24 2 24 25
M  V30 25 1 12 26
M  V30 26 1 26 27
M  V30 27 2 9 28
M  V30 28 1 28 5
M  V30 29 2 27 10
M  V30 30 1 25 13
M  V30 31 1 23 17
M  V30 32 1 1 29
M  V30 33 1 1 30
M  V30 34 1 1 31
M  V30 35 1 4 32
M  V30 36 1 6 33
M  V30 37 1 7 34
M  V30 38 1 8 35
M  V30 39 1 11 36
M  V30 40 1 14 37
M  V30 41 1 15 38
M  V30 42 1 18 39
M  V30 43 1 18 40
M  V30 44 1 19 41
M  V30 45 1 19 42
M  V30 46 1 21 43
M  V30 47 1 21 44
M  V30 48 1 21 45
M  V30 49 1 22 46
M  V30 50 1 22 47
M  V30 51 1 23 48
M  V30 52 1 23 49
M  V30 53 1 24 50
M  V30 54 1 25 51
M  V30 55 1 26 52
M  V30 56 1 28 53
M  V30 END BOND
M  V30 END CTAB
M  END
>  <Dataset>  (439) 
ChEMBL_Kinases

>  <Ligand_Instance>  (439) 
nan

>  <PDB_ID>  (439) 
nan

>  <Standardized_SMILES>  (439) 
CC(=O)Nc1cccc(-c2cc(-c3ccc(N4CCN(C)CC4)cc3)[nH]n2)c1

>  <Name>  (439) 
nan

>  <Pocket>  (439) 
nan

>  <ATP_Site>  (439) 
nan

>  <Peripheral>  (439) 
nan

>  <Num_H_Atoms_ProtBoundConf>  (439) 
nan

>  <Num_Resolved_Atoms>  (439) 
nan

>  <Num_Not_Resolved_Atoms>  (439) 
nan

$$$$
CHEMBL1683441
     RDKit          3D

  0  0  0  0  0  0  0  0  0  0999 V3000
M  V30 BEGIN CTAB
M  V30 COUNTS 58 61 0 0 0
M  V30 BEGIN ATOM
M  V30 1 C 5.336674 -1.223830 5.736488 0
M  V30 2 C 6.328638 -1.216138 4.582922 0 CFG=1
M  V30 3 C 6.584301 -2.610574 4.194736 0
M  V30 4 N 6.808250 -3.720266 3.882371 0
M  V30 5 N 5.767363 -0.479280 3.477262 0
M  V30 6 C 6.429313 0.640433 2.913132 0
M  V30 7 O 7.513092 0.960227 3.410929 0
M  V30 8 C 5.889500 1.407325 1.795168 0
M  V30 9 C 6.684102 2.476906 1.367405 0
M  V30 10 C 6.233085 3.260072 0.299640 0
M  V30 11 C 5.019546 2.945337 -0.290171 0
M  V30 12 C 4.261378 1.882743 0.157749 0
M  V30 13 C 2.992551 1.635216 -0.534251 0
M  V30 14 C 2.035331 0.665173 -0.314892 0
M  V30 15 C 1.018036 0.875653 -1.253960 0
M  V30 16 C -0.195903 0.073569 -1.379859 0
M  V30 17 C -0.482657 -1.004636 -0.566064 0
M  V30 18 C -1.654496 -1.714468 -0.748785 0
M  V30 19 C -2.533412 -1.332221 -1.753990 0
M  V30 20 C -3.812259 -2.103276 -1.955528 0
M  V30 21 N -4.881237 -1.559404 -1.172899 0
M  V30 22 C -6.141912 -2.244019 -1.314232 0
M  V30 23 C -6.087704 -3.678220 -0.915406 0
M  V30 24 C -7.190901 -4.054927 0.055674 0
M  V30 25 O -8.411889 -3.601307 -0.429109 0
M  V30 26 C -8.470666 -2.230156 -0.538333 0
M  V30 27 C -7.119398 -1.552991 -0.369267 0
M  V30 28 C -2.280094 -0.256269 -2.590208 0
M  V30 29 C -1.093572 0.424516 -2.369202 0
M  V30 30 O 1.381830 1.922143 -1.977473 0
M  V30 31 N 2.530593 2.366375 -1.560892 0
M  V30 32 C 4.684004 1.110397 1.194504 0
M  V30 33 H 4.343331 -1.537065 5.403058 0
M  V30 34 H 5.740243 -1.804057 6.586205 0
M  V30 35 H 5.218947 -0.164083 6.107311 0
M  V30 36 H 7.294127 -0.818832 4.925943 0
M  V30 37 H 4.851418 -0.794805 3.098930 0
M  V30 38 H 7.632824 2.748146 1.804872 0
M  V30 39 H 6.851857 4.087273 -0.027802 0
M  V30 40 H 4.722597 3.590128 -1.114909 0
M  V30 41 H 2.095998 -0.096813 0.448587 0
M  V30 42 H 0.241918 -1.270070 0.215528 0
M  V30 43 H -1.892448 -2.565849 -0.114242 0
M  V30 44 H -4.055208 -2.178365 -3.039201 0
M  V30 45 H -3.633610 -3.146192 -1.623998 0
M  V30 46 H -4.951906 -0.538643 -1.267953 0
M  V30 47 H -6.485926 -2.161793 -2.351291 0
M  V30 48 H -6.209489 -4.310551 -1.812269 0
M  V30 49 H -5.103956 -3.946017 -0.459821 0
M  V30 50 H -6.977068 -3.655327 1.066549 0
M  V30 51 H -7.192278 -5.158861 0.115824 0
M  V30 52 H -8.938144 -1.920361 -1.513658 0
M  V30 53 H -9.123465 -1.845831 0.271495 0
M  V30 54 H -7.231955 -0.508780 -0.678536 0
M  V30 55 H -6.783959 -1.664631 0.669422 0
M  V30 56 H -2.980651 0.021397 -3.365904 0
M  V30 57 H -0.922020 1.258264 -3.035175 0
M  V30 58 H 4.091940 0.279763 1.544841 0
M  V30 END ATOM
M  V30 BEGIN BOND
M  V30 1 1 1 2
M  V30 2 1 2 3
M  V30 3 3 3 4
M  V30 4 1 2 5
M  V30 5 1 5 6
M  V30 6 2 6 7
M  V30 7 1 6 8
M  V30 8 2 8 9
M  V30 9 1 9 10
M  V30 10 2 10 11
M  V30 11 1 11 12
M  V30 12 1 12 13
M  V30 13 1 13 14
M  V30 14 2 14 15
M  V30 15 1 15 16
M  V30 16 2 16 17
M  V30 17 1 17 18
M  V30 18 2 18 19
M  V30 19 1 19 20
M  V30 20 1 20 21
M  V30 21 1 21 22
M  V30 22 1 22 23
M  V30 23 1 23 24
M  V30 24 1 24 25
M  V30 25 1 25 26
M  V30 26 1 26 27
M  V30 27 1 19 28
M  V30 28 2 28 29
M  V30 29 1 15 30
M  V30 30 1 30 31
M  V30 31 2 12 32
M  V30 32 1 32 8
M  V30 33 2 31 13
M  V30 34 1 29 16
M  V30 35 1 27 22
M  V30 36 1 1 33
M  V30 37 1 1 34
M  V30 38 1 1 35
M  V30 39 1 2 36 CFG=1
M  V30 40 1 5 37
M  V30 41 1 9 38
M  V30 42 1 10 39
M  V30 43 1 11 40
M  V30 44 1 14 41
M  V30 45 1 17 42
M  V30 46 1 18 43
M  V30 47 1 20 44
M  V30 48 1 20 45
M  V30 49 1 21 46
M  V30 50 1 22 47
M  V30 51 1 23 48
M  V30 52 1 23 49
M  V30 53 1 24 50
M  V30 54 1 24 51
M  V30 55 1 26 52
M  V30 56 1 26 53
M  V30 57 1 27 54
M  V30 58 1 27 55
M  V30 59 1 28 56
M  V30 60 1 29 57
M  V30 61 1 32 58
M  V30 END BOND
M  V30 END CTAB
M  END
>  <Dataset>  (440) 
ChEMBL_Kinases

>  <Ligand_Instance>  (440) 
nan

>  <PDB_ID>  (440) 
nan

>  <Standardized_SMILES>  (440) 
C[C@@H](C#N)NC(=O)c1cccc(-c2cc(-c3ccc(CNC4CCOCC4)cc3)on2)c1

>  <Name>  (440) 
nan

>  <Pocket>  (440) 
nan

>  <ATP_Site>  (440) 
nan

>  <Peripheral>  (440) 
nan

>  <Num_H_Atoms_ProtBoundConf>  (440) 
nan

>  <Num_Resolved_Atoms>  (440) 
nan

>  <Num_Not_Resolved_Atoms>  (440) 
nan

$$$$
CHEMBL1683439
     RDKit          3D

  0  0  0  0  0  0  0  0  0  0999 V3000
M  V30 BEGIN CTAB
M  V30 COUNTS 61 64 0 0 0
M  V30 BEGIN ATOM
M  V30 1 C 6.973995 1.723285 2.913330 0
M  V30 2 C 5.621706 1.917508 3.564979 0
M  V30 3 C 5.384674 0.687354 4.435310 0
M  V30 4 C 5.640124 3.064045 4.479666 0
M  V30 5 N 5.667124 3.973540 5.207777 0
M  V30 6 N 4.548195 2.066297 2.624241 0
M  V30 7 C 4.618010 3.156809 1.712366 0
M  V30 8 O 5.651599 3.881570 1.850538 0
M  V30 9 C 3.635647 3.476492 0.689052 0
M  V30 10 C 3.931322 4.593127 -0.074571 0
M  V30 11 C 2.994981 4.914425 -1.064546 0
M  V30 12 C 1.855796 4.158223 -1.255508 0
M  V30 13 C 1.632300 3.077058 -0.468796 0
M  V30 14 C 0.432201 2.265646 -0.656737 0
M  V30 15 C 0.037414 1.139213 0.040277 0
M  V30 16 C -1.165252 0.736102 -0.510430 0
M  V30 17 C -1.961926 -0.418373 -0.091675 0
M  V30 18 C -3.148008 -0.695643 -0.740145 0
M  V30 19 C -3.905089 -1.781289 -0.352554 0
M  V30 20 C -3.516314 -2.615296 0.675758 0
M  V30 21 C -4.191280 -3.805466 1.215418 0
M  V30 22 N -3.845250 -5.046841 0.619740 0
M  V30 23 C -4.124802 -5.199614 -0.767589 0
M  V30 24 C -5.595686 -5.100364 -1.128989 0
M  V30 25 C -5.720221 -5.475519 -2.590602 0
M  V30 26 O -4.462370 -5.438361 -3.209988 0
M  V30 27 C -3.707717 -6.527907 -2.797700 0
M  V30 28 C -3.628224 -6.528868 -1.283626 0
M  V30 29 C -2.305012 -2.287380 1.298572 0
M  V30 30 C -1.514316 -1.212137 0.945486 0
M  V30 31 O -1.458520 1.577090 -1.474087 0
M  V30 32 N -0.537771 2.489291 -1.585411 0
M  V30 33 C 2.521110 2.712449 0.523626 0
M  V30 34 H 6.950164 1.917937 1.830103 0
M  V30 35 H 7.707901 2.362522 3.461893 0
M  V30 36 H 7.361618 0.677105 3.033518 0
M  V30 37 H 5.989519 -0.186450 4.075477 0
M  V30 38 H 4.326782 0.353011 4.412688 0
M  V30 39 H 5.636319 0.880662 5.500361 0
M  V30 40 H 3.712625 1.441040 2.547506 0
M  V30 41 H 4.818232 5.209380 0.049741 0
M  V30 42 H 3.212619 5.790492 -1.674465 0
M  V30 43 H 1.156367 4.436306 -2.028668 0
M  V30 44 H 0.596370 0.708594 0.841886 0
M  V30 45 H -3.501076 -0.079697 -1.549344 0
M  V30 46 H -4.837927 -2.055004 -0.812418 0
M  V30 47 H -5.292397 -3.666174 1.063615 0
M  V30 48 H -4.026104 -3.868299 2.303514 0
M  V30 49 H -2.973580 -5.493103 0.911032 0
M  V30 50 H -3.626502 -4.365325 -1.302916 0
M  V30 51 H -6.034043 -4.115083 -0.978724 0
M  V30 52 H -6.194693 -5.840739 -0.521881 0
M  V30 53 H -6.378629 -4.744540 -3.102496 0
M  V30 54 H -6.168730 -6.501266 -2.704902 0
M  V30 55 H -2.701345 -6.416092 -3.266829 0
M  V30 56 H -4.120904 -7.488993 -3.175320 0
M  V30 57 H -2.555688 -6.690851 -1.033630 0
M  V30 58 H -4.251046 -7.351777 -0.903760 0
M  V30 59 H -1.908384 -2.889041 2.127965 0
M  V30 60 H -0.586533 -1.002987 1.459599 0
M  V30 61 H 2.302808 1.841294 1.128702 0
M  V30 END ATOM
M  V30 BEGIN BOND
M  V30 1 1 1 2
M  V30 2 1 2 3
M  V30 3 1 2 4
M  V30 4 3 4 5
M  V30 5 1 2 6
M  V30 6 1 6 7
M  V30 7 2 7 8
M  V30 8 1 7 9
M  V30 9 2 9 10
M  V30 10 1 10 11
M  V30 11 2 11 12
M  V30 12 1 12 13
M  V30 13 1 13 14
M  V30 14 1 14 15
M  V30 15 2 15 16
M  V30 16 1 16 17
M  V30 17 2 17 18
M  V30 18 1 18 19
M  V30 19 2 19 20
M  V30 20 1 20 21
M  V30 21 1 21 22
M  V30 22 1 22 23
M  V30 23 1 23 24
M  V30 24 1 24 25
M  V30 25 1 25 26
M  V30 26 1 26 27
M  V30 27 1 27 28
M  V30 28 1 20 29
M  V30 29 2 29 30
M  V30 30 1 16 31
M  V30 31 1 31 32
M  V30 32 2 13 33
M  V30 33 1 33 9
M  V30 34 2 32 14
M  V30 35 1 30 17
M  V30 36 1 28 23
M  V30 37 1 1 34
M  V30 38 1 1 35
M  V30 39 1 1 36
M  V30 40 1 3 37
M  V30 41 1 3 38
M  V30 42 1 3 39
M  V30 43 1 6 40
M  V30 44 1 10 41
M  V30 45 1 11 42
M  V30 46 1 12 43
M  V30 47 1 15 44
M  V30 48 1 18 45
M  V30 49 1 19 46
M  V30 50 1 21 47
M  V30 51 1 21 48
M  V30 52 1 22 49
M  V30 53 1 23 50
M  V30 54 1 24 51
M  V30 55 1 24 52
M  V30 56 1 25 53
M  V30 57 1 25 54
M  V30 58 1 27 55
M  V30 59 1 27 56
M  V30 60 1 28 57
M  V30 61 1 28 58
M  V30 62 1 29 59
M  V30 63 1 30 60
M  V30 64 1 33 61
M  V30 END BOND
M  V30 END CTAB
M  END
>  <Dataset>  (441) 
ChEMBL_Kinases

>  <Ligand_Instance>  (441) 
nan

>  <PDB_ID>  (441) 
nan

>  <Standardized_SMILES>  (441) 
CC(C)(C#N)NC(=O)c1cccc(-c2cc(-c3ccc(CNC4CCOCC4)cc3)on2)c1

>  <Name>  (441) 
nan

>  <Pocket>  (441) 
nan

>  <ATP_Site>  (441) 
nan

>  <Peripheral>  (441) 
nan

>  <Num_H_Atoms_ProtBoundConf>  (441) 
nan

>  <Num_Resolved_Atoms>  (441) 
nan

>  <Num_Not_Resolved_Atoms>  (441) 
nan

$$$$
CHEMBL1707911
     RDKit          3D

  0  0  0  0  0  0  0  0  0  0999 V3000
M  V30 BEGIN CTAB
M  V30 COUNTS 52 53 0 0 0
M  V30 BEGIN ATOM
M  V30 1 C -4.156207 -0.512552 2.896366 0
M  V30 2 C -2.757654 -0.072125 3.272314 0
M  V30 3 O -1.814499 -0.410379 2.286242 0
M  V30 4 C -0.453187 -0.086824 2.442239 0
M  V30 5 O 0.093594 -0.085433 3.712017 0
M  V30 6 C 0.291268 0.213222 1.371922 0
M  V30 7 C 1.705044 0.551885 1.509357 0
M  V30 8 C 2.343943 0.565982 2.855207 0
M  V30 9 N 2.381889 0.837352 0.431355 0
M  V30 10 C 1.802081 0.832183 -0.867065 0
M  V30 11 S 2.819397 1.239722 -2.280407 0
M  V30 12 C 4.495024 1.598054 -1.673416 0
M  V30 13 C 4.504317 2.828869 -0.841156 0
M  V30 14 O 5.274233 3.551923 -0.185302 0
M  V30 15 O 3.327329 3.548290 -0.613000 0
M  V30 16 C 3.343566 4.723660 0.183391 0
M  V30 17 C 0.524899 0.531303 -1.041448 0
M  V30 18 C 0.012586 0.547680 -2.381908 0
M  V30 19 N -0.413528 0.548057 -3.463394 0
M  V30 20 C -0.421785 0.176431 0.048020 0
M  V30 21 C -1.004791 -1.160700 -0.073362 0
M  V30 22 C -2.361489 -1.445938 -0.226849 0
M  V30 23 C -2.840985 -2.739800 -0.334934 0
M  V30 24 C -1.914175 -3.763225 -0.285097 0
M  V30 25 C -2.428842 -5.124666 -0.399579 0
M  V30 26 O -3.657163 -5.348141 -0.536559 0
M  V30 27 O -1.632489 -6.255174 -0.368156 0
M  V30 28 C -2.171184 -7.572357 -0.483025 0
M  V30 29 C -0.552175 -3.580155 -0.135726 0
M  V30 30 C -0.158455 -2.261504 -0.035381 0
M  V30 31 H -4.606175 0.252677 2.199137 0
M  V30 32 H -4.180482 -1.502115 2.405276 0
M  V30 33 H -4.798211 -0.587227 3.801242 0
M  V30 34 H -2.447788 -0.599497 4.213108 0
M  V30 35 H -2.748959 1.017338 3.435406 0
M  V30 36 H 0.044023 -0.913783 4.299278 0
M  V30 37 H 2.377897 -0.426203 3.324773 0
M  V30 38 H 1.918667 1.365615 3.516056 0
M  V30 39 H 3.408878 0.873034 2.713107 0
M  V30 40 H 4.889551 0.779846 -1.031451 0
M  V30 41 H 5.193617 1.739024 -2.520864 0
M  V30 42 H 3.839046 4.435017 1.151752 0
M  V30 43 H 2.324649 5.053638 0.389253 0
M  V30 44 H 3.895201 5.527749 -0.321933 0
M  V30 45 H -1.228763 0.946054 0.001737 0
M  V30 46 H -3.040145 -0.585579 -0.258386 0
M  V30 47 H -3.893609 -2.946646 -0.453340 0
M  V30 48 H -1.850152 -7.963500 -1.473670 0
M  V30 49 H -1.721581 -8.227785 0.281223 0
M  V30 50 H -3.275777 -7.540164 -0.457087 0
M  V30 51 H 0.163576 -4.374559 -0.097461 0
M  V30 52 H 0.920314 -2.095120 0.083863 0
M  V30 END ATOM
M  V30 BEGIN BOND
M  V30 1 1 1 2
M  V30 2 1 2 3
M  V30 3 1 3 4
M  V30 4 1 4 5
M  V30 5 2 4 6
M  V30 6 1 6 7
M  V30 7 1 7 8
M  V30 8 2 7 9
M  V30 9 1 9 10
M  V30 10 1 10 11
M  V30 11 1 11 12
M  V30 12 1 12 13
M  V30 13 2 13 14
M  V30 14 1 13 15
M  V30 15 1 15 16
M  V30 16 2 10 17
M  V30 17 1 17 18
M  V30 18 3 18 19
M  V30 19 1 17 20
M  V30 20 1 20 21
M  V30 21 2 21 22
M  V30 22 1 22 23
M  V30 23 2 23 24
M  V30 24 1 24 25
M  V30 25 2 25 26
M  V30 26 1 25 27
M  V30 27 1 27 28
M  V30 28 1 24 29
M  V30 29 2 29 30
M  V30 30 1 20 6
M  V30 31 1 30 21
M  V30 32 1 1 31
M  V30 33 1 1 32
M  V30 34 1 1 33
M  V30 35 1 2 34
M  V30 36 1 2 35
M  V30 37 1 5 36
M  V30 38 1 8 37
M  V30 39 1 8 38
M  V30 40 1 8 39
M  V30 41 1 12 40
M  V30 42 1 12 41
M  V30 43 1 16 42
M  V30 44 1 16 43
M  V30 45 1 16 44
M  V30 46 1 20 45
M  V30 47 1 22 46
M  V30 48 1 23 47
M  V30 49 1 28 48
M  V30 50 1 28 49
M  V30 51 1 28 50
M  V30 52 1 29 51
M  V30 53 1 30 52
M  V30 END BOND
M  V30 END CTAB
M  END
>  <Dataset>  (442) 
ChEMBL_Kinases

>  <Ligand_Instance>  (442) 
nan

>  <PDB_ID>  (442) 
nan

>  <Standardized_SMILES>  (442) 
CCO/C(O)=C1/C(C)=NC(SCC(=O)OC)=C(C#N)C1c1ccc(C(=O)OC)cc1

>  <Name>  (442) 
nan

>  <Pocket>  (442) 
nan

>  <ATP_Site>  (442) 
nan

>  <Peripheral>  (442) 
nan

>  <Num_H_Atoms_ProtBoundConf>  (442) 
nan

>  <Num_Resolved_Atoms>  (442) 
nan

>  <Num_Not_Resolved_Atoms>  (442) 
nan

$$$$
CHEMBL1683422
     RDKit          3D

  0  0  0  0  0  0  0  0  0  0999 V3000
M  V30 BEGIN CTAB
M  V30 COUNTS 68 72 0 0 0
M  V30 BEGIN ATOM
M  V30 1 C 8.052212 2.771380 3.708534 0
M  V30 2 C 8.204254 1.280282 3.481884 0
M  V30 3 C 8.175603 0.609606 4.839371 0
M  V30 4 N 7.167719 0.808904 2.617835 0
M  V30 5 C 7.367898 0.239078 1.332933 0
M  V30 6 O 8.567059 0.146164 0.929712 0
M  V30 7 C 6.298546 -0.238359 0.461633 0
M  V30 8 C 6.687748 -0.762347 -0.753703 0
M  V30 9 C 5.688371 -1.228628 -1.610798 0
M  V30 10 C 4.335273 -1.178817 -1.275906 0
M  V30 11 C 3.997999 -0.642635 -0.042443 0
M  V30 12 C 2.600282 -0.549027 0.398720 0
M  V30 13 C 1.493674 -0.960031 -0.315017 0
M  V30 14 C 0.386018 -0.681010 0.484924 0
M  V30 15 C -1.012522 -0.965432 0.099959 0
M  V30 16 C -1.361406 -1.546750 -1.115880 0
M  V30 17 C -2.712071 -1.775572 -1.385841 0
M  V30 18 C -3.685841 -1.433436 -0.467567 0
M  V30 19 N -5.014453 -1.725707 -0.886008 0
M  V30 20 C -6.217887 -0.948727 -1.125773 0
M  V30 21 C -6.773781 -1.322693 -2.503357 0
M  V30 22 N -5.727007 -1.961785 -3.285534 0
M  V30 23 C -6.204948 -2.239096 -4.610577 0
M  V30 24 C -5.481155 -3.264666 -2.648792 0
M  V30 25 C -5.285030 -3.126393 -1.150429 0
M  V30 26 C -3.318534 -0.858304 0.731664 0
M  V30 27 C -4.380888 -0.518566 1.665662 0
M  V30 28 C -5.479947 -1.244397 2.073474 0
M  V30 29 C -6.369737 -0.720122 2.979989 0
M  V30 30 N -6.164021 0.533114 3.482921 0
M  V30 31 C -5.099599 1.280684 3.111133 0
M  V30 32 C -4.197933 0.761139 2.198522 0
M  V30 33 C -1.981987 -0.635823 0.990033 0
M  V30 34 N 0.838715 -0.119788 1.639042 0
M  V30 35 N 2.153215 -0.045775 1.578367 0
M  V30 36 C 4.988113 -0.178030 0.812504 0
M  V30 37 H 6.973106 3.057477 3.813265 0
M  V30 38 H 8.491549 3.325725 2.848263 0
M  V30 39 H 8.528302 3.127124 4.641608 0
M  V30 40 H 9.198834 1.143484 3.018276 0
M  V30 41 H 9.027308 0.955974 5.457984 0
M  V30 42 H 7.262747 0.924860 5.388047 0
M  V30 43 H 8.129569 -0.490575 4.748221 0
M  V30 44 H 6.188893 0.896095 2.971702 0
M  V30 45 H 7.733473 -0.833539 -1.083871 0
M  V30 46 H 5.892141 -1.651208 -2.572388 0
M  V30 47 H 3.566674 -1.541433 -1.943675 0
M  V30 48 H 1.524954 -1.406702 -1.299960 0
M  V30 49 H -0.543886 -1.789150 -1.788197 0
M  V30 50 H -2.877343 -2.224084 -2.342021 0
M  V30 51 H -6.039680 0.148318 -1.102029 0
M  V30 52 H -6.991637 -1.253781 -0.393994 0
M  V30 53 H -7.573209 -2.112746 -2.395306 0
M  V30 54 H -7.184010 -0.467175 -3.041349 0
M  V30 55 H -6.206546 -1.317356 -5.219403 0
M  V30 56 H -5.491865 -2.947473 -5.120466 0
M  V30 57 H -7.195417 -2.738398 -4.579925 0
M  V30 58 H -4.668625 -3.787738 -3.160457 0
M  V30 59 H -6.402805 -3.871572 -2.863223 0
M  V30 60 H -6.224832 -3.451566 -0.636571 0
M  V30 61 H -4.505256 -3.812490 -0.770945 0
M  V30 62 H -5.520831 -2.218395 1.597479 0
M  V30 63 H -7.208677 -1.345289 3.254118 0
M  V30 64 H -5.017892 2.261786 3.561374 0
M  V30 65 H -3.396524 1.440893 1.979067 0
M  V30 66 H -1.729675 -0.187971 1.929266 0
M  V30 67 H 0.235493 0.191875 2.425305 0
M  V30 68 H 4.674490 0.235731 1.773382 0
M  V30 END ATOM
M  V30 BEGIN BOND
M  V30 1 1 1 2
M  V30 2 1 2 3
M  V30 3 1 2 4
M  V30 4 1 4 5
M  V30 5 2 5 6
M  V30 6 1 5 7
M  V30 7 2 7 8
M  V30 8 1 8 9
M  V30 9 2 9 10
M  V30 10 1 10 11
M  V30 11 1 11 12
M  V30 12 1 12 13
M  V30 13 2 13 14
M  V30 14 1 14 15
M  V30 15 2 15 16
M  V30 16 1 16 17
M  V30 17 2 17 18
M  V30 18 1 18 19
M  V30 19 1 19 20
M  V30 20 1 20 21
M  V30 21 1 21 22
M  V30 22 1 22 23
M  V30 23 1 22 24
M  V30 24 1 24 25
M  V30 25 1 18 26
M  V30 26 1 26 27
M  V30 27 2 27 28
M  V30 28 1 28 29
M  V30 29 2 29 30
M  V30 30 1 30 31
M  V30 31 2 31 32
M  V30 32 2 26 33
M  V30 33 1 14 34
M  V30 34 1 34 35
M  V30 35 2 11 36
M  V30 36 1 36 7
M  V30 37 2 35 12
M  V30 38 1 33 15
M  V30 39 1 25 19
M  V30 40 1 32 27
M  V30 41 1 1 37
M  V30 42 1 1 38
M  V30 43 1 1 39
M  V30 44 1 2 40
M  V30 45 1 3 41
M  V30 46 1 3 42
M  V30 47 1 3 43
M  V30 48 1 4 44
M  V30 49 1 8 45
M  V30 50 1 9 46
M  V30 51 1 10 47
M  V30 52 1 13 48
M  V30 53 1 16 49
M  V30 54 1 17 50
M  V30 55 1 20 51
M  V30 56 1 20 52
M  V30 57 1 21 53
M  V30 58 1 21 54
M  V30 59 1 23 55
M  V30 60 1 23 56
M  V30 61 1 23 57
M  V30 62 1 24 58
M  V30 63 1 24 59
M  V30 64 1 25 60
M  V30 65 1 25 61
M  V30 66 1 28 62
M  V30 67 1 29 63
M  V30 68 1 31 64
M  V30 69 1 32 65
M  V30 70 1 33 66
M  V30 71 1 34 67
M  V30 72 1 36 68
M  V30 END BOND
M  V30 END CTAB
M  END
>  <Dataset>  (443) 
ChEMBL_Kinases

>  <Ligand_Instance>  (443) 
nan

>  <PDB_ID>  (443) 
nan

>  <Standardized_SMILES>  (443) 
CC(C)NC(=O)c1cccc(-c2cc(-c3ccc(N4CCN(C)CC4)c(-c4ccncc4)c3)[nH]n2)c1

>  <Name>  (443) 
nan

>  <Pocket>  (443) 
nan

>  <ATP_Site>  (443) 
nan

>  <Peripheral>  (443) 
nan

>  <Num_H_Atoms_ProtBoundConf>  (443) 
nan

>  <Num_Resolved_Atoms>  (443) 
nan

>  <Num_Not_Resolved_Atoms>  (443) 
nan

$$$$
CHEMBL1683423
     RDKit          3D

  0  0  0  0  0  0  0  0  0  0999 V3000
M  V30 BEGIN CTAB
M  V30 COUNTS 54 57 0 0 0
M  V30 BEGIN ATOM
M  V30 1 C 1.611597 -5.922110 5.156920 0
M  V30 2 N 2.551074 -6.324625 4.162202 0
M  V30 3 C 3.727099 -5.575661 4.015576 0
M  V30 4 C 3.857914 -4.750786 2.763776 0
M  V30 5 N 2.677508 -4.909179 1.936682 0
M  V30 6 C 1.911386 -3.852231 1.410421 0
M  V30 7 C 2.304804 -2.553243 1.478976 0
M  V30 8 C 1.569526 -1.481680 0.974900 0
M  V30 9 C 0.351902 -1.746238 0.359610 0
M  V30 10 C -0.477067 -0.673616 -0.203191 0
M  V30 11 C -0.109950 0.653269 -0.207814 0
M  V30 12 C -1.172275 1.294489 -0.833851 0
M  V30 13 C -1.261509 2.737618 -1.083515 0
M  V30 14 C -0.244607 3.584888 -0.698701 0
M  V30 15 C -0.382649 4.933151 -0.960376 0
M  V30 16 C -1.489578 5.501074 -1.592620 0
M  V30 17 C -2.456678 4.575785 -1.941101 0
M  V30 18 C -3.671691 5.028701 -2.611580 0
M  V30 19 O -4.658713 4.273323 -2.911692 0
M  V30 20 N -3.944846 6.366192 -3.032804 0
M  V30 21 C -5.262383 6.493454 -3.678713 0
M  V30 22 C -6.267479 6.090977 -2.714916 0
M  V30 23 N -7.058156 5.786860 -1.941724 0
M  V30 24 C -2.387785 3.235028 -1.715011 0
M  V30 25 N -2.073659 0.349721 -1.152057 0
M  V30 26 N -1.696040 -0.853696 -0.790401 0
M  V30 27 C -0.048838 -3.064932 0.289712 0
M  V30 28 C 0.705988 -4.114319 0.801538 0
M  V30 29 C 2.389570 -6.313062 1.711870 0
M  V30 30 C 2.001183 -6.931195 3.008192 0
M  V30 31 H 0.624176 -5.647827 4.697701 0
M  V30 32 H 1.987975 -5.173798 5.856501 0
M  V30 33 H 1.392546 -6.841849 5.772200 0
M  V30 34 H 3.802649 -4.862112 4.882678 0
M  V30 35 H 4.605482 -6.244514 4.146193 0
M  V30 36 H 4.154803 -3.715009 2.952923 0
M  V30 37 H 4.694848 -5.191885 2.164107 0
M  V30 38 H 3.222343 -2.239794 1.929934 0
M  V30 39 H 1.875447 -0.451138 1.026439 0
M  V30 40 H 0.776117 1.118478 0.171559 0
M  V30 41 H 0.625259 3.176118 -0.207513 0
M  V30 42 H 0.447255 5.555422 -0.635733 0
M  V30 43 H -1.562030 6.561228 -1.780774 0
M  V30 44 H -3.200066 7.095053 -2.843594 0
M  V30 45 H -5.226862 5.815440 -4.556241 0
M  V30 46 H -5.387029 7.522985 -4.063829 0
M  V30 47 H -3.154750 2.532232 -1.995451 0
M  V30 48 H -2.212890 -1.754665 -0.921473 0
M  V30 49 H -1.017249 -3.243296 -0.203739 0
M  V30 50 H 0.268418 -5.088362 0.676072 0
M  V30 51 H 3.346307 -6.832686 1.397418 0
M  V30 52 H 1.692785 -6.509626 0.887297 0
M  V30 53 H 0.885376 -6.914391 3.085691 0
M  V30 54 H 2.254402 -8.027414 2.970026 0
M  V30 END ATOM
M  V30 BEGIN BOND
M  V30 1 1 1 2
M  V30 2 1 2 3
M  V30 3 1 3 4
M  V30 4 1 4 5
M  V30 5 1 5 6
M  V30 6 2 6 7
M  V30 7 1 7 8
M  V30 8 2 8 9
M  V30 9 1 9 10
M  V30 10 2 10 11
M  V30 11 1 11 12
M  V30 12 1 12 13
M  V30 13 2 13 14
M  V30 14 1 14 15
M  V30 15 2 15 16
M  V30 16 1 16 17
M  V30 17 1 17 18
M  V30 18 2 18 19
M  V30 19 1 18 20
M  V30 20 1 20 21
M  V30 21 1 21 22
M  V30 22 3 22 23
M  V30 23 2 17 24
M  V30 24 2 12 25
M  V30 25 1 25 26
M  V30 26 1 9 27
M  V30 27 2 27 28
M  V30 28 1 5 29
M  V30 29 1 29 30
M  V30 30 1 30 2
M  V30 31 1 28 6
M  V30 32 1 26 10
M  V30 33 1 24 13
M  V30 34 1 1 31
M  V30 35 1 1 32
M  V30 36 1 1 33
M  V30 37 1 3 34
M  V30 38 1 3 35
M  V30 39 1 4 36
M  V30 40 1 4 37
M  V30 41 1 7 38
M  V30 42 1 8 39
M  V30 43 1 11 40
M  V30 44 1 14 41
M  V30 45 1 15 42
M  V30 46 1 16 43
M  V30 47 1 20 44
M  V30 48 1 21 45
M  V30 49 1 21 46
M  V30 50 1 24 47
M  V30 51 1 26 48
M  V30 52 1 27 49
M  V30 53 1 28 50
M  V30 54 1 29 51
M  V30 55 1 29 52
M  V30 56 1 30 53
M  V30 57 1 30 54
M  V30 END BOND
M  V30 END CTAB
M  END
>  <Dataset>  (444) 
ChEMBL_Kinases

>  <Ligand_Instance>  (444) 
nan

>  <PDB_ID>  (444) 
nan

>  <Standardized_SMILES>  (444) 
CN1CCN(c2ccc(-c3cc(-c4cccc(C(=O)NCC#N)c4)n[nH]3)cc2)CC1

>  <Name>  (444) 
nan

>  <Pocket>  (444) 
nan

>  <ATP_Site>  (444) 
nan

>  <Peripheral>  (444) 
nan

>  <Num_H_Atoms_ProtBoundConf>  (444) 
nan

>  <Num_Resolved_Atoms>  (444) 
nan

>  <Num_Not_Resolved_Atoms>  (444) 
nan

$$$$
CHEMBL1683424
     RDKit          3D

  0  0  0  0  0  0  0  0  0  0999 V3000
M  V30 BEGIN CTAB
M  V30 COUNTS 54 57 0 0 0
M  V30 BEGIN ATOM
M  V30 1 C 3.552493 1.263006 6.836912 0
M  V30 2 N 3.446319 0.228172 5.834828 0
M  V30 3 C 4.727402 -0.451491 5.757797 0
M  V30 4 C 4.750555 -1.468178 4.634294 0
M  V30 5 N 3.360221 -1.804958 4.351913 0
M  V30 6 C 2.674571 -1.866990 3.104801 0
M  V30 7 C 1.588910 -1.004075 2.996218 0
M  V30 8 C 0.834967 -0.961300 1.840366 0
M  V30 9 C 1.143144 -1.777943 0.761205 0
M  V30 10 C 0.353812 -1.744677 -0.471345 0
M  V30 11 C -0.737583 -0.921255 -0.666248 0
M  V30 12 C -1.267287 -1.121947 -1.926417 0
M  V30 13 C -2.431190 -0.409479 -2.456000 0
M  V30 14 C -3.093635 0.539459 -1.702220 0
M  V30 15 C -4.191913 1.215651 -2.194479 0
M  V30 16 C -4.619896 0.914481 -3.482805 0
M  V30 17 C -3.972964 -0.024813 -4.243348 0
M  V30 18 C -4.390783 -0.368810 -5.598088 0
M  V30 19 O -3.793121 -1.239943 -6.307512 0
M  V30 20 N -5.494462 0.221746 -6.265198 0
M  V30 21 C -5.813405 -0.202790 -7.613822 0
M  V30 22 C -6.993055 0.560571 -8.070141 0
M  V30 23 N -7.920797 1.159436 -8.416368 0
M  V30 24 C -2.877038 -0.694209 -3.741762 0
M  V30 25 N -0.481990 -2.068396 -2.473414 0
M  V30 26 N 0.465857 -2.432717 -1.623056 0
M  V30 27 C 2.224758 -2.634327 0.875821 0
M  V30 28 C 2.982592 -2.680392 2.031678 0
M  V30 29 Br 4.481071 -3.836784 2.248799 0
M  V30 30 C 2.697579 -2.098394 5.632553 0
M  V30 31 C 2.497344 -0.770823 6.346486 0
M  V30 32 H 3.435552 0.791513 7.836551 0
M  V30 33 H 2.714811 1.986740 6.633842 0
M  V30 34 H 4.518249 1.804468 6.827626 0
M  V30 35 H 5.500232 0.326450 5.642441 0
M  V30 36 H 4.864221 -0.988065 6.739473 0
M  V30 37 H 5.282404 -2.377214 5.008585 0
M  V30 38 H 5.246447 -1.009154 3.755683 0
M  V30 39 H 1.270094 -0.323894 3.792953 0
M  V30 40 H -0.012525 -0.284112 1.762539 0
M  V30 41 H -1.130009 -0.216770 0.056625 0
M  V30 42 H -2.752141 0.775516 -0.682501 0
M  V30 43 H -4.700260 1.956736 -1.591028 0
M  V30 44 H -5.479657 1.442255 -3.871204 0
M  V30 45 H -6.053358 0.951657 -5.766317 0
M  V30 46 H -6.130253 -1.279785 -7.644744 0
M  V30 47 H -4.963315 -0.045490 -8.305375 0
M  V30 48 H -2.329873 -1.449278 -4.308561 0
M  V30 49 H 1.223210 -3.148674 -1.768459 0
M  V30 50 H 2.501150 -3.294339 0.048544 0
M  V30 51 H 3.275413 -2.810374 6.249647 0
M  V30 52 H 1.727871 -2.561995 5.356660 0
M  V30 53 H 2.698010 -0.923277 7.445237 0
M  V30 54 H 1.482210 -0.364199 6.189033 0
M  V30 END ATOM
M  V30 BEGIN BOND
M  V30 1 1 1 2
M  V30 2 1 2 3
M  V30 3 1 3 4
M  V30 4 1 4 5
M  V30 5 1 5 6
M  V30 6 2 6 7
M  V30 7 1 7 8
M  V30 8 2 8 9
M  V30 9 1 9 10
M  V30 10 2 10 11
M  V30 11 1 11 12
M  V30 12 1 12 13
M  V30 13 2 13 14
M  V30 14 1 14 15
M  V30 15 2 15 16
M  V30 16 1 16 17
M  V30 17 1 17 18
M  V30 18 2 18 19
M  V30 19 1 18 20
M  V30 20 1 20 21
M  V30 21 1 21 22
M  V30 22 3 22 23
M  V30 23 2 17 24
M  V30 24 2 12 25
M  V30 25 1 25 26
M  V30 26 1 9 27
M  V30 27 2 27 28
M  V30 28 1 28 29
M  V30 29 1 5 30
M  V30 30 1 30 31
M  V30 31 1 31 2
M  V30 32 1 28 6
M  V30 33 1 26 10
M  V30 34 1 24 13
M  V30 35 1 1 32
M  V30 36 1 1 33
M  V30 37 1 1 34
M  V30 38 1 3 35
M  V30 39 1 3 36
M  V30 40 1 4 37
M  V30 41 1 4 38
M  V30 42 1 7 39
M  V30 43 1 8 40
M  V30 44 1 11 41
M  V30 45 1 14 42
M  V30 46 1 15 43
M  V30 47 1 16 44
M  V30 48 1 20 45
M  V30 49 1 21 46
M  V30 50 1 21 47
M  V30 51 1 24 48
M  V30 52 1 26 49
M  V30 53 1 27 50
M  V30 54 1 30 51
M  V30 55 1 30 52
M  V30 56 1 31 53
M  V30 57 1 31 54
M  V30 END BOND
M  V30 END CTAB
M  END
>  <Dataset>  (445) 
ChEMBL_Kinases

>  <Ligand_Instance>  (445) 
nan

>  <PDB_ID>  (445) 
nan

>  <Standardized_SMILES>  (445) 
CN1CCN(c2ccc(-c3cc(-c4cccc(C(=O)NCC#N)c4)n[nH]3)cc2Br)CC1

>  <Name>  (445) 
nan

>  <Pocket>  (445) 
nan

>  <ATP_Site>  (445) 
nan

>  <Peripheral>  (445) 
nan

>  <Num_H_Atoms_ProtBoundConf>  (445) 
nan

>  <Num_Resolved_Atoms>  (445) 
nan

>  <Num_Not_Resolved_Atoms>  (445) 
nan

$$$$
CHEMBL1683425
     RDKit          3D

  0  0  0  0  0  0  0  0  0  0999 V3000
M  V30 BEGIN CTAB
M  V30 COUNTS 57 60 0 0 0
M  V30 BEGIN ATOM
M  V30 1 C 2.272637 -2.556261 8.568093 0
M  V30 2 N 3.045725 -2.057884 7.479943 0
M  V30 3 C 3.609013 -3.022849 6.625532 0
M  V30 4 C 3.820259 -2.669284 5.196153 0
M  V30 5 N 3.171634 -1.465267 4.748309 0
M  V30 6 C 2.423063 -1.295760 3.552755 0
M  V30 7 C 1.742729 -0.152435 3.198529 0
M  V30 8 C 1.029617 -0.025205 2.025951 0
M  V30 9 C 0.964114 -1.069650 1.128247 0
M  V30 10 C 0.211706 -0.947186 -0.117277 0
M  V30 11 C -0.482337 0.180035 -0.507664 0
M  V30 12 C -1.065398 -0.076232 -1.735283 0
M  V30 13 C -1.887792 0.879171 -2.481623 0
M  V30 14 C -2.138649 2.148073 -1.978798 0
M  V30 15 C -2.915921 3.039830 -2.692219 0
M  V30 16 C -3.427973 2.623228 -3.912470 0
M  V30 17 C -3.160157 1.352012 -4.386936 0
M  V30 18 C -3.746808 1.015964 -5.679520 0
M  V30 19 O -4.448013 1.863092 -6.291032 0
M  V30 20 N -3.580663 -0.241189 -6.324339 0
M  V30 21 C -4.278808 -0.281031 -7.593432 0
M  V30 22 C -4.102221 -1.620017 -8.280832 0
M  V30 23 C -4.612406 -2.707264 -7.476239 0
M  V30 24 N -5.018908 -3.577781 -6.834756 0
M  V30 25 C -2.393975 0.456464 -3.695978 0
M  V30 26 N -0.709519 -1.338912 -2.047014 0
M  V30 27 N 0.044406 -1.868662 -1.103515 0
M  V30 28 C 1.634757 -2.231530 1.451359 0
M  V30 29 C 2.338216 -2.319833 2.635845 0
M  V30 30 C 3.398876 -0.412392 5.716174 0
M  V30 31 C 2.603053 -0.829752 6.934718 0
M  V30 32 H 1.703331 -3.456172 8.190502 0
M  V30 33 H 1.485662 -1.813718 8.820721 0
M  V30 34 H 2.913958 -2.850860 9.407498 0
M  V30 35 H 2.980579 -3.959066 6.723176 0
M  V30 36 H 4.585852 -3.339237 7.072066 0
M  V30 37 H 3.603536 -3.545227 4.551802 0
M  V30 38 H 4.923748 -2.473455 5.036259 0
M  V30 39 H 1.751072 0.699742 3.853776 0
M  V30 40 H 0.516809 0.900506 1.806640 0
M  V30 41 H -0.541219 1.086951 0.065756 0
M  V30 42 H -1.702951 2.407300 -1.011507 0
M  V30 43 H -3.070455 4.014890 -2.237984 0
M  V30 44 H -4.030264 3.357088 -4.433031 0
M  V30 45 H -3.013066 -0.972161 -5.862986 0
M  V30 46 H -3.832120 0.528564 -8.204700 0
M  V30 47 H -5.365428 -0.079280 -7.473115 0
M  V30 48 H -3.000627 -1.781481 -8.444072 0
M  V30 49 H -4.575271 -1.634341 -9.275713 0
M  V30 50 H -2.183907 -0.522157 -4.054386 0
M  V30 51 H 0.484119 -2.803533 -1.021385 0
M  V30 52 H 1.553200 -3.018481 0.717983 0
M  V30 53 H 2.803506 -3.280422 2.741810 0
M  V30 54 H 3.027437 0.580437 5.386573 0
M  V30 55 H 4.504808 -0.369766 5.924349 0
M  V30 56 H 1.553884 -0.942106 6.576553 0
M  V30 57 H 2.645564 -0.039258 7.711828 0
M  V30 END ATOM
M  V30 BEGIN BOND
M  V30 1 1 1 2
M  V30 2 1 2 3
M  V30 3 1 3 4
M  V30 4 1 4 5
M  V30 5 1 5 6
M  V30 6 2 6 7
M  V30 7 1 7 8
M  V30 8 2 8 9
M  V30 9 1 9 10
M  V30 10 2 10 11
M  V30 11 1 11 12
M  V30 12 1 12 13
M  V30 13 2 13 14
M  V30 14 1 14 15
M  V30 15 2 15 16
M  V30 16 1 16 17
M  V30 17 1 17 18
M  V30 18 2 18 19
M  V30 19 1 18 20
M  V30 20 1 20 21
M  V30 21 1 21 22
M  V30 22 1 22 23
M  V30 23 3 23 24
M  V30 24 2 17 25
M  V30 25 2 12 26
M  V30 26 1 26 27
M  V30 27 1 9 28
M  V30 28 2 28 29
M  V30 29 1 5 30
M  V30 30 1 30 31
M  V30 31 1 31 2
M  V30 32 1 29 6
M  V30 33 1 27 10
M  V30 34 1 25 13
M  V30 35 1 1 32
M  V30 36 1 1 33
M  V30 37 1 1 34
M  V30 38 1 3 35
M  V30 39 1 3 36
M  V30 40 1 4 37
M  V30 41 1 4 38
M  V30 42 1 7 39
M  V30 43 1 8 40
M  V30 44 1 11 41
M  V30 45 1 14 42
M  V30 46 1 15 43
M  V30 47 1 16 44
M  V30 48 1 20 45
M  V30 49 1 21 46
M  V30 50 1 21 47
M  V30 51 1 22 48
M  V30 52 1 22 49
M  V30 53 1 25 50
M  V30 54 1 27 51
M  V30 55 1 28 52
M  V30 56 1 29 53
M  V30 57 1 30 54
M  V30 58 1 30 55
M  V30 59 1 31 56
M  V30 60 1 31 57
M  V30 END BOND
M  V30 END CTAB
M  END
>  <Dataset>  (446) 
ChEMBL_Kinases

>  <Ligand_Instance>  (446) 
nan

>  <PDB_ID>  (446) 
nan

>  <Standardized_SMILES>  (446) 
CN1CCN(c2ccc(-c3cc(-c4cccc(C(=O)NCCC#N)c4)n[nH]3)cc2)CC1

>  <Name>  (446) 
nan

>  <Pocket>  (446) 
nan

>  <ATP_Site>  (446) 
nan

>  <Peripheral>  (446) 
nan

>  <Num_H_Atoms_ProtBoundConf>  (446) 
nan

>  <Num_Resolved_Atoms>  (446) 
nan

>  <Num_Not_Resolved_Atoms>  (446) 
nan

$$$$
CHEMBL1683426
     RDKit          3D

  0  0  0  0  0  0  0  0  0  0999 V3000
M  V30 BEGIN CTAB
M  V30 COUNTS 60 63 0 0 0
M  V30 BEGIN ATOM
M  V30 1 C 7.975117 -3.542052 4.660249 0
M  V30 2 O 7.139516 -2.427712 4.732026 0
M  V30 3 C 7.847659 -1.252043 4.565233 0
M  V30 4 C 6.944054 -0.031415 4.642356 0
M  V30 5 N 5.916914 -0.043282 3.630376 0
M  V30 6 C 6.234678 -0.061957 2.246382 0
M  V30 7 O 7.430440 -0.069027 1.850975 0
M  V30 8 C 5.199781 -0.073835 1.210117 0
M  V30 9 C 5.609991 -0.091547 -0.109781 0
M  V30 10 C 4.697104 -0.103439 -1.171921 0
M  V30 11 C 3.326709 -0.097283 -0.895492 0
M  V30 12 C 2.920584 -0.079600 0.426155 0
M  V30 13 C 1.495995 -0.072611 0.779241 0
M  V30 14 C 0.460114 -0.082603 -0.148458 0
M  V30 15 C -0.716100 -0.071510 0.573567 0
M  V30 16 C -2.040615 -0.078065 -0.046081 0
M  V30 17 C -2.232104 -0.092912 -1.411473 0
M  V30 18 C -3.473699 -0.100372 -2.008611 0
M  V30 19 C -4.602896 -0.093055 -1.247218 0
M  V30 20 N -5.932563 -0.100454 -1.748750 0
M  V30 21 C -7.192108 -0.094397 -1.029984 0
M  V30 22 C -7.961617 -1.371317 -1.227247 0
M  V30 23 N -7.490350 -2.137102 -2.357407 0
M  V30 24 C -6.402995 -3.044465 -2.021429 0
M  V30 25 C -7.160014 -1.305131 -3.491160 0
M  V30 26 C -6.318457 -0.117848 -3.143750 0
M  V30 27 C -4.443373 -0.078194 0.120081 0
M  V30 28 C -3.198548 -0.070830 0.709624 0
M  V30 29 N -0.397111 -0.055400 1.886936 0
M  V30 30 N 0.914422 -0.056055 2.007266 0
M  V30 31 C 3.861524 -0.068403 1.437502 0
M  V30 32 H 8.509359 -3.653119 3.715074 0
M  V30 33 H 8.783421 -3.416902 5.435798 0
M  V30 34 H 7.374444 -4.415968 4.927054 0
M  V30 35 H 8.599514 -1.156018 5.376039 0
M  V30 36 H 8.408996 -1.245747 3.616791 0
M  V30 37 H 6.504469 0.076758 5.641579 0
M  V30 38 H 7.604939 0.861160 4.491174 0
M  V30 39 H 4.918106 -0.038118 3.918780 0
M  V30 40 H 6.661061 -0.097762 -0.441258 0
M  V30 41 H 5.028073 -0.117316 -2.211847 0
M  V30 42 H 2.591773 -0.106069 -1.701195 0
M  V30 43 H 0.590544 -0.096349 -1.215542 0
M  V30 44 H -1.369214 -0.099375 -2.068521 0
M  V30 45 H -3.552263 -0.112197 -3.076606 0
M  V30 46 H -7.059365 0.030457 0.063955 0
M  V30 47 H -7.831487 0.790563 -1.322593 0
M  V30 48 H -9.019582 -1.105183 -1.421590 0
M  V30 49 H -7.938998 -2.027196 -0.325353 0
M  V30 50 H -6.748432 -4.066595 -2.338098 0
M  V30 51 H -5.496214 -2.847422 -2.636091 0
M  V30 52 H -6.169795 -3.056924 -0.951271 0
M  V30 53 H -8.080262 -1.033492 -4.036618 0
M  V30 54 H -6.564827 -1.954881 -4.181132 0
M  V30 55 H -6.938784 0.794703 -3.395403 0
M  V30 56 H -5.433620 -0.058890 -3.792761 0
M  V30 57 H -5.217990 -0.070886 0.873702 0
M  V30 58 H -3.017922 -0.059091 1.795431 0
M  V30 59 H -1.101580 -0.044411 2.660994 0
M  V30 60 H 3.510256 -0.054778 2.445057 0
M  V30 END ATOM
M  V30 BEGIN BOND
M  V30 1 1 1 2
M  V30 2 1 2 3
M  V30 3 1 3 4
M  V30 4 1 4 5
M  V30 5 1 5 6
M  V30 6 2 6 7
M  V30 7 1 6 8
M  V30 8 2 8 9
M  V30 9 1 9 10
M  V30 10 2 10 11
M  V30 11 1 11 12
M  V30 12 1 12 13
M  V30 13 1 13 14
M  V30 14 2 14 15
M  V30 15 1 15 16
M  V30 16 2 16 17
M  V30 17 1 17 18
M  V30 18 2 18 19
M  V30 19 1 19 20
M  V30 20 1 20 21
M  V30 21 1 21 22
M  V30 22 1 22 23
M  V30 23 1 23 24
M  V30 24 1 23 25
M  V30 25 1 25 26
M  V30 26 1 19 27
M  V30 27 2 27 28
M  V30 28 1 15 29
M  V30 29 1 29 30
M  V30 30 2 12 31
M  V30 31 1 31 8
M  V30 32 2 30 13
M  V30 33 1 28 16
M  V30 34 1 26 20
M  V30 35 1 1 32
M  V30 36 1 1 33
M  V30 37 1 1 34
M  V30 38 1 3 35
M  V30 39 1 3 36
M  V30 40 1 4 37
M  V30 41 1 4 38
M  V30 42 1 5 39
M  V30 43 1 9 40
M  V30 44 1 10 41
M  V30 45 1 11 42
M  V30 46 1 14 43
M  V30 47 1 17 44
M  V30 48 1 18 45
M  V30 49 1 21 46
M  V30 50 1 21 47
M  V30 51 1 22 48
M  V30 52 1 22 49
M  V30 53 1 24 50
M  V30 54 1 24 51
M  V30 55 1 24 52
M  V30 56 1 25 53
M  V30 57 1 25 54
M  V30 58 1 26 55
M  V30 59 1 26 56
M  V30 60 1 27 57
M  V30 61 1 28 58
M  V30 62 1 29 59
M  V30 63 1 31 60
M  V30 END BOND
M  V30 END CTAB
M  END
>  <Dataset>  (447) 
ChEMBL_Kinases

>  <Ligand_Instance>  (447) 
nan

>  <PDB_ID>  (447) 
nan

>  <Standardized_SMILES>  (447) 
COCCNC(=O)c1cccc(-c2cc(-c3ccc(N4CCN(C)CC4)cc3)[nH]n2)c1

>  <Name>  (447) 
nan

>  <Pocket>  (447) 
nan

>  <ATP_Site>  (447) 
nan

>  <Peripheral>  (447) 
nan

>  <Num_H_Atoms_ProtBoundConf>  (447) 
nan

>  <Num_Resolved_Atoms>  (447) 
nan

>  <Num_Not_Resolved_Atoms>  (447) 
nan

$$$$
CHEMBL1683427
     RDKit          3D

  0  0  0  0  0  0  0  0  0  0999 V3000
M  V30 BEGIN CTAB
M  V30 COUNTS 57 60 0 0 0
M  V30 BEGIN ATOM
M  V30 1 C 3.380647 -6.147827 -1.063822 0
M  V30 2 N 4.773196 -5.907315 -0.896294 0
M  V30 3 C 5.212619 -5.541171 0.397618 0
M  V30 4 C 5.582975 -4.079926 0.468690 0
M  V30 5 N 4.784414 -3.432354 -0.551080 0
M  V30 6 C 3.621631 -2.664694 -0.320265 0
M  V30 7 C 2.972631 -1.972582 -1.315716 0
M  V30 8 C 1.825908 -1.240489 -1.146730 0
M  V30 9 C 1.269822 -1.181324 0.092359 0
M  V30 10 C 0.070387 -0.563156 0.630212 0
M  V30 11 C -0.692620 -0.235744 1.663548 0
M  V30 12 C -1.791589 0.518947 1.334355 0
M  V30 13 C -2.765965 1.023373 2.279484 0
M  V30 14 C -2.762392 0.797822 3.630817 0
M  V30 15 C -3.765197 1.331359 4.438892 0
M  V30 16 C -4.742614 2.084648 3.824162 0
M  V30 17 C -4.783488 2.341933 2.461960 0
M  V30 18 C -5.879186 3.145149 1.891453 0
M  V30 19 O -6.941954 3.322622 2.533625 0
M  V30 20 N -5.653098 3.694838 0.595124 0
M  V30 21 C -6.812652 4.463031 0.122925 0
M  V30 22 C -6.485974 5.051344 -1.222470 0
M  V30 23 O -6.204162 4.030120 -2.105760 0
M  V30 24 C -3.776834 1.799815 1.692454 0
M  V30 25 N -1.707175 0.676586 -0.032102 0
M  V30 26 N -0.597515 0.026591 -0.418452 0
M  V30 27 C 1.890101 -1.869838 1.149254 0
M  V30 28 C 3.063157 -2.608043 0.937312 0
M  V30 29 C 5.366327 -3.740277 -1.871515 0
M  V30 30 C 5.432064 -5.252086 -1.982580 0
M  V30 31 H 3.217179 -6.968646 -1.804584 0
M  V30 32 H 2.809892 -5.273269 -1.459264 0
M  V30 33 H 2.966908 -6.505777 -0.105079 0
M  V30 34 H 4.478550 -5.771878 1.199914 0
M  V30 35 H 6.145963 -6.125664 0.615061 0
M  V30 36 H 5.452563 -3.666197 1.480863 0
M  V30 37 H 6.668671 -3.996132 0.232633 0
M  V30 38 H 3.335448 -1.953738 -2.335185 0
M  V30 39 H 1.291079 -0.687013 -1.891170 0
M  V30 40 H -0.306630 -0.628692 2.598238 0
M  V30 41 H -1.935741 0.187011 3.996560 0
M  V30 42 H -3.733651 1.132409 5.491650 0
M  V30 43 H -5.549551 2.527735 4.401763 0
M  V30 44 H -4.799682 3.614064 -0.008227 0
M  V30 45 H -7.208489 5.166129 0.856288 0
M  V30 46 H -7.624691 3.694433 -0.091061 0
M  V30 47 H -5.654091 5.804416 -1.161822 0
M  V30 48 H -7.369935 5.659250 -1.565882 0
M  V30 49 H -5.361465 4.156755 -2.629483 0
M  V30 50 H -3.801004 1.990868 0.632749 0
M  V30 51 H -0.556466 0.164866 -1.481068 0
M  V30 52 H 1.590210 -1.930207 2.192480 0
M  V30 53 H 3.550421 -3.151077 1.753660 0
M  V30 54 H 6.413266 -3.382579 -1.831973 0
M  V30 55 H 4.766241 -3.298966 -2.666294 0
M  V30 56 H 6.465874 -5.623327 -2.025174 0
M  V30 57 H 4.927677 -5.519874 -2.921961 0
M  V30 END ATOM
M  V30 BEGIN BOND
M  V30 1 1 1 2
M  V30 2 1 2 3
M  V30 3 1 3 4
M  V30 4 1 4 5
M  V30 5 1 5 6
M  V30 6 2 6 7
M  V30 7 1 7 8
M  V30 8 2 8 9
M  V30 9 1 9 10
M  V30 10 2 10 11
M  V30 11 1 11 12
M  V30 12 1 12 13
M  V30 13 2 13 14
M  V30 14 1 14 15
M  V30 15 2 15 16
M  V30 16 1 16 17
M  V30 17 1 17 18
M  V30 18 2 18 19
M  V30 19 1 18 20
M  V30 20 1 20 21
M  V30 21 1 21 22
M  V30 22 1 22 23
M  V30 23 2 17 24
M  V30 24 2 12 25
M  V30 25 1 25 26
M  V30 26 1 9 27
M  V30 27 2 27 28
M  V30 28 1 5 29
M  V30 29 1 29 30
M  V30 30 1 30 2
M  V30 31 1 28 6
M  V30 32 1 26 10
M  V30 33 1 24 13
M  V30 34 1 1 31
M  V30 35 1 1 32
M  V30 36 1 1 33
M  V30 37 1 3 34
M  V30 38 1 3 35
M  V30 39 1 4 36
M  V30 40 1 4 37
M  V30 41 1 7 38
M  V30 42 1 8 39
M  V30 43 1 11 40
M  V30 44 1 14 41
M  V30 45 1 15 42
M  V30 46 1 16 43
M  V30 47 1 20 44
M  V30 48 1 21 45
M  V30 49 1 21 46
M  V30 50 1 22 47
M  V30 51 1 22 48
M  V30 52 1 23 49
M  V30 53 1 24 50
M  V30 54 1 26 51
M  V30 55 1 27 52
M  V30 56 1 28 53
M  V30 57 1 29 54
M  V30 58 1 29 55
M  V30 59 1 30 56
M  V30 60 1 30 57
M  V30 END BOND
M  V30 END CTAB
M  END
>  <Dataset>  (448) 
ChEMBL_Kinases

>  <Ligand_Instance>  (448) 
nan

>  <PDB_ID>  (448) 
nan

>  <Standardized_SMILES>  (448) 
CN1CCN(c2ccc(-c3cc(-c4cccc(C(=O)NCCO)c4)n[nH]3)cc2)CC1

>  <Name>  (448) 
nan

>  <Pocket>  (448) 
nan

>  <ATP_Site>  (448) 
nan

>  <Peripheral>  (448) 
nan

>  <Num_H_Atoms_ProtBoundConf>  (448) 
nan

>  <Num_Resolved_Atoms>  (448) 
nan

>  <Num_Not_Resolved_Atoms>  (448) 
nan

$$$$
CHEMBL1683428
     RDKit          3D

  0  0  0  0  0  0  0  0  0  0999 V3000
M  V30 BEGIN CTAB
M  V30 COUNTS 64 67 0 0 0
M  V30 BEGIN ATOM
M  V30 1 C 4.242328 3.130402 4.315156 0
M  V30 2 N 5.634362 2.988605 3.988780 0
M  V30 3 C 6.202852 1.966491 4.844303 0
M  V30 4 C 5.816866 2.670372 2.613777 0
M  V30 5 C 5.488628 3.739791 1.638574 0
M  V30 6 N 4.125014 4.194062 1.616747 0
M  V30 7 C 2.995276 3.372915 1.311899 0
M  V30 8 O 3.294629 2.173795 1.052633 0
M  V30 9 C 1.623206 3.877066 1.301860 0
M  V30 10 C 1.205032 5.162230 1.570582 0
M  V30 11 C -0.121301 5.511044 1.523720 0
M  V30 12 C -1.110783 4.604304 1.207196 0
M  V30 13 C -0.687633 3.318321 0.938827 0
M  V30 14 C -1.683830 2.304327 0.592094 0
M  V30 15 C -1.455623 0.972872 0.302775 0
M  V30 16 C -2.645812 0.327369 0.027606 0
M  V30 17 C -2.797393 -1.085966 -0.320022 0
M  V30 18 C -4.039208 -1.621076 -0.596171 0
M  V30 19 C -4.230443 -2.948158 -0.920773 0
M  V30 20 C -3.128916 -3.781011 -0.971844 0
M  V30 21 N -3.259709 -5.172274 -1.304266 0
M  V30 22 C -2.248298 -6.210074 -1.314929 0
M  V30 23 C -2.078696 -6.789064 -2.679147 0
M  V30 24 N -3.358077 -7.080009 -3.246771 0
M  V30 25 C -3.327455 -8.421721 -3.781502 0
M  V30 26 C -4.443788 -7.002313 -2.296653 0
M  V30 27 C -4.593055 -5.636033 -1.694766 0
M  V30 28 C -1.894284 -3.229991 -0.692927 0
M  V30 29 C -1.682878 -1.898948 -0.365108 0
M  V30 30 N -3.587230 1.276714 0.153011 0
M  V30 31 N -3.018354 2.423901 0.481668 0
M  V30 32 C 0.639590 2.947633 0.980506 0
M  V30 33 H 3.853849 4.099740 3.955179 0
M  V30 34 H 3.631547 2.306563 3.897271 0
M  V30 35 H 4.081960 3.082589 5.430929 0
M  V30 36 H 7.242548 2.253947 5.091432 0
M  V30 37 H 6.228099 1.025698 4.240814 0
M  V30 38 H 5.571474 1.833603 5.727855 0
M  V30 39 H 6.893963 2.348125 2.504954 0
M  V30 40 H 5.145007 1.792779 2.399488 0
M  V30 41 H 5.778351 3.359740 0.611669 0
M  V30 42 H 6.176895 4.604231 1.803822 0
M  V30 43 H 3.916014 5.200050 1.834688 0
M  V30 44 H 1.989715 5.860324 1.816271 0
M  V30 45 H -0.385346 6.534419 1.744858 0
M  V30 46 H -2.165189 4.845598 1.161293 0
M  V30 47 H -0.480508 0.491419 0.291092 0
M  V30 48 H -4.945184 -1.001147 -0.569302 0
M  V30 49 H -5.227072 -3.316833 -1.127944 0
M  V30 50 H -1.247712 -5.804900 -1.001402 0
M  V30 51 H -2.491461 -7.013634 -0.587523 0
M  V30 52 H -1.482813 -7.739940 -2.537912 0
M  V30 53 H -1.445616 -6.132996 -3.312613 0
M  V30 54 H -3.123002 -9.194655 -3.019210 0
M  V30 55 H -2.540150 -8.552087 -4.554348 0
M  V30 56 H -4.298431 -8.606206 -4.316725 0
M  V30 57 H -5.360965 -7.305259 -2.858842 0
M  V30 58 H -4.290105 -7.723100 -1.491847 0
M  V30 59 H -5.223170 -5.726923 -0.788602 0
M  V30 60 H -5.060760 -4.908232 -2.388927 0
M  V30 61 H -0.983852 -3.813814 -0.711859 0
M  V30 62 H -0.704702 -1.490636 -0.149892 0
M  V30 63 H -4.618903 1.102541 0.004561 0
M  V30 64 H 0.900967 1.918042 0.757657 0
M  V30 END ATOM
M  V30 BEGIN BOND
M  V30 1 1 1 2
M  V30 2 1 2 3
M  V30 3 1 2 4
M  V30 4 1 4 5
M  V30 5 1 5 6
M  V30 6 1 6 7
M  V30 7 2 7 8
M  V30 8 1 7 9
M  V30 9 2 9 10
M  V30 10 1 10 11
M  V30 11 2 11 12
M  V30 12 1 12 13
M  V30 13 1 13 14
M  V30 14 1 14 15
M  V30 15 2 15 16
M  V30 16 1 16 17
M  V30 17 2 17 18
M  V30 18 1 18 19
M  V30 19 2 19 20
M  V30 20 1 20 21
M  V30 21 1 21 22
M  V30 22 1 22 23
M  V30 23 1 23 24
M  V30 24 1 24 25
M  V30 25 1 24 26
M  V30 26 1 26 27
M  V30 27 1 20 28
M  V30 28 2 28 29
M  V30 29 1 16 30
M  V30 30 1 30 31
M  V30 31 2 13 32
M  V30 32 1 32 9
M  V30 33 2 31 14
M  V30 34 1 29 17
M  V30 35 1 27 21
M  V30 36 1 1 33
M  V30 37 1 1 34
M  V30 38 1 1 35
M  V30 39 1 3 36
M  V30 40 1 3 37
M  V30 41 1 3 38
M  V30 42 1 4 39
M  V30 43 1 4 40
M  V30 44 1 5 41
M  V30 45 1 5 42
M  V30 46 1 6 43
M  V30 47 1 10 44
M  V30 48 1 11 45
M  V30 49 1 12 46
M  V30 50 1 15 47
M  V30 51 1 18 48
M  V30 52 1 19 49
M  V30 53 1 22 50
M  V30 54 1 22 51
M  V30 55 1 23 52
M  V30 56 1 23 53
M  V30 57 1 25 54
M  V30 58 1 25 55
M  V30 59 1 25 56
M  V30 60 1 26 57
M  V30 61 1 26 58
M  V30 62 1 27 59
M  V30 63 1 27 60
M  V30 64 1 28 61
M  V30 65 1 29 62
M  V30 66 1 30 63
M  V30 67 1 32 64
M  V30 END BOND
M  V30 END CTAB
M  END
>  <Dataset>  (449) 
ChEMBL_Kinases

>  <Ligand_Instance>  (449) 
nan

>  <PDB_ID>  (449) 
nan

>  <Standardized_SMILES>  (449) 
CN(C)CCNC(=O)c1cccc(-c2cc(-c3ccc(N4CCN(C)CC4)cc3)[nH]n2)c1

>  <Name>  (449) 
nan

>  <Pocket>  (449) 
nan

>  <ATP_Site>  (449) 
nan

>  <Peripheral>  (449) 
nan

>  <Num_H_Atoms_ProtBoundConf>  (449) 
nan

>  <Num_Resolved_Atoms>  (449) 
nan

>  <Num_Not_Resolved_Atoms>  (449) 
nan

$$$$
CHEMBL1683438
     RDKit          3D

  0  0  0  0  0  0  0  0  0  0999 V3000
M  V30 BEGIN CTAB
M  V30 COUNTS 55 58 0 0 0
M  V30 BEGIN ATOM
M  V30 1 N 7.796198 4.415338 5.320026 0
M  V30 2 C 7.656740 3.267275 5.388089 0
M  V30 3 C 7.484556 1.800721 5.498598 0
M  V30 4 N 6.503417 1.384890 4.514380 0
M  V30 5 C 6.730642 1.615709 3.130114 0
M  V30 6 O 7.808829 2.187464 2.835078 0
M  V30 7 C 5.814136 1.240267 2.055771 0
M  V30 8 C 6.221894 1.554468 0.775713 0
M  V30 9 C 5.366380 1.208222 -0.277420 0
M  V30 10 C 4.137321 0.567256 -0.075509 0
M  V30 11 C 3.818906 0.295418 1.240562 0
M  V30 12 C 2.547261 -0.375390 1.538707 0
M  V30 13 C 1.579455 -0.790276 0.618425 0
M  V30 14 C 0.547961 -1.373482 1.325554 0
M  V30 15 C -0.693769 -1.963680 0.837312 0
M  V30 16 C -1.575851 -2.487677 1.741281 0
M  V30 17 C -2.754235 -3.049618 1.300669 0
M  V30 18 C -3.095996 -3.109719 -0.055416 0
M  V30 19 C -4.385959 -3.741063 -0.349601 0
M  V30 20 N -5.452637 -2.782796 -0.354010 0
M  V30 21 C -5.316916 -1.735976 -1.316026 0
M  V30 22 C -6.504850 -0.768439 -1.232767 0
M  V30 23 C -6.131925 0.382517 -2.171438 0
M  V30 24 O -6.008620 -0.074105 -3.463496 0
M  V30 25 C -5.042670 -1.061238 -3.625216 0
M  V30 26 C -5.340923 -2.256742 -2.747015 0
M  V30 27 C -2.187975 -2.575465 -0.924648 0
M  V30 28 C -0.996991 -2.005087 -0.508310 0
M  V30 29 O 0.879100 -1.311033 2.592498 0
M  V30 30 N 2.035841 -0.735469 2.738586 0
M  V30 31 C 4.616218 0.609695 2.322397 0
M  V30 32 H 7.045427 1.634477 6.499570 0
M  V30 33 H 8.463672 1.300174 5.370544 0
M  V30 34 H 5.616747 0.912235 4.785589 0
M  V30 35 H 7.165470 2.053305 0.539489 0
M  V30 36 H 5.617964 1.422769 -1.314282 0
M  V30 37 H 3.504229 0.315596 -0.908895 0
M  V30 38 H 1.628268 -0.676650 -0.444577 0
M  V30 39 H -1.358924 -2.466330 2.802628 0
M  V30 40 H -3.422871 -3.454365 2.076452 0
M  V30 41 H -4.632349 -4.520231 0.400446 0
M  V30 42 H -4.292211 -4.287542 -1.316863 0
M  V30 43 H -6.395264 -3.170725 -0.264585 0
M  V30 44 H -4.405671 -1.157982 -1.172539 0
M  V30 45 H -7.373317 -1.317375 -1.656830 0
M  V30 46 H -6.657876 -0.392464 -0.213637 0
M  V30 47 H -6.925258 1.143764 -2.164787 0
M  V30 48 H -5.189889 0.801908 -1.752937 0
M  V30 49 H -4.985635 -1.299938 -4.693032 0
M  V30 50 H -4.028698 -0.657164 -3.336654 0
M  V30 51 H -4.621143 -3.054084 -2.927266 0
M  V30 52 H -6.398939 -2.550086 -2.982468 0
M  V30 53 H -2.464478 -2.628691 -1.967734 0
M  V30 54 H -0.308793 -1.593967 -1.241304 0
M  V30 55 H 4.309084 0.370448 3.318031 0
M  V30 END ATOM
M  V30 BEGIN BOND
M  V30 1 3 1 2
M  V30 2 1 2 3
M  V30 3 1 3 4
M  V30 4 1 4 5
M  V30 5 2 5 6
M  V30 6 1 5 7
M  V30 7 2 7 8
M  V30 8 1 8 9
M  V30 9 2 9 10
M  V30 10 1 10 11
M  V30 11 1 11 12
M  V30 12 1 12 13
M  V30 13 2 13 14
M  V30 14 1 14 15
M  V30 15 2 15 16
M  V30 16 1 16 17
M  V30 17 2 17 18
M  V30 18 1 18 19
M  V30 19 1 19 20
M  V30 20 1 20 21
M  V30 21 1 21 22
M  V30 22 1 22 23
M  V30 23 1 23 24
M  V30 24 1 24 25
M  V30 25 1 25 26
M  V30 26 1 18 27
M  V30 27 2 27 28
M  V30 28 1 14 29
M  V30 29 1 29 30
M  V30 30 2 11 31
M  V30 31 1 31 7
M  V30 32 2 30 12
M  V30 33 1 28 15
M  V30 34 1 26 21
M  V30 35 1 3 32
M  V30 36 1 3 33
M  V30 37 1 4 34
M  V30 38 1 8 35
M  V30 39 1 9 36
M  V30 40 1 10 37
M  V30 41 1 13 38
M  V30 42 1 16 39
M  V30 43 1 17 40
M  V30 44 1 19 41
M  V30 45 1 19 42
M  V30 46 1 20 43
M  V30 47 1 21 44
M  V30 48 1 22 45
M  V30 49 1 22 46
M  V30 50 1 23 47
M  V30 51 1 23 48
M  V30 52 1 25 49
M  V30 53 1 25 50
M  V30 54 1 26 51
M  V30 55 1 26 52
M  V30 56 1 27 53
M  V30 57 1 28 54
M  V30 58 1 31 55
M  V30 END BOND
M  V30 END CTAB
M  END
>  <Dataset>  (450) 
ChEMBL_Kinases

>  <Ligand_Instance>  (450) 
nan

>  <PDB_ID>  (450) 
nan

>  <Standardized_SMILES>  (450) 
N#CCNC(=O)c1cccc(-c2cc(-c3ccc(CNC4CCOCC4)cc3)on2)c1

>  <Name>  (450) 
nan

>  <Pocket>  (450) 
nan

>  <ATP_Site>  (450) 
nan

>  <Peripheral>  (450) 
nan

>  <Num_H_Atoms_ProtBoundConf>  (450) 
nan

>  <Num_Resolved_Atoms>  (450) 
nan

>  <Num_Not_Resolved_Atoms>  (450) 
nan

$$$$
CHEMBL1683430
     RDKit          3D

  0  0  0  0  0  0  0  0  0  0999 V3000
M  V30 BEGIN CTAB
M  V30 COUNTS 53 56 0 0 0
M  V30 BEGIN ATOM
M  V30 1 C 0.285662 -6.580872 3.040733 0
M  V30 2 N 1.596348 -7.151458 2.817284 0
M  V30 3 C 2.673806 -6.427417 3.408375 0
M  V30 4 C 3.256279 -5.359759 2.475408 0
M  V30 5 N 2.433710 -5.217208 1.293741 0
M  V30 6 C 1.787063 -4.021033 0.907519 0
M  V30 7 C 1.871013 -2.841288 1.608308 0
M  V30 8 C 1.250565 -1.660429 1.255010 0
M  V30 9 C 0.478107 -1.633535 0.111713 0
M  V30 10 C -0.203166 -0.414448 -0.314458 0
M  V30 11 C -0.144967 0.789669 0.356731 0
M  V30 12 C -0.906622 1.733599 -0.323115 0
M  V30 13 C -1.085945 3.128367 0.085796 0
M  V30 14 C -0.461005 3.596772 1.246235 0
M  V30 15 C -0.678410 4.937650 1.571719 0
M  V30 16 C -1.478276 5.749690 0.770944 0
M  V30 17 C -2.071047 5.246568 -0.358265 0
M  V30 18 C -2.894268 6.153584 -1.148440 0
M  V30 19 O -3.011587 7.337908 -0.755764 0
M  V30 20 N -3.578486 5.801871 -2.334525 0
M  V30 21 C -4.307541 6.927687 -2.880046 0
M  V30 22 C -5.287020 7.392704 -1.899856 0
M  V30 23 N -6.066863 7.774393 -1.137931 0
M  V30 24 C -1.880924 3.933423 -0.711071 0
M  V30 25 N -1.389584 1.044199 -1.379142 0
M  V30 26 O -0.965254 -0.184612 -1.341437 0
M  V30 27 C 0.361373 -2.793258 -0.628312 0
M  V30 28 C 1.006784 -3.942817 -0.222420 0
M  V30 29 C 2.364876 -6.449831 0.574102 0
M  V30 30 C 1.817569 -7.556216 1.468985 0
M  V30 31 H -0.321568 -6.852170 2.139145 0
M  V30 32 H 0.286595 -5.493305 3.183635 0
M  V30 33 H -0.142178 -7.016939 3.966744 0
M  V30 34 H 2.292181 -5.926429 4.333071 0
M  V30 35 H 3.446527 -7.140348 3.761255 0
M  V30 36 H 3.457884 -4.430564 3.013075 0
M  V30 37 H 4.240091 -5.796264 2.137617 0
M  V30 38 H 2.450767 -2.765714 2.513859 0
M  V30 39 H 1.339446 -0.750620 1.831506 0
M  V30 40 H 0.394059 0.995508 1.261877 0
M  V30 41 H 0.157430 2.935900 1.849360 0
M  V30 42 H -0.210866 5.323810 2.457128 0
M  V30 43 H -1.578439 6.783506 1.122672 0
M  V30 44 H -3.492819 4.813767 -2.680239 0
M  V30 45 H -4.805352 6.641392 -3.838102 0
M  V30 46 H -3.580128 7.776508 -3.028734 0
M  V30 47 H -2.338217 3.527640 -1.590929 0
M  V30 48 H -0.251889 -2.730748 -1.515834 0
M  V30 49 H 0.838763 -4.769098 -0.875920 0
M  V30 50 H 1.863141 -6.428247 -0.392364 0
M  V30 51 H 3.436842 -6.723098 0.335421 0
M  V30 52 H 0.829394 -7.873948 1.058527 0
M  V30 53 H 2.502209 -8.428423 1.467014 0
M  V30 END ATOM
M  V30 BEGIN BOND
M  V30 1 1 1 2
M  V30 2 1 2 3
M  V30 3 1 3 4
M  V30 4 1 4 5
M  V30 5 1 5 6
M  V30 6 2 6 7
M  V30 7 1 7 8
M  V30 8 2 8 9
M  V30 9 1 9 10
M  V30 10 2 10 11
M  V30 11 1 11 12
M  V30 12 1 12 13
M  V30 13 2 13 14
M  V30 14 1 14 15
M  V30 15 2 15 16
M  V30 16 1 16 17
M  V30 17 1 17 18
M  V30 18 2 18 19
M  V30 19 1 18 20
M  V30 20 1 20 21
M  V30 21 1 21 22
M  V30 22 3 22 23
M  V30 23 2 17 24
M  V30 24 2 12 25
M  V30 25 1 25 26
M  V30 26 1 9 27
M  V30 27 2 27 28
M  V30 28 1 5 29
M  V30 29 1 29 30
M  V30 30 1 30 2
M  V30 31 1 28 6
M  V30 32 1 26 10
M  V30 33 1 24 13
M  V30 34 1 1 31
M  V30 35 1 1 32
M  V30 36 1 1 33
M  V30 37 1 3 34
M  V30 38 1 3 35
M  V30 39 1 4 36
M  V30 40 1 4 37
M  V30 41 1 7 38
M  V30 42 1 8 39
M  V30 43 1 11 40
M  V30 44 1 14 41
M  V30 45 1 15 42
M  V30 46 1 16 43
M  V30 47 1 20 44
M  V30 48 1 21 45
M  V30 49 1 21 46
M  V30 50 1 24 47
M  V30 51 1 27 48
M  V30 52 1 28 49
M  V30 53 1 29 50
M  V30 54 1 29 51
M  V30 55 1 30 52
M  V30 56 1 30 53
M  V30 END BOND
M  V30 END CTAB
M  END
>  <Dataset>  (451) 
ChEMBL_Kinases

>  <Ligand_Instance>  (451) 
nan

>  <PDB_ID>  (451) 
nan

>  <Standardized_SMILES>  (451) 
CN1CCN(c2ccc(-c3cc(-c4cccc(C(=O)NCC#N)c4)no3)cc2)CC1

>  <Name>  (451) 
nan

>  <Pocket>  (451) 
nan

>  <ATP_Site>  (451) 
nan

>  <Peripheral>  (451) 
nan

>  <Num_H_Atoms_ProtBoundConf>  (451) 
nan

>  <Num_Resolved_Atoms>  (451) 
nan

>  <Num_Not_Resolved_Atoms>  (451) 
nan

$$$$
CHEMBL1683431
     RDKit          3D

  0  0  0  0  0  0  0  0  0  0999 V3000
M  V30 BEGIN CTAB
M  V30 COUNTS 56 59 0 0 0
M  V30 BEGIN ATOM
M  V30 1 C 4.426543 1.896285 7.720226 0
M  V30 2 C 4.536809 0.760028 6.752415 0 CFG=2
M  V30 3 C 5.599999 -0.190506 7.158773 0
M  V30 4 N 6.440907 -0.935781 7.466284 0
M  V30 5 N 4.791931 1.250937 5.403325 0
M  V30 6 C 3.909755 1.001698 4.307649 0
M  V30 7 O 2.901742 0.313078 4.662120 0
M  V30 8 C 4.177324 1.499221 2.961617 0
M  V30 9 C 5.275892 2.249535 2.572139 0
M  V30 10 C 5.352462 2.628113 1.247224 0
M  V30 11 C 4.415383 2.311903 0.291560 0
M  V30 12 C 3.346080 1.571086 0.712531 0
M  V30 13 C 2.312874 1.200682 -0.254267 0
M  V30 14 C 1.165266 0.461942 -0.024503 0
M  V30 15 C 0.527229 0.392536 -1.254119 0
M  V30 16 C -0.742226 -0.311468 -1.449970 0
M  V30 17 C -1.403478 -0.963087 -0.415527 0
M  V30 18 C -2.598730 -1.601405 -0.696549 0
M  V30 19 C -3.158595 -1.617594 -1.955540 0
M  V30 20 N -4.387472 -2.275203 -2.236107 0
M  V30 21 C -5.233171 -3.003232 -1.314503 0
M  V30 22 C -5.395907 -4.450746 -1.705235 0
M  V30 23 N -5.734033 -4.574524 -3.102975 0
M  V30 24 C -4.639330 -5.226136 -3.776382 0
M  V30 25 C -6.051616 -3.285986 -3.677342 0
M  V30 26 C -4.952000 -2.280417 -3.566324 0
M  V30 27 C -2.514921 -0.975918 -2.992068 0
M  V30 28 C -1.307293 -0.330318 -2.710854 0
M  V30 29 O 1.256840 1.050105 -2.147564 0
M  V30 30 N 2.320496 1.535594 -1.568276 0
M  V30 31 C 3.199698 1.154413 2.024010 0
M  V30 32 H 3.942972 2.742407 7.182805 0
M  V30 33 H 3.726751 1.591999 8.534855 0
M  V30 34 H 5.422936 2.167346 8.151730 0
M  V30 35 H 3.584758 0.191543 6.760660 0
M  V30 36 H 5.662254 1.803745 5.264023 0
M  V30 37 H 5.981179 2.477103 3.332439 0
M  V30 38 H 6.233236 3.216465 0.987473 0
M  V30 39 H 4.513484 2.631805 -0.749318 0
M  V30 40 H 0.850649 0.037746 0.920060 0
M  V30 41 H -0.948660 -0.939743 0.566823 0
M  V30 42 H -3.076459 -2.093593 0.135895 0
M  V30 43 H -4.871709 -2.952965 -0.269548 0
M  V30 44 H -6.266158 -2.559059 -1.396500 0
M  V30 45 H -6.251833 -4.865547 -1.119823 0
M  V30 46 H -4.516327 -5.079541 -1.455983 0
M  V30 47 H -3.959985 -4.437695 -4.161201 0
M  V30 48 H -4.087007 -5.836903 -3.038603 0
M  V30 49 H -4.997151 -5.894780 -4.589850 0
M  V30 50 H -6.224531 -3.465301 -4.770558 0
M  V30 51 H -7.009748 -2.947448 -3.272258 0
M  V30 52 H -4.199150 -2.411696 -4.365778 0
M  V30 53 H -5.422928 -1.274048 -3.710242 0
M  V30 54 H -2.853120 -0.921442 -4.008832 0
M  V30 55 H -0.768712 0.190661 -3.515120 0
M  V30 56 H 2.320304 0.568242 2.277926 0
M  V30 END ATOM
M  V30 BEGIN BOND
M  V30 1 1 1 2
M  V30 2 1 2 3
M  V30 3 3 3 4
M  V30 4 1 2 5
M  V30 5 1 5 6
M  V30 6 2 6 7
M  V30 7 1 6 8
M  V30 8 2 8 9
M  V30 9 1 9 10
M  V30 10 2 10 11
M  V30 11 1 11 12
M  V30 12 1 12 13
M  V30 13 1 13 14
M  V30 14 2 14 15
M  V30 15 1 15 16
M  V30 16 2 16 17
M  V30 17 1 17 18
M  V30 18 2 18 19
M  V30 19 1 19 20
M  V30 20 1 20 21
M  V30 21 1 21 22
M  V30 22 1 22 23
M  V30 23 1 23 24
M  V30 24 1 23 25
M  V30 25 1 25 26
M  V30 26 1 19 27
M  V30 27 2 27 28
M  V30 28 1 15 29
M  V30 29 1 29 30
M  V30 30 2 12 31
M  V30 31 1 31 8
M  V30 32 2 30 13
M  V30 33 1 28 16
M  V30 34 1 26 20
M  V30 35 1 1 32
M  V30 36 1 1 33
M  V30 37 1 1 34
M  V30 38 1 2 35 CFG=3
M  V30 39 1 5 36
M  V30 40 1 9 37
M  V30 41 1 10 38
M  V30 42 1 11 39
M  V30 43 1 14 40
M  V30 44 1 17 41
M  V30 45 1 18 42
M  V30 46 1 21 43
M  V30 47 1 21 44
M  V30 48 1 22 45
M  V30 49 1 22 46
M  V30 50 1 24 47
M  V30 51 1 24 48
M  V30 52 1 24 49
M  V30 53 1 25 50
M  V30 54 1 25 51
M  V30 55 1 26 52
M  V30 56 1 26 53
M  V30 57 1 27 54
M  V30 58 1 28 55
M  V30 59 1 31 56
M  V30 END BOND
M  V30 END CTAB
M  END
>  <Dataset>  (452) 
ChEMBL_Kinases

>  <Ligand_Instance>  (452) 
nan

>  <PDB_ID>  (452) 
nan

>  <Standardized_SMILES>  (452) 
C[C@H](C#N)NC(=O)c1cccc(-c2cc(-c3ccc(N4CCN(C)CC4)cc3)on2)c1

>  <Name>  (452) 
nan

>  <Pocket>  (452) 
nan

>  <ATP_Site>  (452) 
nan

>  <Peripheral>  (452) 
nan

>  <Num_H_Atoms_ProtBoundConf>  (452) 
nan

>  <Num_Resolved_Atoms>  (452) 
nan

>  <Num_Not_Resolved_Atoms>  (452) 
nan

$$$$
CHEMBL1683432
     RDKit          3D

  0  0  0  0  0  0  0  0  0  0999 V3000
M  V30 BEGIN CTAB
M  V30 COUNTS 56 59 0 0 0
M  V30 BEGIN ATOM
M  V30 1 C 2.834031 0.655688 6.726923 0
M  V30 2 C 3.959902 0.041344 5.908549 0 CFG=1
M  V30 3 C 3.864412 -1.399856 6.040508 0
M  V30 4 N 3.781138 -2.536890 6.126261 0
M  V30 5 N 3.867359 0.446311 4.523162 0
M  V30 6 C 4.847086 1.200512 3.850034 0
M  V30 7 O 5.872178 1.546310 4.494726 0
M  V30 8 C 4.755730 1.610093 2.452142 0
M  V30 9 C 5.814115 2.350577 1.941717 0
M  V30 10 C 5.804056 2.782088 0.610707 0
M  V30 11 C 4.714580 2.460840 -0.207281 0
M  V30 12 C 3.691594 1.723247 0.352603 0
M  V30 13 C 2.550205 1.383656 -0.498173 0
M  V30 14 C 1.419725 0.660911 -0.162041 0
M  V30 15 C 0.630019 0.606882 -1.304211 0
M  V30 16 C -0.669500 -0.076613 -1.368275 0
M  V30 17 C -1.219917 -0.730367 -0.277589 0
M  V30 18 C -2.445926 -1.353648 -0.406273 0
M  V30 19 C -3.155321 -1.354702 -1.584904 0
M  V30 20 N -4.401323 -1.991866 -1.698530 0
M  V30 21 C -5.098476 -2.669858 -0.630484 0
M  V30 22 C -5.077286 -4.177963 -0.836151 0
M  V30 23 N -5.182801 -4.462828 -2.255097 0
M  V30 24 C -3.896377 -4.769579 -2.798796 0
M  V30 25 C -5.888263 -3.403149 -2.950671 0
M  V30 26 C -5.193365 -2.077011 -2.903463 0
M  V30 27 C -2.582409 -0.697519 -2.648246 0
M  V30 28 C -1.356659 -0.058280 -2.569278 0
M  V30 29 O 1.266420 1.260415 -2.246565 0
M  V30 30 N 2.393940 1.727398 -1.806313 0
M  V30 31 C 3.673468 1.284129 1.660329 0
M  V30 32 H 2.376891 1.456453 6.095081 0
M  V30 33 H 2.045423 -0.086634 6.899443 0
M  V30 34 H 3.195009 1.122486 7.652269 0
M  V30 35 H 4.919965 0.420566 6.349889 0
M  V30 36 H 3.015845 0.150241 4.013534 0
M  V30 37 H 6.680395 2.638696 2.492936 0
M  V30 38 H 6.611796 3.361168 0.179267 0
M  V30 39 H 4.665767 2.772610 -1.236868 0
M  V30 40 H 1.240608 0.241083 0.824372 0
M  V30 41 H -0.661416 -0.728491 0.646934 0
M  V30 42 H -2.791995 -1.834928 0.493379 0
M  V30 43 H -4.703715 -2.488450 0.372069 0
M  V30 44 H -6.185752 -2.381425 -0.575946 0
M  V30 45 H -4.169375 -4.642486 -0.414774 0
M  V30 46 H -5.943795 -4.605986 -0.324676 0
M  V30 47 H -3.131696 -4.620036 -2.012954 0
M  V30 48 H -3.882756 -5.807539 -3.187024 0
M  V30 49 H -3.658236 -4.047565 -3.606494 0
M  V30 50 H -6.019999 -3.770820 -3.993062 0
M  V30 51 H -6.872484 -3.317100 -2.463506 0
M  V30 52 H -4.619376 -1.873402 -3.824549 0
M  V30 53 H -5.966806 -1.286623 -2.816293 0
M  V30 54 H -3.039825 -0.627098 -3.623829 0
M  V30 55 H -0.906663 0.459720 -3.410309 0
M  V30 56 H 2.853360 0.709423 2.058641 0
M  V30 END ATOM
M  V30 BEGIN BOND
M  V30 1 1 1 2
M  V30 2 1 2 3
M  V30 3 3 3 4
M  V30 4 1 2 5
M  V30 5 1 5 6
M  V30 6 2 6 7
M  V30 7 1 6 8
M  V30 8 2 8 9
M  V30 9 1 9 10
M  V30 10 2 10 11
M  V30 11 1 11 12
M  V30 12 1 12 13
M  V30 13 1 13 14
M  V30 14 2 14 15
M  V30 15 1 15 16
M  V30 16 2 16 17
M  V30 17 1 17 18
M  V30 18 2 18 19
M  V30 19 1 19 20
M  V30 20 1 20 21
M  V30 21 1 21 22
M  V30 22 1 22 23
M  V30 23 1 23 24
M  V30 24 1 23 25
M  V30 25 1 25 26
M  V30 26 1 19 27
M  V30 27 2 27 28
M  V30 28 1 15 29
M  V30 29 1 29 30
M  V30 30 2 12 31
M  V30 31 1 31 8
M  V30 32 2 30 13
M  V30 33 1 28 16
M  V30 34 1 26 20
M  V30 35 1 1 32
M  V30 36 1 1 33
M  V30 37 1 1 34
M  V30 38 1 2 35 CFG=1
M  V30 39 1 5 36
M  V30 40 1 9 37
M  V30 41 1 10 38
M  V30 42 1 11 39
M  V30 43 1 14 40
M  V30 44 1 17 41
M  V30 45 1 18 42
M  V30 46 1 21 43
M  V30 47 1 21 44
M  V30 48 1 22 45
M  V30 49 1 22 46
M  V30 50 1 24 47
M  V30 51 1 24 48
M  V30 52 1 24 49
M  V30 53 1 25 50
M  V30 54 1 25 51
M  V30 55 1 26 52
M  V30 56 1 26 53
M  V30 57 1 27 54
M  V30 58 1 28 55
M  V30 59 1 31 56
M  V30 END BOND
M  V30 END CTAB
M  END
>  <Dataset>  (453) 
ChEMBL_Kinases

>  <Ligand_Instance>  (453) 
nan

>  <PDB_ID>  (453) 
nan

>  <Standardized_SMILES>  (453) 
C[C@@H](C#N)NC(=O)c1cccc(-c2cc(-c3ccc(N4CCN(C)CC4)cc3)on2)c1

>  <Name>  (453) 
nan

>  <Pocket>  (453) 
nan

>  <ATP_Site>  (453) 
nan

>  <Peripheral>  (453) 
nan

>  <Num_H_Atoms_ProtBoundConf>  (453) 
nan

>  <Num_Resolved_Atoms>  (453) 
nan

>  <Num_Not_Resolved_Atoms>  (453) 
nan

$$$$
CHEMBL1683433
     RDKit          3D

  0  0  0  0  0  0  0  0  0  0999 V3000
M  V30 BEGIN CTAB
M  V30 COUNTS 56 58 0 0 0
M  V30 BEGIN ATOM
M  V30 1 C 6.570802 -3.967884 5.882078 0
M  V30 2 C 6.398488 -2.469270 5.746197 0
M  V30 3 C 6.336216 -1.909084 7.163680 0
M  V30 4 N 5.220236 -2.083039 5.025461 0
M  V30 5 C 5.259863 -2.627132 3.685465 0
M  V30 6 C 4.060171 -2.252453 2.897346 0
M  V30 7 C 3.954410 -1.117180 2.112701 0
M  V30 8 C 2.814498 -0.811171 1.396275 0
M  V30 9 C 1.724162 -1.657067 1.449802 0
M  V30 10 C 0.487870 -1.376416 0.705177 0
M  V30 11 C 0.232566 -0.293027 -0.117321 0
M  V30 12 C -1.044109 -0.389573 -0.634879 0
M  V30 13 C -1.718692 0.538321 -1.546812 0
M  V30 14 C -1.099662 1.681794 -2.011000 0
M  V30 15 C -1.826469 2.497445 -2.874128 0
M  V30 16 C -3.114940 2.184038 -3.256315 0
M  V30 17 C -3.742386 1.041512 -2.796535 0
M  V30 18 C -5.095807 0.609749 -3.131305 0
M  V30 19 O -5.602973 -0.460736 -2.657335 0
M  V30 20 N -5.896496 1.370576 -3.999942 0
M  V30 21 C -7.232284 0.891720 -4.295828 0
M  V30 22 C -8.297872 1.888447 -3.902163 0
M  V30 23 C -7.308097 0.663482 -5.790695 0
M  V30 24 C -3.008403 0.242431 -1.940980 0
M  V30 25 N -1.540210 -1.533054 -0.114874 0
M  V30 26 N -0.655005 -2.121872 0.671582 0
M  V30 27 C 1.750276 -2.815808 2.213558 0
M  V30 28 C 2.928374 -3.051580 2.901720 0
M  V30 29 H 6.802952 -4.270717 6.924938 0
M  V30 30 H 7.427967 -4.335645 5.278427 0
M  V30 31 H 5.633470 -4.513281 5.619090 0
M  V30 32 H 7.326911 -2.083480 5.234337 0
M  V30 33 H 6.447282 -2.697262 7.938712 0
M  V30 34 H 5.307091 -1.492369 7.339763 0
M  V30 35 H 7.092480 -1.109808 7.292585 0
M  V30 36 H 4.405806 -2.431932 5.577477 0
M  V30 37 H 6.189588 -2.246578 3.225083 0
M  V30 38 H 5.231343 -3.731526 3.773497 0
M  V30 39 H 4.822669 -0.460143 2.080935 0
M  V30 40 H 2.747441 0.078321 0.788594 0
M  V30 41 H 0.893628 0.517260 -0.344933 0
M  V30 42 H -0.096574 1.876122 -1.680913 0
M  V30 43 H -1.350555 3.396715 -3.244063 0
M  V30 44 H -3.693481 2.808867 -3.927496 0
M  V30 45 H -5.588732 2.261451 -4.446586 0
M  V30 46 H -7.468047 -0.051717 -3.780910 0
M  V30 47 H -9.259944 1.495159 -4.309134 0
M  V30 48 H -8.116277 2.900458 -4.265880 0
M  V30 49 H -8.458156 1.874749 -2.789697 0
M  V30 50 H -8.015961 -0.154036 -6.039107 0
M  V30 51 H -6.289859 0.418567 -6.149089 0
M  V30 52 H -7.647199 1.639958 -6.239084 0
M  V30 53 H -3.467354 -0.674113 -1.551872 0
M  V30 54 H -0.744518 -3.015037 1.213391 0
M  V30 55 H 0.951104 -3.524606 2.310494 0
M  V30 56 H 2.985906 -3.954407 3.513354 0
M  V30 END ATOM
M  V30 BEGIN BOND
M  V30 1 1 1 2
M  V30 2 1 2 3
M  V30 3 1 2 4
M  V30 4 1 4 5
M  V30 5 1 5 6
M  V30 6 2 6 7
M  V30 7 1 7 8
M  V30 8 2 8 9
M  V30 9 1 9 10
M  V30 10 2 10 11
M  V30 11 1 11 12
M  V30 12 1 12 13
M  V30 13 2 13 14
M  V30 14 1 14 15
M  V30 15 2 15 16
M  V30 16 1 16 17
M  V30 17 1 17 18
M  V30 18 2 18 19
M  V30 19 1 18 20
M  V30 20 1 20 21
M  V30 21 1 21 22
M  V30 22 1 21 23
M  V30 23 2 17 24
M  V30 24 2 12 25
M  V30 25 1 25 26
M  V30 26 1 9 27
M  V30 27 2 27 28
M  V30 28 1 28 6
M  V30 29 1 26 10
M  V30 30 1 24 13
M  V30 31 1 1 29
M  V30 32 1 1 30
M  V30 33 1 1 31
M  V30 34 1 2 32
M  V30 35 1 3 33
M  V30 36 1 3 34
M  V30 37 1 3 35
M  V30 38 1 4 36
M  V30 39 1 5 37
M  V30 40 1 5 38
M  V30 41 1 7 39
M  V30 42 1 8 40
M  V30 43 1 11 41
M  V30 44 1 14 42
M  V30 45 1 15 43
M  V30 46 1 16 44
M  V30 47 1 20 45
M  V30 48 1 21 46
M  V30 49 1 22 47
M  V30 50 1 22 48
M  V30 51 1 22 49
M  V30 52 1 23 50
M  V30 53 1 23 51
M  V30 54 1 23 52
M  V30 55 1 24 53
M  V30 56 1 26 54
M  V30 57 1 27 55
M  V30 58 1 28 56
M  V30 END BOND
M  V30 END CTAB
M  END
>  <Dataset>  (454) 
ChEMBL_Kinases

>  <Ligand_Instance>  (454) 
nan

>  <PDB_ID>  (454) 
nan

>  <Standardized_SMILES>  (454) 
CC(C)NCc1ccc(-c2cc(-c3cccc(C(=O)NC(C)C)c3)n[nH]2)cc1

>  <Name>  (454) 
nan

>  <Pocket>  (454) 
nan

>  <ATP_Site>  (454) 
nan

>  <Peripheral>  (454) 
nan

>  <Num_H_Atoms_ProtBoundConf>  (454) 
nan

>  <Num_Resolved_Atoms>  (454) 
nan

>  <Num_Not_Resolved_Atoms>  (454) 
nan

$$$$
CHEMBL1683434
     RDKit          3D

  0  0  0  0  0  0  0  0  0  0999 V3000
M  V30 BEGIN CTAB
M  V30 COUNTS 53 55 0 0 0
M  V30 BEGIN ATOM
M  V30 1 C 1.034074 2.013796 5.570402 0
M  V30 2 C 2.189873 1.061542 5.368770 0
M  V30 3 C 1.719424 -0.315146 5.819453 0
M  V30 4 N 2.574392 1.013425 3.984289 0
M  V30 5 C 3.816843 1.322782 3.391807 0
M  V30 6 O 4.789839 1.704462 4.091834 0
M  V30 7 C 4.030744 1.215929 1.952988 0
M  V30 8 C 5.300760 1.546371 1.465919 0
M  V30 9 C 5.508027 1.444667 0.086982 0
M  V30 10 C 4.551558 1.042990 -0.822119 0
M  V30 11 C 3.319097 0.729478 -0.289712 0
M  V30 12 C 2.248376 0.294359 -1.185906 0
M  V30 13 C 0.962409 -0.056232 -0.826383 0
M  V30 14 C 0.280370 -0.402947 -1.977900 0
M  V30 15 C -1.118752 -0.832117 -1.985253 0
M  V30 16 C -1.868858 -0.923041 -0.827558 0
M  V30 17 C -3.180324 -1.326792 -0.846669 0
M  V30 18 C -3.816728 -1.661783 -2.016739 0
M  V30 19 C -5.231036 -2.095382 -2.022241 0
M  V30 20 N -5.383685 -3.510319 -1.874450 0
M  V30 21 C -4.821991 -3.974401 -0.644739 0
M  V30 22 C -5.004469 -5.478230 -0.526663 0
M  V30 23 F -4.354299 -6.073608 -1.601475 0
M  V30 24 F -4.383810 -5.888696 0.633763 0
M  V30 25 F -6.332644 -5.799736 -0.482591 0
M  V30 26 C -3.074418 -1.574032 -3.180991 0
M  V30 27 C -1.736905 -1.165218 -3.186167 0
M  V30 28 N 1.159925 -0.256609 -3.004000 0
M  V30 29 N 2.332590 0.160062 -2.522305 0
M  V30 30 C 3.065346 0.814064 1.065119 0
M  V30 31 H 0.650714 2.390916 4.602614 0
M  V30 32 H 0.179906 1.534951 6.070564 0
M  V30 33 H 1.321996 2.905559 6.173971 0
M  V30 34 H 3.002742 1.389734 6.031715 0
M  V30 35 H 1.359322 -0.282594 6.860242 0
M  V30 36 H 0.907322 -0.641355 5.156066 0
M  V30 37 H 2.601329 -0.995530 5.749830 0
M  V30 38 H 1.766837 0.701077 3.440337 0
M  V30 39 H 6.133463 1.876096 2.090570 0
M  V30 40 H 6.487101 1.698847 -0.293191 0
M  V30 41 H 4.794900 0.991373 -1.875049 0
M  V30 42 H 0.535927 -0.065501 0.186141 0
M  V30 43 H -1.425449 -0.672862 0.127677 0
M  V30 44 H -3.721382 -1.379436 0.096408 0
M  V30 45 H -5.774685 -1.607646 -1.176255 0
M  V30 46 H -5.688911 -1.715420 -2.944265 0
M  V30 47 H -5.147821 -4.059534 -2.708584 0
M  V30 48 H -3.738341 -3.741235 -0.534154 0
M  V30 49 H -5.369585 -3.499777 0.198506 0
M  V30 50 H -3.581288 -1.839692 -4.103286 0
M  V30 51 H -1.194158 -1.113508 -4.141235 0
M  V30 52 H 0.829671 -0.474454 -3.978683 0
M  V30 53 H 2.080729 0.556370 1.430198 0
M  V30 END ATOM
M  V30 BEGIN BOND
M  V30 1 1 1 2
M  V30 2 1 2 3
M  V30 3 1 2 4
M  V30 4 1 4 5
M  V30 5 2 5 6
M  V30 6 1 5 7
M  V30 7 2 7 8
M  V30 8 1 8 9
M  V30 9 2 9 10
M  V30 10 1 10 11
M  V30 11 1 11 12
M  V30 12 1 12 13
M  V30 13 2 13 14
M  V30 14 1 14 15
M  V30 15 2 15 16
M  V30 16 1 16 17
M  V30 17 2 17 18
M  V30 18 1 18 19
M  V30 19 1 19 20
M  V30 20 1 20 21
M  V30 21 1 21 22
M  V30 22 1 22 23
M  V30 23 1 22 24
M  V30 24 1 22 25
M  V30 25 1 18 26
M  V30 26 2 26 27
M  V30 27 1 14 28
M  V30 28 1 28 29
M  V30 29 2 11 30
M  V30 30 1 30 7
M  V30 31 2 29 12
M  V30 32 1 27 15
M  V30 33 1 1 31
M  V30 34 1 1 32
M  V30 35 1 1 33
M  V30 36 1 2 34
M  V30 37 1 3 35
M  V30 38 1 3 36
M  V30 39 1 3 37
M  V30 40 1 4 38
M  V30 41 1 8 39
M  V30 42 1 9 40
M  V30 43 1 10 41
M  V30 44 1 13 42
M  V30 45 1 16 43
M  V30 46 1 17 44
M  V30 47 1 19 45
M  V30 48 1 19 46
M  V30 49 1 20 47
M  V30 50 1 21 48
M  V30 51 1 21 49
M  V30 52 1 26 50
M  V30 53 1 27 51
M  V30 54 1 28 52
M  V30 55 1 30 53
M  V30 END BOND
M  V30 END CTAB
M  END
>  <Dataset>  (455) 
ChEMBL_Kinases

>  <Ligand_Instance>  (455) 
nan

>  <PDB_ID>  (455) 
nan

>  <Standardized_SMILES>  (455) 
CC(C)NC(=O)c1cccc(-c2cc(-c3ccc(CNCC(F)(F)F)cc3)[nH]n2)c1

>  <Name>  (455) 
nan

>  <Pocket>  (455) 
nan

>  <ATP_Site>  (455) 
nan

>  <Peripheral>  (455) 
nan

>  <Num_H_Atoms_ProtBoundConf>  (455) 
nan

>  <Num_Resolved_Atoms>  (455) 
nan

>  <Num_Not_Resolved_Atoms>  (455) 
nan

$$$$
CHEMBL1683435
     RDKit          3D

  0  0  0  0  0  0  0  0  0  0999 V3000
M  V30 BEGIN CTAB
M  V30 COUNTS 54 56 0 0 0
M  V30 BEGIN ATOM
M  V30 1 C 5.286593 0.125717 5.504329 0
M  V30 2 C 5.379162 -1.173116 4.730160 0
M  V30 3 C 4.027103 -1.795167 4.496560 0
M  V30 4 N 6.218700 -1.095609 3.592963 0
M  V30 5 C 5.967189 -0.100650 2.622530 0
M  V30 6 C 4.638159 -0.192670 2.005039 0
M  V30 7 C 3.477232 0.443235 2.395518 0
M  V30 8 C 2.266984 0.294983 1.748362 0
M  V30 9 C 2.186149 -0.530824 0.644743 0
M  V30 10 C 0.914459 -0.702943 -0.056664 0
M  V30 11 C -0.279404 -0.090901 0.289701 0
M  V30 12 C -1.293475 -0.459731 -0.570574 0
M  V30 13 C -2.671425 0.018104 -0.467899 0
M  V30 14 C -3.059257 0.894409 0.525062 0
M  V30 15 C -4.359831 1.342207 0.617633 0
M  V30 16 C -5.300373 0.901340 -0.309340 0
M  V30 17 C -4.906620 0.015779 -1.312078 0
M  V30 18 C -5.939640 -0.404938 -2.248077 0
M  V30 19 O -7.109533 0.048446 -2.101670 0
M  V30 20 N -5.696048 -1.294683 -3.310544 0
M  V30 21 C -6.672226 -1.758409 -4.281041 0 CFG=2
M  V30 22 C -6.839095 -3.258985 -4.008898 0
M  V30 23 C -6.295107 -1.508808 -5.654533 0
M  V30 24 N -6.002246 -1.310790 -6.742683 0
M  V30 25 C -3.617297 -0.408023 -1.377626 0
M  V30 26 N -0.692056 -1.298955 -1.434722 0
M  V30 27 N 0.588595 -1.438220 -1.134294 0
M  V30 28 C 3.295665 -1.209043 0.179960 0
M  V30 29 C 4.468525 -1.009693 0.879482 0
M  V30 30 H 5.525744 0.009848 6.580290 0
M  V30 31 H 5.962985 0.912503 5.132778 0
M  V30 32 H 4.200677 0.435797 5.495740 0
M  V30 33 H 5.916181 -1.878354 5.452286 0
M  V30 34 H 3.173726 -1.141441 4.770634 0
M  V30 35 H 3.932699 -2.187429 3.469088 0
M  V30 36 H 3.908956 -2.698466 5.159044 0
M  V30 37 H 7.209884 -1.378138 3.719974 0
M  V30 38 H 6.183583 0.912004 3.032742 0
M  V30 39 H 6.707889 -0.199352 1.774040 0
M  V30 40 H 3.578928 1.090827 3.274688 0
M  V30 41 H 1.417424 0.839848 2.137422 0
M  V30 42 H -0.362220 0.588677 1.141421 0
M  V30 43 H -2.296294 1.227791 1.245403 0
M  V30 44 H -4.554915 2.027747 1.435179 0
M  V30 45 H -6.309730 1.289774 -0.184297 0
M  V30 46 H -4.742970 -1.694082 -3.468765 0
M  V30 47 H -7.687478 -1.332267 -4.116016 0
M  V30 48 H -7.519981 -3.445955 -3.168723 0
M  V30 49 H -7.137006 -3.725544 -4.968595 0
M  V30 50 H -5.840246 -3.669693 -3.761972 0
M  V30 51 H -3.302061 -1.096728 -2.154148 0
M  V30 52 H 1.282721 -2.037474 -1.651926 0
M  V30 53 H 3.302757 -1.869629 -0.675988 0
M  V30 54 H 5.358822 -1.545779 0.517005 0
M  V30 END ATOM
M  V30 BEGIN BOND
M  V30 1 1 1 2
M  V30 2 1 2 3
M  V30 3 1 2 4
M  V30 4 1 4 5
M  V30 5 1 5 6
M  V30 6 2 6 7
M  V30 7 1 7 8
M  V30 8 2 8 9
M  V30 9 1 9 10
M  V30 10 2 10 11
M  V30 11 1 11 12
M  V30 12 1 12 13
M  V30 13 2 13 14
M  V30 14 1 14 15
M  V30 15 2 15 16
M  V30 16 1 16 17
M  V30 17 1 17 18
M  V30 18 2 18 19
M  V30 19 1 18 20
M  V30 20 1 20 21
M  V30 21 1 21 22
M  V30 22 1 21 23
M  V30 23 3 23 24
M  V30 24 2 17 25
M  V30 25 2 12 26
M  V30 26 1 26 27
M  V30 27 1 9 28
M  V30 28 2 28 29
M  V30 29 1 29 6
M  V30 30 1 27 10
M  V30 31 1 25 13
M  V30 32 1 1 30
M  V30 33 1 1 31
M  V30 34 1 1 32
M  V30 35 1 2 33
M  V30 36 1 3 34
M  V30 37 1 3 35
M  V30 38 1 3 36
M  V30 39 1 4 37
M  V30 40 1 5 38
M  V30 41 1 5 39
M  V30 42 1 7 40
M  V30 43 1 8 41
M  V30 44 1 11 42
M  V30 45 1 14 43
M  V30 46 1 15 44
M  V30 47 1 16 45
M  V30 48 1 20 46
M  V30 49 1 21 47 CFG=1
M  V30 50 1 22 48
M  V30 51 1 22 49
M  V30 52 1 22 50
M  V30 53 1 25 51
M  V30 54 1 27 52
M  V30 55 1 28 53
M  V30 56 1 29 54
M  V30 END BOND
M  V30 END CTAB
M  END
>  <Dataset>  (456) 
ChEMBL_Kinases

>  <Ligand_Instance>  (456) 
nan

>  <PDB_ID>  (456) 
nan

>  <Standardized_SMILES>  (456) 
CC(C)NCc1ccc(-c2cc(-c3cccc(C(=O)N[C@H](C)C#N)c3)n[nH]2)cc1

>  <Name>  (456) 
nan

>  <Pocket>  (456) 
nan

>  <ATP_Site>  (456) 
nan

>  <Peripheral>  (456) 
nan

>  <Num_H_Atoms_ProtBoundConf>  (456) 
nan

>  <Num_Resolved_Atoms>  (456) 
nan

>  <Num_Not_Resolved_Atoms>  (456) 
nan

$$$$
CHEMBL1683436
     RDKit          3D

  0  0  0  0  0  0  0  0  0  0999 V3000
M  V30 BEGIN CTAB
M  V30 COUNTS 53 55 0 0 0
M  V30 BEGIN ATOM
M  V30 1 C 3.010057 0.103639 5.591343 0
M  V30 2 C 4.287277 0.761211 5.972220 0
M  V30 3 C 4.682371 0.262633 7.372658 0
M  V30 4 N 5.404802 0.590266 5.142233 0
M  V30 5 C 5.475185 1.149044 3.860846 0
M  V30 6 C 4.379411 0.669569 2.995256 0
M  V30 7 C 3.159296 1.306090 2.773504 0
M  V30 8 C 2.182102 0.792256 1.945523 0
M  V30 9 C 2.399509 -0.406959 1.295458 0
M  V30 10 C 1.403256 -1.006763 0.401607 0
M  V30 11 C 0.176140 -0.414010 0.143971 0
M  V30 12 C -0.525339 -1.222336 -0.730335 0
M  V30 13 C -1.869786 -0.889453 -1.213411 0
M  V30 14 C -2.532992 0.272539 -0.820119 0
M  V30 15 C -3.798304 0.525278 -1.312999 0
M  V30 16 C -4.425212 -0.342266 -2.185436 0
M  V30 17 C -3.803702 -1.502869 -2.599314 0
M  V30 18 C -4.407045 -2.464830 -3.518272 0
M  V30 19 O -3.794586 -3.509577 -3.865870 0
M  V30 20 N -5.685134 -2.285636 -4.060370 0
M  V30 21 C -6.384487 -3.166937 -4.976922 0 CFG=2
M  V30 22 C -6.535037 -2.397861 -6.296180 0
M  V30 23 C -7.678494 -3.595371 -4.505278 0
M  V30 24 N -8.699233 -3.939335 -4.112648 0
M  V30 25 C -2.560902 -1.705663 -2.086511 0
M  V30 26 N 0.303491 -2.258523 -0.959256 0
M  V30 27 O 1.411773 -2.116660 -0.297352 0
M  V30 28 C 3.585068 -1.116463 1.453283 0
M  V30 29 C 4.515913 -0.528069 2.304661 0
M  V30 30 H 2.159855 0.823051 5.398442 0
M  V30 31 H 3.084226 -0.680863 4.818966 0
M  V30 32 H 2.627489 -0.460390 6.500629 0
M  V30 33 H 4.054710 1.865303 6.073476 0
M  V30 34 H 4.889813 -0.804495 7.272441 0
M  V30 35 H 5.592787 0.823801 7.636243 0
M  V30 36 H 3.855800 0.534023 8.043971 0
M  V30 37 H 5.903924 -0.290821 5.290316 0
M  V30 38 H 5.532491 2.275565 3.853782 0
M  V30 39 H 6.429557 0.836994 3.368112 0
M  V30 40 H 3.014836 2.241357 3.293493 0
M  V30 41 H 1.255196 1.323931 1.807149 0
M  V30 42 H -0.171533 0.525061 0.560133 0
M  V30 43 H -2.050671 0.960045 -0.136194 0
M  V30 44 H -4.281894 1.454147 -0.975169 0
M  V30 45 H -5.418003 -0.115720 -2.554741 0
M  V30 46 H -6.270956 -1.453211 -3.833625 0
M  V30 47 H -5.795803 -4.071608 -5.244005 0
M  V30 48 H -7.174319 -3.013756 -6.978035 0
M  V30 49 H -7.058957 -1.431658 -6.153317 0
M  V30 50 H -5.549809 -2.187315 -6.744127 0
M  V30 51 H -2.011082 -2.609712 -2.374746 0
M  V30 52 H 3.835664 -2.056419 0.984815 0
M  V30 53 H 5.457344 -1.064236 2.447300 0
M  V30 END ATOM
M  V30 BEGIN BOND
M  V30 1 1 1 2
M  V30 2 1 2 3
M  V30 3 1 2 4
M  V30 4 1 4 5
M  V30 5 1 5 6
M  V30 6 2 6 7
M  V30 7 1 7 8
M  V30 8 2 8 9
M  V30 9 1 9 10
M  V30 10 2 10 11
M  V30 11 1 11 12
M  V30 12 1 12 13
M  V30 13 2 13 14
M  V30 14 1 14 15
M  V30 15 2 15 16
M  V30 16 1 16 17
M  V30 17 1 17 18
M  V30 18 2 18 19
M  V30 19 1 18 20
M  V30 20 1 20 21
M  V30 21 1 21 22
M  V30 22 1 21 23
M  V30 23 3 23 24
M  V30 24 2 17 25
M  V30 25 2 12 26
M  V30 26 1 26 27
M  V30 27 1 9 28
M  V30 28 2 28 29
M  V30 29 1 29 6
M  V30 30 1 27 10
M  V30 31 1 25 13
M  V30 32 1 1 30
M  V30 33 1 1 31
M  V30 34 1 1 32
M  V30 35 1 2 33
M  V30 36 1 3 34
M  V30 37 1 3 35
M  V30 38 1 3 36
M  V30 39 1 4 37
M  V30 40 1 5 38
M  V30 41 1 5 39
M  V30 42 1 7 40
M  V30 43 1 8 41
M  V30 44 1 11 42
M  V30 45 1 14 43
M  V30 46 1 15 44
M  V30 47 1 16 45
M  V30 48 1 20 46
M  V30 49 1 21 47 CFG=3
M  V30 50 1 22 48
M  V30 51 1 22 49
M  V30 52 1 22 50
M  V30 53 1 25 51
M  V30 54 1 28 52
M  V30 55 1 29 53
M  V30 END BOND
M  V30 END CTAB
M  END
>  <Dataset>  (457) 
ChEMBL_Kinases

>  <Ligand_Instance>  (457) 
nan

>  <PDB_ID>  (457) 
nan

>  <Standardized_SMILES>  (457) 
CC(C)NCc1ccc(-c2cc(-c3cccc(C(=O)N[C@H](C)C#N)c3)no2)cc1

>  <Name>  (457) 
nan

>  <Pocket>  (457) 
nan

>  <ATP_Site>  (457) 
nan

>  <Peripheral>  (457) 
nan

>  <Num_H_Atoms_ProtBoundConf>  (457) 
nan

>  <Num_Resolved_Atoms>  (457) 
nan

>  <Num_Not_Resolved_Atoms>  (457) 
nan

$$$$
CHEMBL1683437
     RDKit          3D

  0  0  0  0  0  0  0  0  0  0999 V3000
M  V30 BEGIN CTAB
M  V30 COUNTS 60 63 0 0 0
M  V30 BEGIN ATOM
M  V30 1 C 5.552656 -1.768888 4.558017 0
M  V30 2 C 6.290666 -1.548187 3.255020 0
M  V30 3 C 6.207010 -2.840898 2.470293 0
M  V30 4 N 5.674208 -0.453448 2.568347 0
M  V30 5 C 6.231485 0.769986 2.159218 0
M  V30 6 O 7.448043 1.017852 2.393585 0
M  V30 7 C 5.459902 1.794045 1.460883 0
M  V30 8 C 6.111483 2.965345 1.102793 0
M  V30 9 C 5.385116 3.944664 0.438366 0
M  V30 10 C 4.049971 3.835991 0.105541 0
M  V30 11 C 3.450710 2.651671 0.484718 0
M  V30 12 C 2.036448 2.448068 0.173507 0
M  V30 13 C 1.272359 1.336882 0.471436 0
M  V30 14 C 0.003411 1.597499 -0.014067 0
M  V30 15 C -1.173352 0.729550 0.052209 0
M  V30 16 C -2.350289 1.194238 -0.501452 0
M  V30 17 C -3.458718 0.340905 -0.422374 0
M  V30 18 C -3.351376 -0.898059 0.184727 0
M  V30 19 C -4.536621 -1.823939 0.275523 0
M  V30 20 N -4.623421 -2.689779 -0.850168 0
M  V30 21 C -5.707620 -3.612356 -0.871530 0
M  V30 22 C -7.065301 -2.997044 -0.845763 0
M  V30 23 C -7.666228 -2.889382 -2.248588 0
M  V30 24 O -6.688026 -2.502078 -3.162658 0
M  V30 25 C -5.831947 -3.573914 -3.385608 0
M  V30 26 C -5.589439 -4.418924 -2.159122 0
M  V30 27 C -2.139114 -1.331103 0.733790 0
M  V30 28 C -1.038432 -0.502058 0.663791 0
M  V30 29 O 0.025071 2.797696 -0.566510 0
M  V30 30 N 1.221346 3.313052 -0.463059 0
M  V30 31 C 4.136083 1.651984 1.146852 0
M  V30 32 H 5.257239 -0.831044 5.066759 0
M  V30 33 H 6.157352 -2.369200 5.291251 0
M  V30 34 H 4.587182 -2.314290 4.388820 0
M  V30 35 H 7.357235 -1.387206 3.486932 0
M  V30 36 H 5.171564 -2.989903 2.149320 0
M  V30 37 H 6.460601 -3.667509 3.164264 0
M  V30 38 H 6.919895 -2.860986 1.624805 0
M  V30 39 H 4.675845 -0.681544 2.387465 0
M  V30 40 H 7.154601 3.131525 1.324981 0
M  V30 41 H 5.908569 4.844870 0.169671 0
M  V30 42 H 3.526479 4.628370 -0.413614 0
M  V30 43 H 1.566799 0.441745 0.972600 0
M  V30 44 H -2.403612 2.170404 -0.970801 0
M  V30 45 H -4.414431 0.668975 -0.849032 0
M  V30 46 H -4.404130 -2.398794 1.215507 0
M  V30 47 H -5.440701 -1.213549 0.380319 0
M  V30 48 H -3.750822 -3.026680 -1.260603 0
M  V30 49 H -5.579563 -4.335202 -0.041573 0
M  V30 50 H -7.736039 -3.740016 -0.322292 0
M  V30 51 H -7.162301 -2.046766 -0.325167 0
M  V30 52 H -8.157181 -3.842920 -2.541165 0
M  V30 53 H -8.446574 -2.101763 -2.204470 0
M  V30 54 H -6.307010 -4.224247 -4.148419 0
M  V30 55 H -4.872023 -3.233183 -3.811125 0
M  V30 56 H -4.577849 -4.864920 -2.242022 0
M  V30 57 H -6.292802 -5.286854 -2.123258 0
M  V30 58 H -2.094327 -2.302450 1.198438 0
M  V30 59 H -0.089963 -0.806846 1.077552 0
M  V30 60 H 3.606560 0.755649 1.412010 0
M  V30 END ATOM
M  V30 BEGIN BOND
M  V30 1 1 1 2
M  V30 2 1 2 3
M  V30 3 1 2 4
M  V30 4 1 4 5
M  V30 5 2 5 6
M  V30 6 1 5 7
M  V30 7 2 7 8
M  V30 8 1 8 9
M  V30 9 2 9 10
M  V30 10 1 10 11
M  V30 11 1 11 12
M  V30 12 1 12 13
M  V30 13 2 13 14
M  V30 14 1 14 15
M  V30 15 2 15 16
M  V30 16 1 16 17
M  V30 17 2 17 18
M  V30 18 1 18 19
M  V30 19 1 19 20
M  V30 20 1 20 21
M  V30 21 1 21 22
M  V30 22 1 22 23
M  V30 23 1 23 24
M  V30 24 1 24 25
M  V30 25 1 25 26
M  V30 26 1 18 27
M  V30 27 2 27 28
M  V30 28 1 14 29
M  V30 29 1 29 30
M  V30 30 2 11 31
M  V30 31 1 31 7
M  V30 32 2 30 12
M  V30 33 1 28 15
M  V30 34 1 26 21
M  V30 35 1 1 32
M  V30 36 1 1 33
M  V30 37 1 1 34
M  V30 38 1 2 35
M  V30 39 1 3 36
M  V30 40 1 3 37
M  V30 41 1 3 38
M  V30 42 1 4 39
M  V30 43 1 8 40
M  V30 44 1 9 41
M  V30 45 1 10 42
M  V30 46 1 13 43
M  V30 47 1 16 44
M  V30 48 1 17 45
M  V30 49 1 19 46
M  V30 50 1 19 47
M  V30 51 1 20 48
M  V30 52 1 21 49
M  V30 53 1 22 50
M  V30 54 1 22 51
M  V30 55 1 23 52
M  V30 56 1 23 53
M  V30 57 1 25 54
M  V30 58 1 25 55
M  V30 59 1 26 56
M  V30 60 1 26 57
M  V30 61 1 27 58
M  V30 62 1 28 59
M  V30 63 1 31 60
M  V30 END BOND
M  V30 END CTAB
M  END
>  <Dataset>  (458) 
ChEMBL_Kinases

>  <Ligand_Instance>  (458) 
nan

>  <PDB_ID>  (458) 
nan

>  <Standardized_SMILES>  (458) 
CC(C)NC(=O)c1cccc(-c2cc(-c3ccc(CNC4CCOCC4)cc3)on2)c1

>  <Name>  (458) 
nan

>  <Pocket>  (458) 
nan

>  <ATP_Site>  (458) 
nan

>  <Peripheral>  (458) 
nan

>  <Num_H_Atoms_ProtBoundConf>  (458) 
nan

>  <Num_Resolved_Atoms>  (458) 
nan

>  <Num_Not_Resolved_Atoms>  (458) 
nan

$$$$
CHEMBL1683429
     RDKit          3D

  0  0  0  0  0  0  0  0  0  0999 V3000
M  V30 BEGIN CTAB
M  V30 COUNTS 56 59 0 0 0
M  V30 BEGIN ATOM
M  V30 1 C 1.753038 -4.731593 6.264824 0
M  V30 2 N 2.763335 -5.158155 5.325473 0
M  V30 3 C 3.817907 -4.202045 5.153755 0
M  V30 4 C 3.863818 -3.537652 3.810107 0
M  V30 5 N 2.558417 -3.391962 3.199612 0
M  V30 6 C 2.296469 -2.346960 2.272541 0
M  V30 7 C 3.246057 -1.445282 1.840138 0
M  V30 8 C 2.997225 -0.426915 0.942232 0
M  V30 9 C 1.720842 -0.285367 0.432524 0
M  V30 10 C 1.432931 0.788169 -0.522015 0
M  V30 11 C 0.199354 1.029027 -1.097455 0
M  V30 12 C 0.380633 2.121916 -1.922341 0
M  V30 13 C -0.639200 2.764038 -2.755302 0
M  V30 14 C -0.276285 3.854788 -3.522515 0
M  V30 15 C -1.300151 4.409846 -4.286582 0
M  V30 16 C -2.583674 3.922926 -4.290872 0
M  V30 17 C -2.914870 2.838434 -3.518913 0
M  V30 18 C -4.285462 2.350272 -3.549209 0
M  V30 19 O -5.106755 2.938280 -4.276312 0
M  V30 20 N -4.739307 1.244150 -2.798763 0
M  V30 21 C -6.138108 0.956787 -2.999283 0
M  V30 22 C -6.608553 -0.230093 -2.189355 0
M  V30 23 F -7.960637 -0.471849 -2.411962 0
M  V30 24 F -5.968078 -1.405322 -2.559389 0
M  V30 25 F -6.429821 -0.056541 -0.851861 0
M  V30 26 C -1.924466 2.261408 -2.747442 0
M  V30 27 N 1.672383 2.491415 -1.820941 0
M  V30 28 N 2.326722 1.684496 -0.968239 0
M  V30 29 C 0.721901 -1.157012 0.825426 0
M  V30 30 C 1.043344 -2.156523 1.730642 0
M  V30 31 C 1.483027 -4.312844 3.517674 0
M  V30 32 C 2.131867 -5.559580 4.098825 0
M  V30 33 H 1.960635 -5.127814 7.296527 0
M  V30 34 H 0.786417 -5.181885 5.960164 0
M  V30 35 H 1.623136 -3.632288 6.245138 0
M  V30 36 H 4.779093 -4.692510 5.408908 0
M  V30 37 H 3.648934 -3.414855 5.917356 0
M  V30 38 H 4.551076 -4.128925 3.157875 0
M  V30 39 H 4.282316 -2.531900 3.954372 0
M  V30 40 H 4.250718 -1.510307 2.202842 0
M  V30 41 H 3.798833 0.255861 0.640428 0
M  V30 42 H -0.725392 0.464095 -0.927944 0
M  V30 43 H 0.728038 4.257297 -3.536597 0
M  V30 44 H -1.034252 5.279477 -4.905515 0
M  V30 45 H -3.326245 4.414015 -4.916412 0
M  V30 46 H -4.092529 0.733704 -2.188163 0
M  V30 47 H -6.309976 0.761858 -4.069890 0
M  V30 48 H -6.788287 1.803121 -2.707193 0
M  V30 49 H -2.160253 1.403257 -2.128514 0
M  V30 50 H 3.348395 1.795631 -0.741890 0
M  V30 51 H -0.268848 -1.029519 0.415557 0
M  V30 52 H 0.209053 -2.785744 1.980264 0
M  V30 53 H 0.894795 -3.860358 4.351462 0
M  V30 54 H 0.863004 -4.590433 2.642023 0
M  V30 55 H 2.792057 -6.045864 3.377912 0
M  V30 56 H 1.278882 -6.222033 4.369112 0
M  V30 END ATOM
M  V30 BEGIN BOND
M  V30 1 1 1 2
M  V30 2 1 2 3
M  V30 3 1 3 4
M  V30 4 1 4 5
M  V30 5 1 5 6
M  V30 6 2 6 7
M  V30 7 1 7 8
M  V30 8 2 8 9
M  V30 9 1 9 10
M  V30 10 2 10 11
M  V30 11 1 11 12
M  V30 12 1 12 13
M  V30 13 2 13 14
M  V30 14 1 14 15
M  V30 15 2 15 16
M  V30 16 1 16 17
M  V30 17 1 17 18
M  V30 18 2 18 19
M  V30 19 1 18 20
M  V30 20 1 20 21
M  V30 21 1 21 22
M  V30 22 1 22 23
M  V30 23 1 22 24
M  V30 24 1 22 25
M  V30 25 2 17 26
M  V30 26 2 12 27
M  V30 27 1 27 28
M  V30 28 1 9 29
M  V30 29 2 29 30
M  V30 30 1 5 31
M  V30 31 1 31 32
M  V30 32 1 32 2
M  V30 33 1 30 6
M  V30 34 1 28 10
M  V30 35 1 26 13
M  V30 36 1 1 33
M  V30 37 1 1 34
M  V30 38 1 1 35
M  V30 39 1 3 36
M  V30 40 1 3 37
M  V30 41 1 4 38
M  V30 42 1 4 39
M  V30 43 1 7 40
M  V30 44 1 8 41
M  V30 45 1 11 42
M  V30 46 1 14 43
M  V30 47 1 15 44
M  V30 48 1 16 45
M  V30 49 1 20 46
M  V30 50 1 21 47
M  V30 51 1 21 48
M  V30 52 1 26 49
M  V30 53 1 28 50
M  V30 54 1 29 51
M  V30 55 1 30 52
M  V30 56 1 31 53
M  V30 57 1 31 54
M  V30 58 1 32 55
M  V30 59 1 32 56
M  V30 END BOND
M  V30 END CTAB
M  END
>  <Dataset>  (459) 
ChEMBL_Kinases

>  <Ligand_Instance>  (459) 
nan

>  <PDB_ID>  (459) 
nan

>  <Standardized_SMILES>  (459) 
CN1CCN(c2ccc(-c3cc(-c4cccc(C(=O)NCC(F)(F)F)c4)n[nH]3)cc2)CC1

>  <Name>  (459) 
nan

>  <Pocket>  (459) 
nan

>  <ATP_Site>  (459) 
nan

>  <Peripheral>  (459) 
nan

>  <Num_H_Atoms_ProtBoundConf>  (459) 
nan

>  <Num_Resolved_Atoms>  (459) 
nan

>  <Num_Not_Resolved_Atoms>  (459) 
nan

$$$$
CHEMBL170518
     RDKit          3D

  0  0  0  0  0  0  0  0  0  0999 V3000
M  V30 BEGIN CTAB
M  V30 COUNTS 58 61 0 0 0
M  V30 BEGIN ATOM
M  V30 1 C 2.414670 -5.772071 1.776558 0
M  V30 2 C 1.315453 -4.984626 1.157377 0
M  V30 3 O 0.129597 -5.420781 1.040848 0
M  V30 4 O 1.545915 -3.723137 0.675292 0
M  V30 5 C 0.563345 -2.889525 0.066170 0 CFG=1
M  V30 6 C -0.623613 -2.539768 0.924653 0
M  V30 7 C -0.264833 -1.453417 1.940312 0 CFG=1
M  V30 8 C 0.925729 -1.894824 2.766042 0
M  V30 9 C -0.033139 -0.183630 1.186014 0 CFG=1
M  V30 10 O 1.186919 0.332435 1.690237 0
M  V30 11 C 0.253832 -0.407442 -0.288733 0 CFG=1
M  V30 12 C 1.041789 0.757668 -0.813992 0
M  V30 13 C 0.960412 2.068534 -0.500744 0
M  V30 14 C 1.886744 3.010075 -1.195708 0
M  V30 15 O 2.650941 3.620681 -0.218236 0
M  V30 16 C 0.032278 2.737398 0.487150 0
M  V30 17 C -1.196898 1.934011 0.497140 0 CFG=2
M  V30 18 O -1.555032 1.565616 -0.777822 0
M  V30 19 C -2.406379 2.570310 1.100370 0
M  V30 20 O -2.804599 3.727080 1.397722 0
M  V30 21 C -3.275192 1.397099 1.363715 0
M  V30 22 C -4.779656 1.288665 1.399330 0
M  V30 23 C -2.452762 0.354431 1.586125 0
M  V30 24 C -1.071238 0.800955 1.478464 0 CFG=1
M  V30 25 C 1.118936 -1.625769 -0.481586 0 CFG=2
M  V30 26 C 0.614461 -2.745252 -1.380746 0
M  V30 27 C -0.575809 -2.366940 -2.217123 0
M  V30 28 C 1.611379 -3.596818 -2.135935 0
M  V30 29 H 3.006713 -5.211292 2.513797 0
M  V30 30 H 1.939563 -6.608731 2.323595 0
M  V30 31 H 3.083563 -6.214814 0.991832 0
M  V30 32 H -0.966382 -3.414360 1.538409 0
M  V30 33 H -1.479240 -2.175956 0.359947 0
M  V30 34 H -1.116755 -1.399859 2.648080 0
M  V30 35 H 1.866071 -1.941340 2.209118 0
M  V30 36 H 1.058249 -1.123608 3.568092 0
M  V30 37 H 0.634708 -2.816840 3.290934 0
M  V30 38 H 1.082092 0.685245 2.597261 0
M  V30 39 H -0.674492 -0.597231 -0.821626 0
M  V30 40 H 1.807044 0.558292 -1.564947 0
M  V30 41 H 2.561198 2.468679 -1.862493 0
M  V30 42 H 1.316176 3.785310 -1.725238 0
M  V30 43 H 2.087611 3.775551 0.578522 0
M  V30 44 H -0.096373 3.771408 0.163867 0
M  V30 45 H 0.517306 2.763812 1.495189 0
M  V30 46 H -2.063147 2.322314 -1.195190 0
M  V30 47 H -5.163845 2.304646 1.613745 0
M  V30 48 H -5.188746 0.996094 0.406304 0
M  V30 49 H -5.056268 0.523390 2.125750 0
M  V30 50 H -2.817868 -0.652357 1.809093 0
M  V30 51 H -0.826062 1.298473 2.462875 0
M  V30 52 H 2.220312 -1.478816 -0.556006 0
M  V30 53 H -1.522626 -2.286467 -1.676521 0
M  V30 54 H -0.756699 -3.115900 -3.023991 0
M  V30 55 H -0.309201 -1.422071 -2.759933 0
M  V30 56 H 2.567506 -3.730620 -1.623053 0
M  V30 57 H 1.089707 -4.560373 -2.382579 0
M  V30 58 H 1.731242 -3.101391 -3.140463 0
M  V30 END ATOM
M  V30 BEGIN BOND
M  V30 1 1 1 2
M  V30 2 2 2 3
M  V30 3 1 2 4
M  V30 4 1 5 4 CFG=3
M  V30 5 1 5 6
M  V30 6 1 6 7
M  V30 7 1 7 8
M  V30 8 1 7 9
M  V30 9 1 9 10 CFG=1
M  V30 10 1 9 11
M  V30 11 1 11 12
M  V30 12 2 12 13
M  V30 13 1 13 14
M  V30 14 1 14 15
M  V30 15 1 13 16
M  V30 16 1 16 17
M  V30 17 1 17 18 CFG=3
M  V30 18 1 17 19
M  V30 19 2 19 20
M  V30 20 1 19 21
M  V30 21 1 21 22
M  V30 22 2 21 23
M  V30 23 1 23 24
M  V30 24 1 11 25
M  V30 25 1 25 26
M  V30 26 1 26 27
M  V30 27 1 26 28
M  V30 28 1 25 5
M  V30 29 1 26 5
M  V30 30 1 24 9
M  V30 31 1 24 17
M  V30 32 1 1 29
M  V30 33 1 1 30
M  V30 34 1 1 31
M  V30 35 1 6 32
M  V30 36 1 6 33
M  V30 37 1 7 34 CFG=1
M  V30 38 1 8 35
M  V30 39 1 8 36
M  V30 40 1 8 37
M  V30 41 1 10 38
M  V30 42 1 11 39 CFG=3
M  V30 43 1 12 40
M  V30 44 1 14 41
M  V30 45 1 14 42
M  V30 46 1 15 43
M  V30 47 1 16 44
M  V30 48 1 16 45
M  V30 49 1 18 46
M  V30 50 1 22 47
M  V30 51 1 22 48
M  V30 52 1 22 49
M  V30 53 1 23 50
M  V30 54 1 24 51 CFG=1
M  V30 55 1 25 52 CFG=3
M  V30 56 1 27 53
M  V30 57 1 27 54
M  V30 58 1 27 55
M  V30 59 1 28 56
M  V30 60 1 28 57
M  V30 61 1 28 58
M  V30 END BOND
M  V30 END CTAB
M  END
>  <Dataset>  (460) 
ChEMBL_Kinases

>  <Ligand_Instance>  (460) 
nan

>  <PDB_ID>  (460) 
nan

>  <Standardized_SMILES>  (460) 
CC(=O)O[C@@]12C[C@@H](C)[C@@]3(O)[C@@H](C=C(CO)C[C@]4(O)C(=O)C(C)=C[C@@H]34)[C@@H]1C2(C)C

>  <Name>  (460) 
PROSTRATIN

>  <Pocket>  (460) 
nan

>  <ATP_Site>  (460) 
nan

>  <Peripheral>  (460) 
nan

>  <Num_H_Atoms_ProtBoundConf>  (460) 
nan

>  <Num_Resolved_Atoms>  (460) 
nan

>  <Num_Not_Resolved_Atoms>  (460) 
nan

$$$$
CHEMBL1703229
     RDKit          3D

  0  0  0  0  0  0  0  0  0  0999 V3000
M  V30 BEGIN CTAB
M  V30 COUNTS 43 46 0 0 0
M  V30 BEGIN ATOM
M  V30 1 O 1.444871 -6.083845 -1.501545 0
M  V30 2 C 2.157380 -5.136115 -1.077927 0
M  V30 3 C 3.559925 -5.403883 -0.805784 0
M  V30 4 C 4.320084 -4.415183 -0.359738 0
M  V30 5 C 3.753051 -3.070549 -0.144209 0
M  V30 6 O 4.526428 -2.192088 0.276028 0
M  V30 7 C 2.357692 -2.774785 -0.407219 0
M  V30 8 C 1.810734 -1.524223 -0.211546 0
M  V30 9 O 2.689383 -0.584683 0.250310 0
M  V30 10 C 0.486040 -1.231394 -0.458021 0
M  V30 11 N -0.068874 0.058219 -0.254479 0
M  V30 12 C -1.429125 0.432018 -0.486648 0
M  V30 13 C -2.099652 1.206743 0.601436 0
M  V30 14 N -1.080873 1.931227 1.335488 0
M  V30 15 C -1.191727 2.154801 2.737086 0
M  V30 16 C -0.285386 2.819249 3.531006 0
M  V30 17 C -0.479525 2.987191 4.883928 0
M  V30 18 C -1.604525 2.482958 5.471816 0
M  V30 19 C -2.500011 1.823948 4.675105 0
M  V30 20 N -2.273481 1.683001 3.366482 0
M  V30 21 C 0.029782 2.391019 0.519207 0
M  V30 22 C 0.814392 1.100413 0.229724 0
M  V30 23 C -0.232947 -2.314537 -0.918957 0
M  V30 24 C 0.259788 -3.576470 -1.130875 0
M  V30 25 O -0.515789 -4.628337 -1.597356 0
M  V30 26 C 1.591691 -3.818063 -0.869071 0
M  V30 27 H 3.946566 -6.385364 -0.969757 0
M  V30 28 H 5.382300 -4.603001 -0.149691 0
M  V30 29 H 3.459045 -0.182783 -0.259814 0
M  V30 30 H -2.084445 -0.464745 -0.630007 0
M  V30 31 H -1.474606 0.960893 -1.473767 0
M  V30 32 H -2.717721 0.570973 1.269776 0
M  V30 33 H -2.816721 1.898413 0.112633 0
M  V30 34 H 0.598593 3.211159 3.049222 0
M  V30 35 H 0.279422 3.523965 5.452367 0
M  V30 36 H -1.796074 2.594079 6.538697 0
M  V30 37 H -3.424683 1.387130 5.048601 0
M  V30 38 H 0.660234 3.124674 1.020859 0
M  V30 39 H -0.362619 2.848789 -0.404189 0
M  V30 40 H 1.139398 0.800889 1.261756 0
M  V30 41 H 1.623892 1.351735 -0.452475 0
M  V30 42 H -1.283313 -2.222426 -1.152467 0
M  V30 43 H -1.193626 -5.110394 -1.027194 0
M  V30 END ATOM
M  V30 BEGIN BOND
M  V30 1 2 1 2
M  V30 2 1 2 3
M  V30 3 2 3 4
M  V30 4 1 4 5
M  V30 5 2 5 6
M  V30 6 1 5 7
M  V30 7 2 7 8
M  V30 8 1 8 9
M  V30 9 1 8 10
M  V30 10 1 10 11
M  V30 11 1 11 12
M  V30 12 1 12 13
M  V30 13 1 13 14
M  V30 14 1 14 15
M  V30 15 2 15 16
M  V30 16 1 16 17
M  V30 17 2 17 18
M  V30 18 1 18 19
M  V30 19 2 19 20
M  V30 20 1 14 21
M  V30 21 1 21 22
M  V30 22 2 10 23
M  V30 23 1 23 24
M  V30 24 1 24 25
M  V30 25 2 24 26
M  V30 26 1 26 2
M  V30 27 1 26 7
M  V30 28 1 22 11
M  V30 29 1 20 15
M  V30 30 1 3 27
M  V30 31 1 4 28
M  V30 32 1 9 29
M  V30 33 1 12 30
M  V30 34 1 12 31
M  V30 35 1 13 32
M  V30 36 1 13 33
M  V30 37 1 16 34
M  V30 38 1 17 35
M  V30 39 1 18 36
M  V30 40 1 19 37
M  V30 41 1 21 38
M  V30 42 1 21 39
M  V30 43 1 22 40
M  V30 44 1 22 41
M  V30 45 1 23 42
M  V30 46 1 25 43
M  V30 END BOND
M  V30 END CTAB
M  END
>  <Dataset>  (461) 
ChEMBL_Kinases

>  <Ligand_Instance>  (461) 
nan

>  <PDB_ID>  (461) 
nan

>  <Standardized_SMILES>  (461) 
O=C1C=CC(=O)c2c(O)c(N3CCN(c4ccccn4)CC3)cc(O)c21

>  <Name>  (461) 
nan

>  <Pocket>  (461) 
nan

>  <ATP_Site>  (461) 
nan

>  <Peripheral>  (461) 
nan

>  <Num_H_Atoms_ProtBoundConf>  (461) 
nan

>  <Num_Resolved_Atoms>  (461) 
nan

>  <Num_Not_Resolved_Atoms>  (461) 
nan

$$$$
CHEMBL17031
     RDKit          3D

  0  0  0  0  0  0  0  0  0  0999 V3000
M  V30 BEGIN CTAB
M  V30 COUNTS 37 41 0 0 0
M  V30 BEGIN ATOM
M  V30 1 O -2.250253 -3.052670 2.353235 0
M  V30 2 C -1.459112 -2.710550 1.464835 0
M  V30 3 N -1.235724 -3.687963 0.464604 0
M  V30 4 C -0.297022 -3.142399 -0.503604 0
M  V30 5 C -0.009323 -1.796924 0.036035 0
M  V30 6 C 0.839987 -0.854766 -0.506268 0
M  V30 7 C 1.647646 -0.931734 -1.717245 0
M  V30 8 C 2.990954 -0.538154 -1.639547 0
M  V30 9 C 3.896965 -0.535127 -2.657457 0
M  V30 10 C 3.434884 -0.963573 -3.879465 0
M  V30 11 C 2.125969 -1.367422 -4.038563 0
M  V30 12 C 1.264657 -1.344143 -2.964530 0
M  V30 13 C 0.995532 0.376782 0.142496 0
M  V30 14 C 0.301595 0.629268 1.307548 0
M  V30 15 N 0.271051 1.724274 2.124235 0
M  V30 16 C -0.581589 1.411281 3.115563 0
M  V30 17 C -0.917395 2.241185 4.178947 0
M  V30 18 C -1.804510 1.820941 5.143378 0
M  V30 19 C -2.347814 0.540660 5.011755 0
M  V30 20 C -1.967158 -0.219112 3.934135 0
M  V30 21 C -1.101626 0.146060 2.961538 0
M  V30 22 C -0.538965 -0.327600 1.827057 0
M  V30 23 C -0.690224 -1.523947 1.197411 0
M  V30 24 H -1.583014 -4.655394 0.290539 0
M  V30 25 H -0.721767 -3.163922 -1.508092 0
M  V30 26 H 0.615613 -3.793256 -0.499681 0
M  V30 27 H 3.357237 -0.196698 -0.663409 0
M  V30 28 H 4.914084 -0.210149 -2.488597 0
M  V30 29 H 4.097152 -0.987334 -4.729180 0
M  V30 30 H 1.718593 -1.712523 -4.982909 0
M  V30 31 H 0.235208 -1.652446 -3.067589 0
M  V30 32 H 1.637550 1.180375 -0.202749 0
M  V30 33 H 0.815208 2.614739 1.979321 0
M  V30 34 H -0.507913 3.232567 4.296831 0
M  V30 35 H -2.079638 2.445905 5.975807 0
M  V30 36 H -3.040585 0.223095 5.772385 0
M  V30 37 H -2.428603 -1.175749 3.914198 0
M  V30 END ATOM
M  V30 BEGIN BOND
M  V30 1 2 1 2
M  V30 2 1 2 3
M  V30 3 1 3 4
M  V30 4 1 4 5
M  V30 5 2 5 6
M  V30 6 1 6 7
M  V30 7 2 7 8
M  V30 8 1 8 9
M  V30 9 2 9 10
M  V30 10 1 10 11
M  V30 11 2 11 12
M  V30 12 1 6 13
M  V30 13 2 13 14
M  V30 14 1 14 15
M  V30 15 1 15 16
M  V30 16 2 16 17
M  V30 17 1 17 18
M  V30 18 2 18 19
M  V30 19 1 19 20
M  V30 20 2 20 21
M  V30 21 1 21 22
M  V30 22 2 22 23
M  V30 23 1 23 2
M  V30 24 1 23 5
M  V30 25 1 12 7
M  V30 26 1 22 14
M  V30 27 1 21 16
M  V30 28 1 3 24
M  V30 29 1 4 25
M  V30 30 1 4 26
M  V30 31 1 8 27
M  V30 32 1 9 28
M  V30 33 1 10 29
M  V30 34 1 11 30
M  V30 35 1 12 31
M  V30 36 1 13 32
M  V30 37 1 15 33
M  V30 38 1 17 34
M  V30 39 1 18 35
M  V30 40 1 19 36
M  V30 41 1 20 37
M  V30 END BOND
M  V30 END CTAB
M  END
>  <Dataset>  (462) 
ChEMBL_Kinases

>  <Ligand_Instance>  (462) 
nan

>  <PDB_ID>  (462) 
nan

>  <Standardized_SMILES>  (462) 
O=C1NCc2c(-c3ccccc3)cc3[nH]c4ccccc4c3c21

>  <Name>  (462) 
nan

>  <Pocket>  (462) 
nan

>  <ATP_Site>  (462) 
nan

>  <Peripheral>  (462) 
nan

>  <Num_H_Atoms_ProtBoundConf>  (462) 
nan

>  <Num_Resolved_Atoms>  (462) 
nan

>  <Num_Not_Resolved_Atoms>  (462) 
nan

$$$$
CHEMBL1702690
     RDKit          3D

  0  0  0  0  0  0  0  0  0  0999 V3000
M  V30 BEGIN CTAB
M  V30 COUNTS 31 33 0 0 0
M  V30 BEGIN ATOM
M  V30 1 C -1.533782 -0.323277 2.930093 0
M  V30 2 C -0.302315 0.385397 2.355735 0
M  V30 3 O -0.322402 1.692126 2.774855 0
M  V30 4 C 0.878381 -0.343815 2.917993 0
M  V30 5 C 1.113001 -1.685967 2.291117 0
M  V30 6 N 1.074628 -1.673705 0.856858 0
M  V30 7 C 1.730902 -2.658305 0.072853 0
M  V30 8 O 2.753545 -3.243038 0.567764 0
M  V30 9 C 1.196629 -2.958918 -1.281301 0
M  V30 10 C 1.017284 -1.671597 -2.058349 0
M  V30 11 C 0.355649 -0.679157 -1.174893 0
M  V30 12 C -0.339383 0.318254 -1.853737 0
M  V30 13 C -0.999877 1.305186 -1.149712 0
M  V30 14 C -0.988310 1.328334 0.233761 0
M  V30 15 C -0.301428 0.342020 0.885013 0
M  V30 16 C 0.364998 -0.653066 0.199392 0
M  V30 17 H -1.373315 -0.400899 4.027483 0
M  V30 18 H -1.582248 -1.371458 2.574243 0
M  V30 19 H -2.471373 0.176630 2.696029 0
M  V30 20 H -1.263533 1.947064 2.972981 0
M  V30 21 H 1.765344 0.317225 2.872870 0
M  V30 22 H 0.651633 -0.529080 4.008899 0
M  V30 23 H 0.507536 -2.490914 2.746186 0
M  V30 24 H 2.175299 -1.956411 2.564641 0
M  V30 25 H 0.174142 -3.386585 -1.133629 0
M  V30 26 H 1.837924 -3.680525 -1.827758 0
M  V30 27 H 0.436659 -1.855495 -2.985038 0
M  V30 28 H 2.043951 -1.329645 -2.307948 0
M  V30 29 H -0.397195 0.371614 -2.933361 0
M  V30 30 H -1.539656 2.079591 -1.684638 0
M  V30 31 H -1.508053 2.104104 0.757063 0
M  V30 END ATOM
M  V30 BEGIN BOND
M  V30 1 1 1 2
M  V30 2 1 2 3
M  V30 3 1 2 4
M  V30 4 1 4 5
M  V30 5 1 5 6
M  V30 6 1 6 7
M  V30 7 2 7 8
M  V30 8 1 7 9
M  V30 9 1 9 10
M  V30 10 1 10 11
M  V30 11 1 11 12
M  V30 12 2 12 13
M  V30 13 1 13 14
M  V30 14 2 14 15
M  V30 15 1 15 16
M  V30 16 1 15 2
M  V30 17 1 16 6
M  V30 18 2 16 11
M  V30 19 1 1 17
M  V30 20 1 1 18
M  V30 21 1 1 19
M  V30 22 1 3 20
M  V30 23 1 4 21
M  V30 24 1 4 22
M  V30 25 1 5 23
M  V30 26 1 5 24
M  V30 27 1 9 25
M  V30 28 1 9 26
M  V30 29 1 10 27
M  V30 30 1 10 28
M  V30 31 1 12 29
M  V30 32 1 13 30
M  V30 33 1 14 31
M  V30 END BOND
M  V30 END CTAB
M  END
>  <Dataset>  (463) 
ChEMBL_Kinases

>  <Ligand_Instance>  (463) 
nan

>  <PDB_ID>  (463) 
nan

>  <Standardized_SMILES>  (463) 
CC1(O)CCN2C(=O)CCc3cccc1c32

>  <Name>  (463) 
nan

>  <Pocket>  (463) 
nan

>  <ATP_Site>  (463) 
nan

>  <Peripheral>  (463) 
nan

>  <Num_H_Atoms_ProtBoundConf>  (463) 
nan

>  <Num_Resolved_Atoms>  (463) 
nan

>  <Num_Not_Resolved_Atoms>  (463) 
nan

$$$$
CHEMBL1699836
     RDKit          3D

  0  0  0  0  0  0  0  0  0  0999 V3000
M  V30 BEGIN CTAB
M  V30 COUNTS 28 29 0 0 0
M  V30 BEGIN ATOM
M  V30 1 O 0.313019 -1.286219 3.271809 0
M  V30 2 C 0.320002 -1.011221 2.048053 0
M  V30 3 C 0.326159 -2.079185 1.055370 0
M  V30 4 C 0.335974 -3.456991 1.584103 0
M  V30 5 O -0.814720 -3.699241 2.369422 0
M  V30 6 C 0.333535 -1.867844 -0.241284 0
M  V30 7 C 0.339715 -2.716225 -1.420870 0
M  V30 8 O 0.336725 -4.066562 -1.258595 0
M  V30 9 C 0.335479 -0.449635 -0.665110 0
M  V30 10 O 0.342226 -0.000983 -1.858323 0
M  V30 11 C 0.329428 0.660207 0.310831 0
M  V30 12 C 0.330897 1.996413 -0.031407 0
M  V30 13 O 0.338595 2.320661 -1.380318 0
M  V30 14 C 0.324982 2.989846 0.922798 0
M  V30 15 C 0.317305 2.681548 2.267260 0
M  V30 16 C 0.315599 1.356303 2.649943 0
M  V30 17 O 0.307948 0.979738 3.996301 0
M  V30 18 C 0.321692 0.394916 1.663111 0
M  V30 19 H 1.174550 -3.458169 2.364696 0
M  V30 20 H 0.591873 -4.254830 0.911365 0
M  V30 21 H -1.613616 -3.520843 1.817405 0
M  V30 22 H -0.480783 -2.427680 -2.142555 0
M  V30 23 H 1.297095 -2.467425 -1.982367 0
M  V30 24 H 1.220935 -4.497170 -1.394114 0
M  V30 25 H -0.560619 2.334438 -1.852243 0
M  V30 26 H 0.326347 4.035591 0.617236 0
M  V30 27 H 0.312565 3.444530 3.032962 0
M  V30 28 H 1.182698 0.813045 4.447132 0
M  V30 END ATOM
M  V30 BEGIN BOND
M  V30 1 2 1 2
M  V30 2 1 2 3
M  V30 3 1 3 4
M  V30 4 1 4 5
M  V30 5 2 3 6
M  V30 6 1 6 7
M  V30 7 1 7 8
M  V30 8 1 6 9
M  V30 9 2 9 10
M  V30 10 1 9 11
M  V30 11 2 11 12
M  V30 12 1 12 13
M  V30 13 1 12 14
M  V30 14 2 14 15
M  V30 15 1 15 16
M  V30 16 1 16 17
M  V30 17 2 16 18
M  V30 18 1 18 2
M  V30 19 1 18 11
M  V30 20 1 4 19
M  V30 21 1 4 20
M  V30 22 1 5 21
M  V30 23 1 7 22
M  V30 24 1 7 23
M  V30 25 1 8 24
M  V30 26 1 13 25
M  V30 27 1 14 26
M  V30 28 1 15 27
M  V30 29 1 17 28
M  V30 END BOND
M  V30 END CTAB
M  END
>  <Dataset>  (464) 
ChEMBL_Kinases

>  <Ligand_Instance>  (464) 
nan

>  <PDB_ID>  (464) 
nan

>  <Standardized_SMILES>  (464) 
O=C1C(CO)=C(CO)C(=O)c2c(O)ccc(O)c21

>  <Name>  (464) 
nan

>  <Pocket>  (464) 
nan

>  <ATP_Site>  (464) 
nan

>  <Peripheral>  (464) 
nan

>  <Num_H_Atoms_ProtBoundConf>  (464) 
nan

>  <Num_Resolved_Atoms>  (464) 
nan

>  <Num_Not_Resolved_Atoms>  (464) 
nan

$$$$
CHEMBL16947
     RDKit          3D

  0  0  0  0  0  0  0  0  0  0999 V3000
M  V30 BEGIN CTAB
M  V30 COUNTS 27 28 0 0 0
M  V30 BEGIN ATOM
M  V30 1 O 3.006379 0.033630 0.293692 0
M  V30 2 C 1.757192 -0.118034 0.029348 0
M  V30 3 C 1.095316 -0.512279 1.243697 0
M  V30 4 C -0.135297 -0.803747 1.596376 0
M  V30 5 C -0.654955 -1.195360 2.903928 0
M  V30 6 C -1.994884 -1.462570 3.071603 0
M  V30 7 C -2.414701 -1.826693 4.333897 0
M  V30 8 C -1.467534 -1.897504 5.335796 0
M  V30 9 C -0.121784 -1.632962 5.183913 0
M  V30 10 N 0.227223 -1.279697 3.916400 0
M  V30 11 C 1.428407 0.146834 -1.355361 0
M  V30 12 C 2.478167 0.514755 -2.170498 0
M  V30 13 C 2.284970 0.794181 -3.518290 0
M  V30 14 C 1.013210 0.695392 -4.027729 0
M  V30 15 C -0.070090 0.336837 -3.277683 0
M  V30 16 C 0.197953 0.078747 -1.966875 0
M  V30 17 H 1.670147 -0.630487 2.176433 0
M  V30 18 H -0.844914 -0.737409 0.788365 0
M  V30 19 H -2.707783 -1.401142 2.282436 0
M  V30 20 H -3.453896 -2.038831 4.485085 0
M  V30 21 H -1.826150 -2.190342 6.335527 0
M  V30 22 H 0.580579 -1.702167 5.998883 0
M  V30 23 H 3.507760 0.618479 -1.860516 0
M  V30 24 H 3.097520 1.082015 -4.162385 0
M  V30 25 H 0.889459 0.917942 -5.079030 0
M  V30 26 H -1.053158 0.266102 -3.695762 0
M  V30 27 H -0.643474 -0.200053 -1.383017 0
M  V30 END ATOM
M  V30 BEGIN BOND
M  V30 1 2 1 2
M  V30 2 1 2 3
M  V30 3 2 3 4
M  V30 4 1 4 5
M  V30 5 2 5 6
M  V30 6 1 6 7
M  V30 7 2 7 8
M  V30 8 1 8 9
M  V30 9 2 9 10
M  V30 10 1 2 11
M  V30 11 2 11 12
M  V30 12 1 12 13
M  V30 13 2 13 14
M  V30 14 1 14 15
M  V30 15 2 15 16
M  V30 16 1 10 5
M  V30 17 1 16 11
M  V30 18 1 3 17
M  V30 19 1 4 18
M  V30 20 1 6 19
M  V30 21 1 7 20
M  V30 22 1 8 21
M  V30 23 1 9 22
M  V30 24 1 12 23
M  V30 25 1 13 24
M  V30 26 1 14 25
M  V30 27 1 15 26
M  V30 28 1 16 27
M  V30 END BOND
M  V30 END CTAB
M  END
>  <Dataset>  (465) 
ChEMBL_Kinases

>  <Ligand_Instance>  (465) 
nan

>  <PDB_ID>  (465) 
nan

>  <Standardized_SMILES>  (465) 
O=C(/C=C/c1ccccn1)c1ccccc1

>  <Name>  (465) 
WR-190433

>  <Pocket>  (465) 
nan

>  <ATP_Site>  (465) 
nan

>  <Peripheral>  (465) 
nan

>  <Num_H_Atoms_ProtBoundConf>  (465) 
nan

>  <Num_Resolved_Atoms>  (465) 
nan

>  <Num_Not_Resolved_Atoms>  (465) 
nan

$$$$
CHEMBL1688850
     RDKit          3D

  0  0  0  0  0  0  0  0  0  0999 V3000
M  V30 BEGIN CTAB
M  V30 COUNTS 40 42 0 0 0
M  V30 BEGIN ATOM
M  V30 1 O -3.910824 -5.323074 -0.466790 0
M  V30 2 C -2.755860 -5.156990 -0.005138 0
M  V30 3 O -3.619714 -5.590803 0.960823 0
M  V30 4 C -1.396274 -4.734486 -0.418490 0
M  V30 5 C -1.384588 -4.324085 -1.886215 0
M  V30 6 C 0.010837 -3.915169 -2.294259 0
M  V30 7 N 0.521572 -2.782015 -1.521090 0
M  V30 8 C 0.315698 -1.448310 -2.036989 0
M  V30 9 O -0.266423 -1.077122 -3.086715 0
M  V30 10 C 0.880092 -0.443602 -1.183074 0
M  V30 11 C 1.357540 0.745701 -1.313515 0
M  V30 12 C 1.915458 1.677317 -0.299097 0
M  V30 13 C 3.012915 2.437530 -0.142474 0
M  V30 14 C 2.861182 3.054037 1.080812 0
M  V30 15 C 1.646122 2.623201 1.614818 0
M  V30 16 C 1.176947 3.089091 2.912831 0
M  V30 17 C 1.834657 3.973622 3.735694 0
M  V30 18 C 1.278094 4.329104 4.943510 0
M  V30 19 C 0.047068 3.795828 5.339729 0
M  V30 20 C -0.601846 2.911504 4.509348 0
M  V30 21 Cl -2.148176 2.299320 5.098386 0
M  V30 22 C -0.040483 2.556997 3.297372 0
M  V30 23 O 1.087468 1.776384 0.742591 0
M  V30 24 S 0.882842 -1.246997 0.453339 0
M  V30 25 C 1.236182 -2.891029 -0.268067 0
M  V30 26 S 2.057878 -4.256922 0.124287 0
M  V30 27 H -3.406704 -6.011990 1.849587 0
M  V30 28 H -1.084082 -3.909846 0.244897 0
M  V30 29 H -0.719393 -5.600052 -0.294198 0
M  V30 30 H -2.066641 -3.432539 -1.957923 0
M  V30 31 H -1.724199 -5.109711 -2.557052 0
M  V30 32 H 0.665083 -4.805902 -2.118479 0
M  V30 33 H 0.026292 -3.726955 -3.386234 0
M  V30 34 H 1.337500 1.111895 -2.356489 0
M  V30 35 H 3.748176 2.421102 -0.943653 0
M  V30 36 H 3.641123 3.729462 1.429149 0
M  V30 37 H 2.797123 4.344310 3.358167 0
M  V30 38 H 1.912473 5.033856 5.474215 0
M  V30 39 H -0.256834 4.174618 6.308029 0
M  V30 40 H -0.664801 1.854275 2.764186 0
M  V30 END ATOM
M  V30 BEGIN BOND
M  V30 1 2 1 2
M  V30 2 1 2 3
M  V30 3 1 2 4
M  V30 4 1 4 5
M  V30 5 1 5 6
M  V30 6 1 6 7
M  V30 7 1 7 8
M  V30 8 2 8 9
M  V30 9 1 8 10
M  V30 10 2 10 11
M  V30 11 1 11 12
M  V30 12 2 12 13
M  V30 13 1 13 14
M  V30 14 2 14 15
M  V30 15 1 15 16
M  V30 16 2 16 17
M  V30 17 1 17 18
M  V30 18 2 18 19
M  V30 19 1 19 20
M  V30 20 1 20 21
M  V30 21 2 20 22
M  V30 22 1 15 23
M  V30 23 1 10 24
M  V30 24 1 24 25
M  V30 25 2 25 26
M  V30 26 1 25 7
M  V30 27 1 23 12
M  V30 28 1 22 16
M  V30 29 1 3 27
M  V30 30 1 4 28
M  V30 31 1 4 29
M  V30 32 1 5 30
M  V30 33 1 5 31
M  V30 34 1 6 32
M  V30 35 1 6 33
M  V30 36 1 11 34
M  V30 37 1 13 35
M  V30 38 1 14 36
M  V30 39 1 17 37
M  V30 40 1 18 38
M  V30 41 1 19 39
M  V30 42 1 22 40
M  V30 END BOND
M  V30 END CTAB
M  END
>  <Dataset>  (466) 
ChEMBL_Kinases

>  <Ligand_Instance>  (466) 
nan

>  <PDB_ID>  (466) 
nan

>  <Standardized_SMILES>  (466) 
O=C(O)CCCN1C(=O)/C(=C/c2ccc(-c3cccc(Cl)c3)o2)SC1=S

>  <Name>  (466) 
nan

>  <Pocket>  (466) 
nan

>  <ATP_Site>  (466) 
nan

>  <Peripheral>  (466) 
nan

>  <Num_H_Atoms_ProtBoundConf>  (466) 
nan

>  <Num_Resolved_Atoms>  (466) 
nan

>  <Num_Not_Resolved_Atoms>  (466) 
nan

$$$$
CHEMBL1688550
     RDKit          3D

  0  0  0  0  0  0  0  0  0  0999 V3000
M  V30 BEGIN CTAB
M  V30 COUNTS 37 39 0 0 0
M  V30 BEGIN ATOM
M  V30 1 N -2.523645 -1.179116 1.371010 0
M  V30 2 C -1.471072 -1.412505 2.340551 0
M  V30 3 C -0.827685 -2.728537 2.233062 0
M  V30 4 C -0.148071 -3.035221 0.896440 0
M  V30 5 C 0.900984 -2.200948 0.464207 0
M  V30 6 N 0.953723 -0.823975 0.182329 0
M  V30 7 C 0.311586 -0.286269 -0.959687 0
M  V30 8 C -0.343553 -1.136714 -1.828816 0
M  V30 9 C -1.002871 -0.748770 -2.976707 0
M  V30 10 C -1.026946 0.590123 -3.310124 0
M  V30 11 C -0.384285 1.476909 -2.469764 0
M  V30 12 C 0.244404 1.001911 -1.351990 0
M  V30 13 S 1.028939 2.250488 -0.375903 0
M  V30 14 C 1.773078 1.387457 0.991616 0
M  V30 15 C 2.428746 2.214501 1.863608 0
M  V30 16 C 3.035603 1.659638 2.970724 0
M  V30 17 C 2.953189 0.300417 3.146849 0
M  V30 18 C 2.273023 -0.444574 2.216632 0
M  V30 19 C 1.643729 0.037263 1.088582 0
M  V30 20 H -3.475889 -1.341308 1.698774 0
M  V30 21 H -2.354928 -0.414295 0.714042 0
M  V30 22 H -0.860559 -0.520548 2.420646 0
M  V30 23 H -2.037589 -1.428996 3.322460 0
M  V30 24 H -0.194451 -2.918430 3.117691 0
M  V30 25 H -1.641749 -3.487897 2.307087 0
M  V30 26 H -0.903786 -3.452397 0.176571 0
M  V30 27 H 0.314159 -4.027668 1.164290 0
M  V30 28 H 1.186671 -2.605281 -0.585211 0
M  V30 29 H 1.827173 -2.504092 0.990046 0
M  V30 30 H -0.411083 -2.207904 -1.713808 0
M  V30 31 H -1.519293 -1.403244 -3.664919 0
M  V30 32 H -1.530878 0.936760 -4.198343 0
M  V30 33 H -0.421436 2.516856 -2.758673 0
M  V30 34 H 2.514307 3.278250 1.760161 0
M  V30 35 H 3.561231 2.281816 3.678624 0
M  V30 36 H 3.444335 -0.091000 4.030060 0
M  V30 37 H 2.282537 -1.489125 2.490852 0
M  V30 END ATOM
M  V30 BEGIN BOND
M  V30 1 1 1 2
M  V30 2 1 2 3
M  V30 3 1 3 4
M  V30 4 1 4 5
M  V30 5 1 5 6
M  V30 6 1 6 7
M  V30 7 2 7 8
M  V30 8 1 8 9
M  V30 9 2 9 10
M  V30 10 1 10 11
M  V30 11 2 11 12
M  V30 12 1 12 13
M  V30 13 1 13 14
M  V30 14 2 14 15
M  V30 15 1 15 16
M  V30 16 2 16 17
M  V30 17 1 17 18
M  V30 18 2 18 19
M  V30 19 1 19 6
M  V30 20 1 12 7
M  V30 21 1 19 14
M  V30 22 1 1 20
M  V30 23 1 1 21
M  V30 24 1 2 22
M  V30 25 1 2 23
M  V30 26 1 3 24
M  V30 27 1 3 25
M  V30 28 1 4 26
M  V30 29 1 4 27
M  V30 30 1 5 28
M  V30 31 1 5 29
M  V30 32 1 8 30
M  V30 33 1 9 31
M  V30 34 1 10 32
M  V30 35 1 11 33
M  V30 36 1 15 34
M  V30 37 1 16 35
M  V30 38 1 17 36
M  V30 39 1 18 37
M  V30 END BOND
M  V30 END CTAB
M  END
>  <Dataset>  (467) 
ChEMBL_Kinases

>  <Ligand_Instance>  (467) 
nan

>  <PDB_ID>  (467) 
nan

>  <Standardized_SMILES>  (467) 
NCCCCN1c2ccccc2Sc2ccccc21

>  <Name>  (467) 
nan

>  <Pocket>  (467) 
nan

>  <ATP_Site>  (467) 
nan

>  <Peripheral>  (467) 
nan

>  <Num_H_Atoms_ProtBoundConf>  (467) 
nan

>  <Num_Resolved_Atoms>  (467) 
nan

>  <Num_Not_Resolved_Atoms>  (467) 
nan

$$$$
CHEMBL1688221
     RDKit          3D

  0  0  0  0  0  0  0  0  0  0999 V3000
M  V30 BEGIN CTAB
M  V30 COUNTS 26 28 0 0 0
M  V30 BEGIN ATOM
M  V30 1 N -1.112991 -2.825888 4.508181 0
M  V30 2 C -0.300559 -2.868554 3.330442 0
M  V30 3 N 0.518114 -3.816775 2.842104 0
M  V30 4 N 1.062170 -3.388003 1.698254 0
M  V30 5 C 0.597570 -2.157791 1.439694 0
M  V30 6 C 0.892552 -1.339225 0.362488 0
M  V30 7 C 0.299099 -0.111286 0.296124 0
M  V30 8 C 0.432598 0.935350 -0.739519 0
M  V30 9 C 0.352604 2.295918 -0.508456 0
M  V30 10 C 0.489086 3.157509 -1.604333 0
M  V30 11 N 0.690853 2.672522 -2.839076 0
M  V30 12 C 0.762908 1.360933 -3.025158 0
M  V30 13 C 0.643011 0.410216 -2.019584 0
M  V30 14 C -0.582776 0.281464 1.309959 0
M  V30 15 C -0.859536 -0.550600 2.369665 0
M  V30 16 C -0.263868 -1.789180 2.440645 0
M  V30 17 H -0.625472 -3.140198 5.381087 0
M  V30 18 H -2.112292 -2.484448 4.369410 0
M  V30 19 H 1.736944 -3.957333 1.134764 0
M  V30 20 H 1.552268 -1.543423 -0.460640 0
M  V30 21 H 0.190147 2.594173 0.517035 0
M  V30 22 H 0.417913 4.225889 -1.364952 0
M  V30 23 H 0.926025 1.005363 -4.036799 0
M  V30 24 H 0.709529 -0.629733 -2.226928 0
M  V30 25 H -1.105775 1.224212 1.362257 0
M  V30 26 H -1.534164 -0.298044 3.181480 0
M  V30 END ATOM
M  V30 BEGIN BOND
M  V30 1 1 1 2
M  V30 2 2 2 3
M  V30 3 1 3 4
M  V30 4 1 4 5
M  V30 5 2 5 6
M  V30 6 1 6 7
M  V30 7 1 7 8
M  V30 8 2 8 9
M  V30 9 1 9 10
M  V30 10 2 10 11
M  V30 11 1 11 12
M  V30 12 2 12 13
M  V30 13 2 7 14
M  V30 14 1 14 15
M  V30 15 2 15 16
M  V30 16 1 16 2
M  V30 17 1 16 5
M  V30 18 1 13 8
M  V30 19 1 1 17
M  V30 20 1 1 18
M  V30 21 1 4 19
M  V30 22 1 6 20
M  V30 23 1 9 21
M  V30 24 1 10 22
M  V30 25 1 12 23
M  V30 26 1 13 24
M  V30 27 1 14 25
M  V30 28 1 15 26
M  V30 END BOND
M  V30 END CTAB
M  END
>  <Dataset>  (468) 
ChEMBL_Kinases

>  <Ligand_Instance>  (468) 
nan

>  <PDB_ID>  (468) 
nan

>  <Standardized_SMILES>  (468) 
Nc1n[nH]c2cc(-c3ccncc3)ccc12

>  <Name>  (468) 
nan

>  <Pocket>  (468) 
nan

>  <ATP_Site>  (468) 
nan

>  <Peripheral>  (468) 
nan

>  <Num_H_Atoms_ProtBoundConf>  (468) 
nan

>  <Num_Resolved_Atoms>  (468) 
nan

>  <Num_Not_Resolved_Atoms>  (468) 
nan

$$$$
CHEMBL1688219
     RDKit          3D

  0  0  0  0  0  0  0  0  0  0999 V3000
M  V30 BEGIN CTAB
M  V30 COUNTS 29 31 0 0 0
M  V30 BEGIN ATOM
M  V30 1 N -0.997105 -4.223234 3.722353 0
M  V30 2 C -0.760916 -2.828223 3.582865 0
M  V30 3 C -0.867228 -1.925182 4.623398 0
M  V30 4 C -0.616817 -0.590724 4.383295 0
M  V30 5 C -0.261219 -0.116697 3.134789 0
M  V30 6 C -0.153651 -1.016965 2.090594 0
M  V30 7 C 0.220922 -0.527967 0.768624 0
M  V30 8 C -0.210844 -1.107196 -0.410933 0
M  V30 9 C 0.152814 -0.632157 -1.654440 0
M  V30 10 C 0.982271 0.466969 -1.767215 0
M  V30 11 C 1.558784 1.225614 -2.772329 0
M  V30 12 N 1.333325 0.918737 -4.150967 0
M  V30 13 N 2.303797 2.216682 -2.206345 0
M  V30 14 N 2.227414 2.122972 -0.882796 0
M  V30 15 C 1.427260 1.063653 -0.604261 0
M  V30 16 C 1.056897 0.579677 0.636037 0
M  V30 17 C -0.405739 -2.349541 2.339261 0
M  V30 18 H -0.288614 -4.989088 3.849826 0
M  V30 19 H -2.036702 -4.336777 3.671765 0
M  V30 20 H -1.148159 -2.296683 5.611873 0
M  V30 21 H -0.725581 0.041274 5.261574 0
M  V30 22 H -0.082934 0.943685 3.034375 0
M  V30 23 H -0.858712 -1.965843 -0.352358 0
M  V30 24 H -0.181487 -1.080720 -2.580996 0
M  V30 25 H 0.331158 0.732029 -4.451540 0
M  V30 26 H 1.901602 0.814622 -5.019613 0
M  V30 27 H 2.725009 2.786388 -0.254137 0
M  V30 28 H 1.414509 1.058792 1.531787 0
M  V30 29 H -0.317158 -3.036496 1.514209 0
M  V30 END ATOM
M  V30 BEGIN BOND
M  V30 1 1 1 2
M  V30 2 2 2 3
M  V30 3 1 3 4
M  V30 4 2 4 5
M  V30 5 1 5 6
M  V30 6 1 6 7
M  V30 7 2 7 8
M  V30 8 1 8 9
M  V30 9 2 9 10
M  V30 10 1 10 11
M  V30 11 1 11 12
M  V30 12 2 11 13
M  V30 13 1 13 14
M  V30 14 1 14 15
M  V30 15 2 15 16
M  V30 16 2 6 17
M  V30 17 1 17 2
M  V30 18 1 16 7
M  V30 19 1 15 10
M  V30 20 1 1 18
M  V30 21 1 1 19
M  V30 22 1 3 20
M  V30 23 1 4 21
M  V30 24 1 5 22
M  V30 25 1 8 23
M  V30 26 1 9 24
M  V30 27 1 12 25
M  V30 28 1 12 26
M  V30 29 1 14 27
M  V30 30 1 16 28
M  V30 31 1 17 29
M  V30 END BOND
M  V30 END CTAB
M  END
>  <Dataset>  (469) 
ChEMBL_Kinases

>  <Ligand_Instance>  (469) 
nan

>  <PDB_ID>  (469) 
nan

>  <Standardized_SMILES>  (469) 
Nc1cccc(-c2ccc3c(N)n[nH]c3c2)c1

>  <Name>  (469) 
nan

>  <Pocket>  (469) 
nan

>  <ATP_Site>  (469) 
nan

>  <Peripheral>  (469) 
nan

>  <Num_H_Atoms_ProtBoundConf>  (469) 
nan

>  <Num_Resolved_Atoms>  (469) 
nan

>  <Num_Not_Resolved_Atoms>  (469) 
nan

$$$$
CHEMBL1688218
     RDKit          3D

  0  0  0  0  0  0  0  0  0  0999 V3000
M  V30 BEGIN CTAB
M  V30 COUNTS 28 30 0 0 0
M  V30 BEGIN ATOM
M  V30 1 N -1.523506 -4.288725 3.236307 0
M  V30 2 C -0.878853 -3.017053 3.265490 0
M  V30 3 C -0.584048 -2.471706 4.483404 0
M  V30 4 C 0.040928 -1.239933 4.547157 0
M  V30 5 C 0.341562 -0.610709 3.356694 0
M  V30 6 C 0.048999 -1.151214 2.125092 0
M  V30 7 C 0.348463 -0.521598 0.844611 0
M  V30 8 C -0.017906 -1.210628 -0.292680 0
M  V30 9 C 0.272624 -0.600300 -1.519456 0
M  V30 10 C 0.898972 0.639279 -1.626454 0
M  V30 11 C 1.256436 1.378154 -2.734536 0
M  V30 12 N 1.073893 1.059433 -4.120380 0
M  V30 13 N 1.825853 2.486663 -2.219203 0
M  V30 14 N 1.825886 2.446886 -0.892311 0
M  V30 15 C 1.251687 1.300784 -0.470078 0
M  V30 16 C 0.967996 0.704441 0.740594 0
M  V30 17 N -0.557481 -2.348471 2.127459 0
M  V30 18 H -1.338728 -5.310623 3.205826 0
M  V30 19 H -2.515766 -3.964746 3.255309 0
M  V30 20 H -0.827208 -2.979061 5.393738 0
M  V30 21 H 0.282289 -0.792033 5.496277 0
M  V30 22 H 0.828038 0.348605 3.389292 0
M  V30 23 H -0.508393 -2.178040 -0.318322 0
M  V30 24 H -0.005480 -1.122109 -2.423038 0
M  V30 25 H 0.345011 1.344931 -4.811413 0
M  V30 26 H 1.894347 0.424600 -4.316757 0
M  V30 27 H 2.204731 3.174833 -0.230829 0
M  V30 28 H 1.255259 1.245355 1.610818 0
M  V30 END ATOM
M  V30 BEGIN BOND
M  V30 1 1 1 2
M  V30 2 2 2 3
M  V30 3 1 3 4
M  V30 4 2 4 5
M  V30 5 1 5 6
M  V30 6 1 6 7
M  V30 7 2 7 8
M  V30 8 1 8 9
M  V30 9 2 9 10
M  V30 10 1 10 11
M  V30 11 1 11 12
M  V30 12 2 11 13
M  V30 13 1 13 14
M  V30 14 1 14 15
M  V30 15 2 15 16
M  V30 16 2 6 17
M  V30 17 1 17 2
M  V30 18 1 16 7
M  V30 19 1 15 10
M  V30 20 1 1 18
M  V30 21 1 1 19
M  V30 22 1 3 20
M  V30 23 1 4 21
M  V30 24 1 5 22
M  V30 25 1 8 23
M  V30 26 1 9 24
M  V30 27 1 12 25
M  V30 28 1 12 26
M  V30 29 1 14 27
M  V30 30 1 16 28
M  V30 END BOND
M  V30 END CTAB
M  END
>  <Dataset>  (470) 
ChEMBL_Kinases

>  <Ligand_Instance>  (470) 
nan

>  <PDB_ID>  (470) 
nan

>  <Standardized_SMILES>  (470) 
Nc1cccc(-c2ccc3c(N)n[nH]c3c2)n1

>  <Name>  (470) 
nan

>  <Pocket>  (470) 
nan

>  <ATP_Site>  (470) 
nan

>  <Peripheral>  (470) 
nan

>  <Num_H_Atoms_ProtBoundConf>  (470) 
nan

>  <Num_Resolved_Atoms>  (470) 
nan

>  <Num_Not_Resolved_Atoms>  (470) 
nan

$$$$
CHEMBL1688217
     RDKit          3D

  0  0  0  0  0  0  0  0  0  0999 V3000
M  V30 BEGIN CTAB
M  V30 COUNTS 28 30 0 0 0
M  V30 BEGIN ATOM
M  V30 1 N -2.214362 -3.397316 3.786143 0
M  V30 2 C -0.996910 -2.676458 3.626296 0
M  V30 3 C -0.683007 -2.012529 2.481984 0
M  V30 4 C 0.459838 -1.285412 2.216394 0
M  V30 5 C 0.696403 -0.608512 0.945429 0
M  V30 6 C 1.969569 -0.433545 0.420598 0
M  V30 7 C 2.067174 0.223392 -0.791993 0
M  V30 8 C 0.918797 0.673482 -1.426099 0
M  V30 9 C 0.720538 1.346488 -2.620286 0
M  V30 10 N 1.733460 1.758737 -3.535086 0
M  V30 11 N -0.603776 1.539497 -2.758013 0
M  V30 12 N -1.258275 1.031749 -1.727029 0
M  V30 13 C -0.341851 0.493185 -0.893705 0
M  V30 14 C -0.449955 -0.162786 0.318800 0
M  V30 15 C 1.373777 -1.255115 3.276367 0
M  V30 16 C 1.063917 -1.925596 4.440997 0
M  V30 17 N -0.079060 -2.621457 4.634158 0
M  V30 18 H -2.110524 -4.229499 3.141551 0
M  V30 19 H -3.043089 -3.167664 4.403512 0
M  V30 20 H -1.432213 -2.075288 1.700119 0
M  V30 21 H 2.815581 -0.813106 0.975185 0
M  V30 22 H 3.068247 0.368152 -1.217864 0
M  V30 23 H 1.537636 1.624640 -4.547690 0
M  V30 24 H 2.664357 2.187850 -3.272569 0
M  V30 25 H -2.310503 1.054784 -1.598737 0
M  V30 26 H -1.443676 -0.290571 0.712332 0
M  V30 27 H 2.300283 -0.704577 3.150721 0
M  V30 28 H 1.783229 -1.895513 5.261096 0
M  V30 END ATOM
M  V30 BEGIN BOND
M  V30 1 1 1 2
M  V30 2 2 2 3
M  V30 3 1 3 4
M  V30 4 1 4 5
M  V30 5 2 5 6
M  V30 6 1 6 7
M  V30 7 2 7 8
M  V30 8 1 8 9
M  V30 9 1 9 10
M  V30 10 2 9 11
M  V30 11 1 11 12
M  V30 12 1 12 13
M  V30 13 2 13 14
M  V30 14 2 4 15
M  V30 15 1 15 16
M  V30 16 2 16 17
M  V30 17 1 17 2
M  V30 18 1 14 5
M  V30 19 1 13 8
M  V30 20 1 1 18
M  V30 21 1 1 19
M  V30 22 1 3 20
M  V30 23 1 6 21
M  V30 24 1 7 22
M  V30 25 1 10 23
M  V30 26 1 10 24
M  V30 27 1 12 25
M  V30 28 1 14 26
M  V30 29 1 15 27
M  V30 30 1 16 28
M  V30 END BOND
M  V30 END CTAB
M  END
>  <Dataset>  (471) 
ChEMBL_Kinases

>  <Ligand_Instance>  (471) 
nan

>  <PDB_ID>  (471) 
nan

>  <Standardized_SMILES>  (471) 
Nc1cc(-c2ccc3c(N)n[nH]c3c2)ccn1

>  <Name>  (471) 
nan

>  <Pocket>  (471) 
nan

>  <ATP_Site>  (471) 
nan

>  <Peripheral>  (471) 
nan

>  <Num_H_Atoms_ProtBoundConf>  (471) 
nan

>  <Num_Resolved_Atoms>  (471) 
nan

>  <Num_Not_Resolved_Atoms>  (471) 
nan

$$$$
CHEMBL1688216
     RDKit          3D

  0  0  0  0  0  0  0  0  0  0999 V3000
M  V30 BEGIN CTAB
M  V30 COUNTS 25 27 0 0 0
M  V30 BEGIN ATOM
M  V30 1 N 0.464104 -3.348200 4.289977 0
M  V30 2 C 0.471461 -3.187042 2.874408 0
M  V30 3 N 0.536073 -4.097631 1.869507 0
M  V30 4 N 0.513990 -3.478140 0.700974 0
M  V30 5 C 0.433422 -2.137414 0.947437 0
M  V30 6 C 0.383201 -1.082781 0.027157 0
M  V30 7 C 0.303052 0.197164 0.535537 0
M  V30 8 C 0.251631 1.284062 -0.433938 0
M  V30 9 C 0.170282 2.623848 -0.115765 0
M  V30 10 C 0.125171 3.599813 -1.072305 0
M  V30 11 N 0.160135 3.263687 -2.374928 0
M  V30 12 C 0.240095 1.949684 -2.702086 0
M  V30 13 N 0.284862 0.979190 -1.743152 0
M  V30 14 C 0.274319 0.415517 1.896635 0
M  V30 15 C 0.324350 -0.632124 2.798755 0
M  V30 16 C 0.404686 -1.922316 2.325419 0
M  V30 17 H 1.144786 -3.832920 4.890344 0
M  V30 18 H -0.346091 -2.913948 4.794907 0
M  V30 19 H 0.554247 -3.987501 -0.209426 0
M  V30 20 H 0.408965 -1.310152 -1.040565 0
M  V30 21 H 0.142192 2.898210 0.909289 0
M  V30 22 H 0.060814 4.647162 -0.758783 0
M  V30 23 H 0.263535 1.760400 -3.749805 0
M  V30 24 H 0.212225 1.406167 2.294716 0
M  V30 25 H 0.303942 -0.499369 3.875653 0
M  V30 END ATOM
M  V30 BEGIN BOND
M  V30 1 1 1 2
M  V30 2 2 2 3
M  V30 3 1 3 4
M  V30 4 1 4 5
M  V30 5 2 5 6
M  V30 6 1 6 7
M  V30 7 1 7 8
M  V30 8 2 8 9
M  V30 9 1 9 10
M  V30 10 2 10 11
M  V30 11 1 11 12
M  V30 12 2 12 13
M  V30 13 2 7 14
M  V30 14 1 14 15
M  V30 15 2 15 16
M  V30 16 1 16 2
M  V30 17 1 16 5
M  V30 18 1 13 8
M  V30 19 1 1 17
M  V30 20 1 1 18
M  V30 21 1 4 19
M  V30 22 1 6 20
M  V30 23 1 9 21
M  V30 24 1 10 22
M  V30 25 1 12 23
M  V30 26 1 14 24
M  V30 27 1 15 25
M  V30 END BOND
M  V30 END CTAB
M  END
>  <Dataset>  (472) 
ChEMBL_Kinases

>  <Ligand_Instance>  (472) 
nan

>  <PDB_ID>  (472) 
nan

>  <Standardized_SMILES>  (472) 
Nc1n[nH]c2cc(-c3ccncn3)ccc12

>  <Name>  (472) 
nan

>  <Pocket>  (472) 
nan

>  <ATP_Site>  (472) 
nan

>  <Peripheral>  (472) 
nan

>  <Num_H_Atoms_ProtBoundConf>  (472) 
nan

>  <Num_Resolved_Atoms>  (472) 
nan

>  <Num_Not_Resolved_Atoms>  (472) 
nan

$$$$
CHEMBL1688215
     RDKit          3D

  0  0  0  0  0  0  0  0  0  0999 V3000
M  V30 BEGIN CTAB
M  V30 COUNTS 27 29 0 0 0
M  V30 BEGIN ATOM
M  V30 1 N 1.744874 -3.521394 4.138258 0
M  V30 2 C 0.865544 -2.432986 3.874656 0
M  V30 3 N 0.106331 -1.947004 4.879748 0
M  V30 4 C -0.724746 -0.908131 4.602962 0
M  V30 5 C -0.747635 -0.409094 3.317374 0
M  V30 6 C 0.023307 -0.897858 2.283911 0
M  V30 7 C -0.014587 -0.355915 0.927744 0
M  V30 8 C -0.820890 0.694719 0.543124 0
M  V30 9 C -0.817084 1.168174 -0.754698 0
M  V30 10 C 0.022206 0.554883 -1.659173 0
M  V30 11 C 0.292139 0.750964 -3.018551 0
M  V30 12 N -0.320844 1.750069 -3.855244 0
M  V30 13 N 1.215939 -0.148065 -3.405628 0
M  V30 14 N 1.565947 -0.923033 -2.372379 0
M  V30 15 C 0.845434 -0.499201 -1.317022 0
M  V30 16 C 0.812938 -0.944508 -0.007796 0
M  V30 17 N 0.830572 -1.935795 2.631088 0
M  V30 18 H 2.153489 -4.103449 3.372638 0
M  V30 19 H 2.018657 -3.785846 5.086935 0
M  V30 20 H -1.349209 -0.490220 5.380255 0
M  V30 21 H -1.411724 0.401490 3.149308 0
M  V30 22 H -1.459958 1.152774 1.256108 0
M  V30 23 H -1.446798 1.991575 -1.062864 0
M  V30 24 H -0.008138 2.713446 -4.144886 0
M  V30 25 H -1.246616 1.447881 -4.237981 0
M  V30 26 H 2.259452 -1.700695 -2.383845 0
M  V30 27 H 1.457058 -1.767143 0.254192 0
M  V30 END ATOM
M  V30 BEGIN BOND
M  V30 1 1 1 2
M  V30 2 2 2 3
M  V30 3 1 3 4
M  V30 4 2 4 5
M  V30 5 1 5 6
M  V30 6 1 6 7
M  V30 7 2 7 8
M  V30 8 1 8 9
M  V30 9 2 9 10
M  V30 10 1 10 11
M  V30 11 1 11 12
M  V30 12 2 11 13
M  V30 13 1 13 14
M  V30 14 1 14 15
M  V30 15 2 15 16
M  V30 16 2 6 17
M  V30 17 1 17 2
M  V30 18 1 16 7
M  V30 19 1 15 10
M  V30 20 1 1 18
M  V30 21 1 1 19
M  V30 22 1 4 20
M  V30 23 1 5 21
M  V30 24 1 8 22
M  V30 25 1 9 23
M  V30 26 1 12 24
M  V30 27 1 12 25
M  V30 28 1 14 26
M  V30 29 1 16 27
M  V30 END BOND
M  V30 END CTAB
M  END
>  <Dataset>  (473) 
ChEMBL_Kinases

>  <Ligand_Instance>  (473) 
nan

>  <PDB_ID>  (473) 
nan

>  <Standardized_SMILES>  (473) 
Nc1nccc(-c2ccc3c(N)n[nH]c3c2)n1

>  <Name>  (473) 
nan

>  <Pocket>  (473) 
nan

>  <ATP_Site>  (473) 
nan

>  <Peripheral>  (473) 
nan

>  <Num_H_Atoms_ProtBoundConf>  (473) 
nan

>  <Num_Resolved_Atoms>  (473) 
nan

>  <Num_Not_Resolved_Atoms>  (473) 
nan

$$$$
CHEMBL1688214
     RDKit          3D

  0  0  0  0  0  0  0  0  0  0999 V3000
M  V30 BEGIN CTAB
M  V30 COUNTS 18 19 0 0 0
M  V30 BEGIN ATOM
M  V30 1 N -1.402577 -2.745051 0.169655 0
M  V30 2 C -0.424446 -1.719377 0.042369 0
M  V30 3 C 0.068416 -0.898082 1.042742 0
M  V30 4 C 0.999076 -0.054133 0.460310 0
M  V30 5 C 1.771749 0.979024 1.139179 0
M  V30 6 C 1.697718 1.282895 2.482723 0
M  V30 7 C 2.601251 2.311401 2.648521 0
M  V30 8 C 3.190502 2.599612 1.419087 0
M  V30 9 O 2.658410 1.775738 0.558570 0
M  V30 10 N 1.052888 -0.369005 -0.844835 0
M  V30 11 N 0.200959 -1.361818 -1.081747 0
M  V30 12 H -2.147130 -2.718150 -0.576422 0
M  V30 13 H -1.385158 -3.461391 0.934123 0
M  V30 14 H -0.197979 -0.890596 2.080207 0
M  V30 15 H 1.064306 0.808539 3.228970 0
M  V30 16 H 2.817881 2.814929 3.586620 0
M  V30 17 H 3.929906 3.332475 1.174309 0
M  V30 18 H 1.692206 0.136383 -1.504924 0
M  V30 END ATOM
M  V30 BEGIN BOND
M  V30 1 1 1 2
M  V30 2 1 2 3
M  V30 3 2 3 4
M  V30 4 1 4 5
M  V30 5 2 5 6
M  V30 6 1 6 7
M  V30 7 2 7 8
M  V30 8 1 8 9
M  V30 9 1 4 10
M  V30 10 1 10 11
M  V30 11 2 11 2
M  V30 12 1 9 5
M  V30 13 1 1 12
M  V30 14 1 1 13
M  V30 15 1 3 14
M  V30 16 1 6 15
M  V30 17 1 7 16
M  V30 18 1 8 17
M  V30 19 1 10 18
M  V30 END BOND
M  V30 END CTAB
M  END
>  <Dataset>  (474) 
ChEMBL_Kinases

>  <Ligand_Instance>  (474) 
nan

>  <PDB_ID>  (474) 
nan

>  <Standardized_SMILES>  (474) 
Nc1cc(-c2ccco2)[nH]n1

>  <Name>  (474) 
nan

>  <Pocket>  (474) 
nan

>  <ATP_Site>  (474) 
nan

>  <Peripheral>  (474) 
nan

>  <Num_H_Atoms_ProtBoundConf>  (474) 
nan

>  <Num_Resolved_Atoms>  (474) 
nan

>  <Num_Not_Resolved_Atoms>  (474) 
nan

$$$$
CHEMBL1685049
     RDKit          3D

  0  0  0  0  0  0  0  0  0  0999 V3000
M  V30 BEGIN CTAB
M  V30 COUNTS 64 65 0 0 0
M  V30 BEGIN ATOM
M  V30 1 C 2.188753 -1.381853 7.105534 0
M  V30 2 C 2.594406 -2.542365 6.230740 0
M  V30 3 C 2.406358 -2.244267 4.762675 0
M  V30 4 C 3.196106 -1.077666 4.267482 0
M  V30 5 C 2.988316 -0.798159 2.790456 0
M  V30 6 C 3.374485 -1.937634 1.921542 0
M  V30 7 C 3.195527 -1.691175 0.447902 0
M  V30 8 C 1.737634 -1.401494 0.181783 0
M  V30 9 C 1.447272 -1.163508 -1.261891 0
M  V30 10 C 2.184744 0.017400 -1.859898 0
M  V30 11 C 1.798137 0.101278 -3.290541 0
M  V30 12 C 0.422830 0.384282 -3.715364 0
M  V30 13 C -0.215011 1.673951 -3.496445 0
M  V30 14 C -0.526098 2.269157 -2.192392 0
M  V30 15 C -1.476551 1.585262 -1.320705 0
M  V30 16 C -1.464794 0.741739 -0.237713 0
M  V30 17 C -2.556501 0.207547 0.383283 0
M  V30 18 C -3.834151 0.501222 -0.067607 0
M  V30 19 S -5.089891 -0.269879 0.861562 0
M  V30 20 O -6.362754 0.531901 0.730887 0
M  V30 21 O -4.728977 -0.340320 2.318789 0
M  V30 22 N -5.416155 -1.860017 0.309425 0
M  V30 23 C -5.878175 -2.273183 -0.939114 0
M  V30 24 N -6.166059 -3.305884 -1.523938 0
M  V30 25 N -6.587364 -3.423747 -2.712070 0
M  V30 26 C -6.759708 -2.376832 -3.459447 0
M  V30 27 S -6.232828 -1.007391 -2.265090 0
M  V30 28 C -3.929524 1.340367 -1.147987 0
M  V30 29 C -2.790575 1.856668 -1.744096 0
M  V30 30 H 1.418905 -0.747098 6.596553 0
M  V30 31 H 3.000201 -0.730794 7.419241 0
M  V30 32 H 1.683522 -1.766048 8.017588 0
M  V30 33 H 1.921557 -3.390876 6.473153 0
M  V30 34 H 3.618472 -2.901429 6.461279 0
M  V30 35 H 2.790864 -3.160848 4.229547 0
M  V30 36 H 1.342244 -2.201642 4.548728 0
M  V30 37 H 4.255649 -1.195874 4.538715 0
M  V30 38 H 2.843825 -0.165257 4.809665 0
M  V30 39 H 3.603275 0.087473 2.539479 0
M  V30 40 H 1.915877 -0.553829 2.653550 0
M  V30 41 H 4.475424 -2.152271 2.062250 0
M  V30 42 H 2.883858 -2.900281 2.210968 0
M  V30 43 H 3.583484 -2.525429 -0.153095 0
M  V30 44 H 3.835286 -0.812680 0.171645 0
M  V30 45 H 1.520711 -0.457172 0.715319 0
M  V30 46 H 1.155055 -2.272524 0.523297 0
M  V30 47 H 1.732975 -2.064361 -1.872359 0
M  V30 48 H 0.379045 -1.036642 -1.438096 0
M  V30 49 H 2.119639 0.935718 -1.291251 0
M  V30 50 H 3.281702 -0.326588 -1.877108 0
M  V30 51 H 2.149939 -0.861728 -3.809206 0
M  V30 52 H 2.482706 0.888374 -3.777782 0
M  V30 53 H -0.272704 -0.467500 -3.378376 0
M  V30 54 H 0.397915 0.200202 -4.854798 0
M  V30 55 H -1.206499 1.732317 -4.112848 0
M  V30 56 H 0.419394 2.442197 -4.099538 0
M  V30 57 H 0.417680 2.406558 -1.604231 0
M  V30 58 H -0.883485 3.348454 -2.320558 0
M  V30 59 H -0.430053 0.600181 0.032840 0
M  V30 60 H -2.314294 -0.426202 1.209108 0
M  V30 61 H -5.270276 -2.686707 0.948309 0
M  V30 62 H -7.132765 -2.568063 -4.490658 0
M  V30 63 H -4.943809 1.534844 -1.446714 0
M  V30 64 H -3.084303 2.494746 -2.578664 0
M  V30 END ATOM
M  V30 BEGIN BOND
M  V30 1 1 1 2
M  V30 2 1 2 3
M  V30 3 1 3 4
M  V30 4 1 4 5
M  V30 5 1 5 6
M  V30 6 1 6 7
M  V30 7 1 7 8
M  V30 8 1 8 9
M  V30 9 1 9 10
M  V30 10 1 10 11
M  V30 11 1 11 12
M  V30 12 1 12 13
M  V30 13 1 13 14
M  V30 14 1 14 15
M  V30 15 2 15 16
M  V30 16 1 16 17
M  V30 17 2 17 18
M  V30 18 1 18 19
M  V30 19 2 19 20
M  V30 20 2 19 21
M  V30 21 1 19 22
M  V30 22 1 22 23
M  V30 23 2 23 24
M  V30 24 1 24 25
M  V30 25 2 25 26
M  V30 26 1 26 27
M  V30 27 1 18 28
M  V30 28 2 28 29
M  V30 29 1 29 15
M  V30 30 1 27 23
M  V30 31 1 1 30
M  V30 32 1 1 31
M  V30 33 1 1 32
M  V30 34 1 2 33
M  V30 35 1 2 34
M  V30 36 1 3 35
M  V30 37 1 3 36
M  V30 38 1 4 37
M  V30 39 1 4 38
M  V30 40 1 5 39
M  V30 41 1 5 40
M  V30 42 1 6 41
M  V30 43 1 6 42
M  V30 44 1 7 43
M  V30 45 1 7 44
M  V30 46 1 8 45
M  V30 47 1 8 46
M  V30 48 1 9 47
M  V30 49 1 9 48
M  V30 50 1 10 49
M  V30 51 1 10 50
M  V30 52 1 11 51
M  V30 53 1 11 52
M  V30 54 1 12 53
M  V30 55 1 12 54
M  V30 56 1 13 55
M  V30 57 1 13 56
M  V30 58 1 14 57
M  V30 59 1 14 58
M  V30 60 1 16 59
M  V30 61 1 17 60
M  V30 62 1 22 61
M  V30 63 1 26 62
M  V30 64 1 28 63
M  V30 65 1 29 64
M  V30 END BOND
M  V30 END CTAB
M  END
>  <Dataset>  (475) 
ChEMBL_Kinases

>  <Ligand_Instance>  (475) 
nan

>  <PDB_ID>  (475) 
nan

>  <Standardized_SMILES>  (475) 
CCCCCCCCCCCCCCc1ccc(S(=O)(=O)Nc2nncs2)cc1

>  <Name>  (475) 
nan

>  <Pocket>  (475) 
nan

>  <ATP_Site>  (475) 
nan

>  <Peripheral>  (475) 
nan

>  <Num_H_Atoms_ProtBoundConf>  (475) 
nan

>  <Num_Resolved_Atoms>  (475) 
nan

>  <Num_Not_Resolved_Atoms>  (475) 
nan

$$$$
CHEMBL1685050
     RDKit          3D

  0  0  0  0  0  0  0  0  0  0999 V3000
M  V30 BEGIN CTAB
M  V30 COUNTS 70 71 0 0 0
M  V30 BEGIN ATOM
M  V30 1 C 2.451663 0.539361 6.259941 0
M  V30 2 C 3.380591 0.818620 5.101759 0
M  V30 3 C 3.458347 -0.361018 4.152585 0
M  V30 4 C 4.401018 0.010945 3.040009 0
M  V30 5 C 4.560639 -1.090436 2.026566 0
M  V30 6 C 3.215044 -1.439514 1.379995 0
M  V30 7 C 3.417495 -2.541078 0.376477 0
M  V30 8 C 2.167688 -2.995141 -0.310937 0
M  V30 9 C 1.575653 -1.779639 -1.074822 0
M  V30 10 C 0.353939 -2.185474 -1.801585 0
M  V30 11 C -0.343541 -1.261982 -2.703167 0
M  V30 12 C -0.839626 0.060960 -2.207002 0
M  V30 13 C 0.228586 1.009183 -1.897676 0
M  V30 14 C -0.005464 2.391090 -1.472045 0
M  V30 15 C -0.765209 2.823082 -0.302099 0
M  V30 16 C -2.190827 2.731301 -0.134208 0
M  V30 17 C -3.035629 1.589874 -0.152664 0
M  V30 18 C -3.160570 0.831916 1.002304 0
M  V30 19 C -3.959358 -0.264652 1.170842 0
M  V30 20 C -4.715679 -0.646397 0.066959 0
M  V30 21 S -5.749135 -2.042601 0.248061 0
M  V30 22 O -6.925209 -1.886210 -0.673945 0
M  V30 23 O -6.204835 -2.117429 1.690992 0
M  V30 24 N -4.943926 -3.496243 -0.139408 0
M  V30 25 C -4.496551 -3.540922 -1.496253 0
M  V30 26 N -4.479476 -2.882877 -2.535722 0
M  V30 27 N -3.932973 -3.323945 -3.614465 0
M  V30 28 C -3.387417 -4.376899 -3.774196 0
M  V30 29 S -3.588420 -5.124624 -2.015199 0
M  V30 30 C -4.680906 0.023078 -1.136708 0
M  V30 31 C -3.842369 1.116042 -1.201790 0
M  V30 32 H 1.396697 0.726453 5.977299 0
M  V30 33 H 2.578210 -0.528996 6.529188 0
M  V30 34 H 2.692695 1.250597 7.058144 0
M  V30 35 H 2.945377 1.691914 4.567049 0
M  V30 36 H 4.359600 1.107230 5.515112 0
M  V30 37 H 3.777913 -1.263397 4.699020 0
M  V30 38 H 2.446032 -0.472310 3.719546 0
M  V30 39 H 5.386825 0.256728 3.459720 0
M  V30 40 H 4.010367 0.887284 2.513067 0
M  V30 41 H 4.981082 -1.992789 2.507404 0
M  V30 42 H 5.284696 -0.742294 1.262645 0
M  V30 43 H 2.750968 -0.523816 0.973983 0
M  V30 44 H 2.550446 -1.820160 2.181693 0
M  V30 45 H 3.956701 -3.400373 0.846723 0
M  V30 46 H 4.140666 -2.179864 -0.414821 0
M  V30 47 H 1.445336 -3.294946 0.482842 0
M  V30 48 H 2.335130 -3.829857 -1.000827 0
M  V30 49 H 2.355954 -1.379867 -1.702463 0
M  V30 50 H 1.329577 -1.106411 -0.202123 0
M  V30 51 H -0.428457 -2.606297 -1.071078 0
M  V30 52 H 0.634622 -3.154016 -2.348269 0
M  V30 53 H -1.303982 -1.812493 -3.026328 0
M  V30 54 H 0.270230 -1.119575 -3.651895 0
M  V30 55 H -1.558014 0.481247 -2.907976 0
M  V30 56 H -1.414153 -0.250584 -1.268462 0
M  V30 57 H 1.099288 0.624295 -1.310796 0
M  V30 58 H 0.762279 1.142024 -2.948881 0
M  V30 59 H -0.307789 3.038247 -2.397602 0
M  V30 60 H 1.062988 2.834980 -1.337263 0
M  V30 61 H -0.180207 2.470431 0.627293 0
M  V30 62 H -0.515477 3.959485 -0.199914 0
M  V30 63 H -2.493918 3.287202 0.849863 0
M  V30 64 H -2.629886 3.538768 -0.864311 0
M  V30 65 H -2.573833 1.110552 1.892402 0
M  V30 66 H -4.005885 -0.805754 2.099085 0
M  V30 67 H -4.804791 -4.257220 0.556313 0
M  V30 68 H -2.996628 -4.533808 -4.782973 0
M  V30 69 H -5.257822 -0.253558 -2.003220 0
M  V30 70 H -3.764609 1.698257 -2.133285 0
M  V30 END ATOM
M  V30 BEGIN BOND
M  V30 1 1 1 2
M  V30 2 1 2 3
M  V30 3 1 3 4
M  V30 4 1 4 5
M  V30 5 1 5 6
M  V30 6 1 6 7
M  V30 7 1 7 8
M  V30 8 1 8 9
M  V30 9 1 9 10
M  V30 10 1 10 11
M  V30 11 1 11 12
M  V30 12 1 12 13
M  V30 13 1 13 14
M  V30 14 1 14 15
M  V30 15 1 15 16
M  V30 16 1 16 17
M  V30 17 2 17 18
M  V30 18 1 18 19
M  V30 19 2 19 20
M  V30 20 1 20 21
M  V30 21 2 21 22
M  V30 22 2 21 23
M  V30 23 1 21 24
M  V30 24 1 24 25
M  V30 25 2 25 26
M  V30 26 1 26 27
M  V30 27 2 27 28
M  V30 28 1 28 29
M  V30 29 1 20 30
M  V30 30 2 30 31
M  V30 31 1 31 17
M  V30 32 1 29 25
M  V30 33 1 1 32
M  V30 34 1 1 33
M  V30 35 1 1 34
M  V30 36 1 2 35
M  V30 37 1 2 36
M  V30 38 1 3 37
M  V30 39 1 3 38
M  V30 40 1 4 39
M  V30 41 1 4 40
M  V30 42 1 5 41
M  V30 43 1 5 42
M  V30 44 1 6 43
M  V30 45 1 6 44
M  V30 46 1 7 45
M  V30 47 1 7 46
M  V30 48 1 8 47
M  V30 49 1 8 48
M  V30 50 1 9 49
M  V30 51 1 9 50
M  V30 52 1 10 51
M  V30 53 1 10 52
M  V30 54 1 11 53
M  V30 55 1 11 54
M  V30 56 1 12 55
M  V30 57 1 12 56
M  V30 58 1 13 57
M  V30 59 1 13 58
M  V30 60 1 14 59
M  V30 61 1 14 60
M  V30 62 1 15 61
M  V30 63 1 15 62
M  V30 64 1 16 63
M  V30 65 1 16 64
M  V30 66 1 18 65
M  V30 67 1 19 66
M  V30 68 1 24 67
M  V30 69 1 28 68
M  V30 70 1 30 69
M  V30 71 1 31 70
M  V30 END BOND
M  V30 END CTAB
M  END
>  <Dataset>  (476) 
ChEMBL_Kinases

>  <Ligand_Instance>  (476) 
nan

>  <PDB_ID>  (476) 
nan

>  <Standardized_SMILES>  (476) 
CCCCCCCCCCCCCCCCc1ccc(S(=O)(=O)Nc2nncs2)cc1

>  <Name>  (476) 
nan

>  <Pocket>  (476) 
nan

>  <ATP_Site>  (476) 
nan

>  <Peripheral>  (476) 
nan

>  <Num_H_Atoms_ProtBoundConf>  (476) 
nan

>  <Num_Resolved_Atoms>  (476) 
nan

>  <Num_Not_Resolved_Atoms>  (476) 
nan

$$$$
CHEMBL1685053
     RDKit          3D

  0  0  0  0  0  0  0  0  0  0999 V3000
M  V30 BEGIN CTAB
M  V30 COUNTS 64 65 0 0 0
M  V30 BEGIN ATOM
M  V30 1 C -0.569236 1.877541 6.368146 0
M  V30 2 C -1.097944 1.043306 5.247838 0
M  V30 3 C -0.369015 -0.175977 4.913184 0
M  V30 4 C 1.008968 -0.216085 4.505735 0
M  V30 5 C 1.636255 0.401471 3.357253 0
M  V30 6 C 1.254562 0.099265 1.972599 0
M  V30 7 C -0.089104 0.455588 1.476966 0
M  V30 8 C -0.357238 1.952077 1.451344 0
M  V30 9 C -1.746791 2.150856 0.983234 0
M  V30 10 C -2.211762 1.789572 -0.351155 0
M  V30 11 C -1.757706 2.505094 -1.551788 0
M  V30 12 C -0.394427 2.562991 -2.061918 0
M  V30 13 C 0.252632 1.313596 -2.487778 0
M  V30 14 C 1.137104 0.421725 -1.935985 0
M  V30 15 C 1.580272 -0.723156 -2.548613 0
M  V30 16 C 1.149266 -1.066116 -3.809520 0
M  V30 17 S 1.723087 -2.527112 -4.566468 0
M  V30 18 O 3.118938 -2.861344 -4.062217 0
M  V30 19 O 1.903987 -2.321188 -6.063978 0
M  V30 20 N 0.676315 -3.854332 -4.261825 0
M  V30 21 C 0.549064 -4.182042 -2.931322 0
M  V30 22 N 1.004202 -3.775997 -1.737451 0
M  V30 23 N 0.640447 -4.358925 -0.681093 0
M  V30 24 C -0.162119 -5.353730 -0.616938 0
M  V30 25 C -0.686327 -6.142993 0.512866 0
M  V30 26 C -1.617027 -7.218336 -0.025216 0
M  V30 27 S -0.564880 -5.621137 -2.388775 0
M  V30 28 C 0.259355 -0.216510 -4.427513 0
M  V30 29 C -0.162368 0.923743 -3.779126 0
M  V30 30 H -1.015224 2.893983 6.333594 0
M  V30 31 H 0.520885 2.037709 6.364151 0
M  V30 32 H -0.826727 1.461254 7.365387 0
M  V30 33 H -1.320790 1.687483 4.388143 0
M  V30 34 H -2.146826 0.758579 5.601686 0
M  V30 35 H -0.413340 -0.825668 5.872291 0
M  V30 36 H -1.037017 -0.811001 4.254652 0
M  V30 37 H 1.272648 -1.340777 4.441561 0
M  V30 38 H 1.675523 0.042139 5.413848 0
M  V30 39 H 2.752552 0.159610 3.432070 0
M  V30 40 H 1.708781 1.541254 3.422738 0
M  V30 41 H 1.987498 0.607315 1.265040 0
M  V30 42 H 1.427216 -0.989605 1.689325 0
M  V30 43 H -0.925494 0.020059 2.091158 0
M  V30 44 H -0.299327 0.071885 0.467757 0
M  V30 45 H 0.395929 2.429823 0.778983 0
M  V30 46 H -0.305986 2.418677 2.466369 0
M  V30 47 H -1.951071 3.281055 1.094494 0
M  V30 48 H -2.412271 1.719772 1.800347 0
M  V30 49 H -3.355987 1.935611 -0.328754 0
M  V30 50 H -2.140172 0.669734 -0.551959 0
M  V30 51 H -2.048510 3.619033 -1.348016 0
M  V30 52 H -2.493349 2.316690 -2.423786 0
M  V30 53 H 0.318519 3.099423 -1.387549 0
M  V30 54 H -0.437052 3.261725 -2.984209 0
M  V30 55 H 1.419706 0.777389 -0.976556 0
M  V30 56 H 2.276489 -1.306686 -1.967191 0
M  V30 57 H 0.162080 -4.393568 -4.989017 0
M  V30 58 H -1.284534 -5.437692 1.122951 0
M  V30 59 H 0.062542 -6.595769 1.162666 0
M  V30 60 H -2.150255 -6.912311 -0.936161 0
M  V30 61 H -1.034364 -8.147921 -0.243298 0
M  V30 62 H -2.355322 -7.495021 0.755135 0
M  V30 63 H -0.059082 -0.512908 -5.414777 0
M  V30 64 H -0.865711 1.491499 -4.399845 0
M  V30 END ATOM
M  V30 BEGIN BOND
M  V30 1 1 1 2
M  V30 2 1 2 3
M  V30 3 1 3 4
M  V30 4 1 4 5
M  V30 5 1 5 6
M  V30 6 1 6 7
M  V30 7 1 7 8
M  V30 8 1 8 9
M  V30 9 1 9 10
M  V30 10 1 10 11
M  V30 11 1 11 12
M  V30 12 1 12 13
M  V30 13 2 13 14
M  V30 14 1 14 15
M  V30 15 2 15 16
M  V30 16 1 16 17
M  V30 17 2 17 18
M  V30 18 2 17 19
M  V30 19 1 17 20
M  V30 20 1 20 21
M  V30 21 2 21 22
M  V30 22 1 22 23
M  V30 23 2 23 24
M  V30 24 1 24 25
M  V30 25 1 25 26
M  V30 26 1 24 27
M  V30 27 1 16 28
M  V30 28 2 28 29
M  V30 29 1 29 13
M  V30 30 1 27 21
M  V30 31 1 1 30
M  V30 32 1 1 31
M  V30 33 1 1 32
M  V30 34 1 2 33
M  V30 35 1 2 34
M  V30 36 1 3 35
M  V30 37 1 3 36
M  V30 38 1 4 37
M  V30 39 1 4 38
M  V30 40 1 5 39
M  V30 41 1 5 40
M  V30 42 1 6 41
M  V30 43 1 6 42
M  V30 44 1 7 43
M  V30 45 1 7 44
M  V30 46 1 8 45
M  V30 47 1 8 46
M  V30 48 1 9 47
M  V30 49 1 9 48
M  V30 50 1 10 49
M  V30 51 1 10 50
M  V30 52 1 11 51
M  V30 53 1 11 52
M  V30 54 1 12 53
M  V30 55 1 12 54
M  V30 56 1 14 55
M  V30 57 1 15 56
M  V30 58 1 20 57
M  V30 59 1 25 58
M  V30 60 1 25 59
M  V30 61 1 26 60
M  V30 62 1 26 61
M  V30 63 1 26 62
M  V30 64 1 28 63
M  V30 65 1 29 64
M  V30 END BOND
M  V30 END CTAB
M  END
>  <Dataset>  (477) 
ChEMBL_Kinases

>  <Ligand_Instance>  (477) 
nan

>  <PDB_ID>  (477) 
nan

>  <Standardized_SMILES>  (477) 
CCCCCCCCCCCCc1ccc(S(=O)(=O)Nc2nnc(CC)s2)cc1

>  <Name>  (477) 
nan

>  <Pocket>  (477) 
nan

>  <ATP_Site>  (477) 
nan

>  <Peripheral>  (477) 
nan

>  <Num_H_Atoms_ProtBoundConf>  (477) 
nan

>  <Num_Resolved_Atoms>  (477) 
nan

>  <Num_Not_Resolved_Atoms>  (477) 
nan

$$$$
CHEMBL1685057
     RDKit          3D

  0  0  0  0  0  0  0  0  0  0999 V3000
M  V30 BEGIN CTAB
M  V30 COUNTS 62 63 0 0 0
M  V30 BEGIN ATOM
M  V30 1 C 4.066649 -5.017356 4.347665 0
M  V30 2 C 4.858256 -3.979904 3.546370 0
M  V30 3 C 3.882622 -3.201431 2.655467 0
M  V30 4 C 4.672115 -2.177858 1.866047 0
M  V30 5 C 3.774855 -1.357839 0.951493 0
M  V30 6 C 3.053810 -2.201536 -0.040431 0
M  V30 7 C 2.189599 -1.345741 -0.923518 0
M  V30 8 C 1.140707 -0.570513 -0.180052 0
M  V30 9 C 0.257644 0.278085 -1.103905 0
M  V30 10 C 1.028308 1.295341 -1.879345 0
M  V30 11 C 0.300361 2.172579 -2.812313 0
M  V30 12 C -0.710527 3.130309 -2.380742 0
M  V30 13 C -1.919660 2.748622 -1.696510 0
M  V30 14 C -2.311878 2.738151 -0.350368 0
M  V30 15 C -3.540873 2.320457 0.098966 0
M  V30 16 C -4.482843 1.873288 -0.798689 0
M  V30 17 S -6.054435 1.329494 -0.261228 0
M  V30 18 O -6.396714 2.081050 1.007873 0
M  V30 19 O -7.103271 1.761829 -1.265469 0
M  V30 20 N -6.093648 -0.364868 -0.008269 0
M  V30 21 C -5.250425 -0.861060 0.945724 0
M  V30 22 N -4.259123 -0.265734 1.863972 0
M  V30 23 N -3.705532 -1.112550 2.580488 0
M  V30 24 C -3.778468 -2.320708 2.714070 0
M  V30 25 C -3.223411 -3.420817 3.476576 0
M  V30 26 O -2.091799 -3.961299 2.836605 0
M  V30 27 S -5.109146 -2.693410 1.407798 0
M  V30 28 C -4.176905 1.851693 -2.140987 0
M  V30 29 C -2.932227 2.279610 -2.549002 0
M  V30 30 H 3.053812 -4.632801 4.593194 0
M  V30 31 H 3.997005 -5.945905 3.753142 0
M  V30 32 H 4.584533 -5.257560 5.294265 0
M  V30 33 H 5.610377 -4.499543 2.919176 0
M  V30 34 H 5.349466 -3.267910 4.245187 0
M  V30 35 H 3.413470 -3.936173 1.984615 0
M  V30 36 H 3.150516 -2.723359 3.317278 0
M  V30 37 H 5.517537 -2.643867 1.333034 0
M  V30 38 H 5.128975 -1.460242 2.585094 0
M  V30 39 H 4.462819 -0.688340 0.390155 0
M  V30 40 H 3.163180 -0.727012 1.597945 0
M  V30 41 H 3.823022 -2.664793 -0.706871 0
M  V30 42 H 2.476912 -3.034526 0.415640 0
M  V30 43 H 1.698969 -1.976888 -1.700417 0
M  V30 44 H 2.907124 -0.689231 -1.489021 0
M  V30 45 H 1.641296 0.077313 0.568332 0
M  V30 46 H 0.455443 -1.293209 0.297084 0
M  V30 47 H -0.230970 -0.482385 -1.792058 0
M  V30 48 H -0.543203 0.731554 -0.533615 0
M  V30 49 H 1.632026 1.866946 -1.122467 0
M  V30 50 H 1.845104 0.707581 -2.421498 0
M  V30 51 H 1.118816 2.792755 -3.335064 0
M  V30 52 H -0.078136 1.553217 -3.689950 0
M  V30 53 H -1.022878 3.709233 -3.323492 0
M  V30 54 H -0.189727 3.948540 -1.773532 0
M  V30 55 H -1.482272 3.114620 0.271301 0
M  V30 56 H -3.713293 2.367416 1.160228 0
M  V30 57 H -6.675861 -1.080341 -0.483777 0
M  V30 58 H -3.989174 -4.238951 3.549074 0
M  V30 59 H -2.931216 -3.061993 4.461899 0
M  V30 60 H -2.313768 -4.105062 1.869952 0
M  V30 61 H -4.935651 1.496475 -2.816923 0
M  V30 62 H -2.809475 2.214315 -3.642485 0
M  V30 END ATOM
M  V30 BEGIN BOND
M  V30 1 1 1 2
M  V30 2 1 2 3
M  V30 3 1 3 4
M  V30 4 1 4 5
M  V30 5 1 5 6
M  V30 6 1 6 7
M  V30 7 1 7 8
M  V30 8 1 8 9
M  V30 9 1 9 10
M  V30 10 1 10 11
M  V30 11 1 11 12
M  V30 12 1 12 13
M  V30 13 2 13 14
M  V30 14 1 14 15
M  V30 15 2 15 16
M  V30 16 1 16 17
M  V30 17 2 17 18
M  V30 18 2 17 19
M  V30 19 1 17 20
M  V30 20 1 20 21
M  V30 21 2 21 22
M  V30 22 1 22 23
M  V30 23 2 23 24
M  V30 24 1 24 25
M  V30 25 1 25 26
M  V30 26 1 24 27
M  V30 27 1 16 28
M  V30 28 2 28 29
M  V30 29 1 29 13
M  V30 30 1 27 21
M  V30 31 1 1 30
M  V30 32 1 1 31
M  V30 33 1 1 32
M  V30 34 1 2 33
M  V30 35 1 2 34
M  V30 36 1 3 35
M  V30 37 1 3 36
M  V30 38 1 4 37
M  V30 39 1 4 38
M  V30 40 1 5 39
M  V30 41 1 5 40
M  V30 42 1 6 41
M  V30 43 1 6 42
M  V30 44 1 7 43
M  V30 45 1 7 44
M  V30 46 1 8 45
M  V30 47 1 8 46
M  V30 48 1 9 47
M  V30 49 1 9 48
M  V30 50 1 10 49
M  V30 51 1 10 50
M  V30 52 1 11 51
M  V30 53 1 11 52
M  V30 54 1 12 53
M  V30 55 1 12 54
M  V30 56 1 14 55
M  V30 57 1 15 56
M  V30 58 1 20 57
M  V30 59 1 25 58
M  V30 60 1 25 59
M  V30 61 1 26 60
M  V30 62 1 28 61
M  V30 63 1 29 62
M  V30 END BOND
M  V30 END CTAB
M  END
>  <Dataset>  (478) 
ChEMBL_Kinases

>  <Ligand_Instance>  (478) 
nan

>  <PDB_ID>  (478) 
nan

>  <Standardized_SMILES>  (478) 
CCCCCCCCCCCCc1ccc(S(=O)(=O)Nc2nnc(CO)s2)cc1

>  <Name>  (478) 
nan

>  <Pocket>  (478) 
nan

>  <ATP_Site>  (478) 
nan

>  <Peripheral>  (478) 
nan

>  <Num_H_Atoms_ProtBoundConf>  (478) 
nan

>  <Num_Resolved_Atoms>  (478) 
nan

>  <Num_Not_Resolved_Atoms>  (478) 
nan

$$$$
CHEMBL1685059
     RDKit          3D

  0  0  0  0  0  0  0  0  0  0999 V3000
M  V30 BEGIN CTAB
M  V30 COUNTS 32 34 0 0 0
M  V30 BEGIN ATOM
M  V30 1 O -0.117119 3.819300 1.145676 0
M  V30 2 S 0.973017 2.789870 1.368857 0
M  V30 3 O 1.543850 2.968840 2.760824 0
M  V30 4 N 2.223512 3.049641 0.251859 0
M  V30 5 C 3.298881 2.129680 0.408775 0
M  V30 6 N 3.696617 1.227777 1.015427 0
M  V30 7 N 4.825696 0.607562 0.841438 0
M  V30 8 C 5.636117 0.880504 0.014503 0
M  V30 9 S 4.740920 2.358482 -0.811046 0
M  V30 10 C 0.230936 1.217013 1.218868 0
M  V30 11 C 0.617731 0.083406 1.883829 0
M  V30 12 C -0.008560 -1.137720 1.725053 0
M  V30 13 C -1.082439 -1.249355 0.857714 0
M  V30 14 C -1.752163 -2.545098 0.686909 0
M  V30 15 C -2.299436 -2.788446 -0.564898 0
M  V30 16 C -2.948884 -4.004988 -0.778358 0
M  V30 17 C -3.024611 -4.917655 0.253956 0
M  V30 18 C -2.476075 -4.664525 1.496363 0
M  V30 19 C -1.831506 -3.465347 1.719023 0
M  V30 20 C -1.524233 -0.133236 0.151988 0
M  V30 21 C -0.856638 1.082557 0.346925 0
M  V30 22 H 2.168203 3.823181 -0.465340 0
M  V30 23 H 6.515034 0.247200 0.025586 0
M  V30 24 H 1.474070 0.212127 2.562988 0
M  V30 25 H 0.372409 -1.993360 2.300169 0
M  V30 26 H -2.228631 -2.057784 -1.362394 0
M  V30 27 H -3.356300 -4.139365 -1.776470 0
M  V30 28 H -3.553081 -5.810108 -0.051908 0
M  V30 29 H -2.580601 -5.429026 2.244817 0
M  V30 30 H -1.395803 -3.248644 2.684281 0
M  V30 31 H -2.361189 -0.188505 -0.533285 0
M  V30 32 H -1.221836 1.931722 -0.214753 0
M  V30 END ATOM
M  V30 BEGIN BOND
M  V30 1 2 1 2
M  V30 2 2 2 3
M  V30 3 1 2 4
M  V30 4 1 4 5
M  V30 5 2 5 6
M  V30 6 1 6 7
M  V30 7 2 7 8
M  V30 8 1 8 9
M  V30 9 1 2 10
M  V30 10 2 10 11
M  V30 11 1 11 12
M  V30 12 2 12 13
M  V30 13 1 13 14
M  V30 14 2 14 15
M  V30 15 1 15 16
M  V30 16 2 16 17
M  V30 17 1 17 18
M  V30 18 2 18 19
M  V30 19 1 13 20
M  V30 20 2 20 21
M  V30 21 1 9 5
M  V30 22 1 21 10
M  V30 23 1 19 14
M  V30 24 1 4 22
M  V30 25 1 8 23
M  V30 26 1 11 24
M  V30 27 1 12 25
M  V30 28 1 15 26
M  V30 29 1 16 27
M  V30 30 1 17 28
M  V30 31 1 18 29
M  V30 32 1 19 30
M  V30 33 1 20 31
M  V30 34 1 21 32
M  V30 END BOND
M  V30 END CTAB
M  END
>  <Dataset>  (479) 
ChEMBL_Kinases

>  <Ligand_Instance>  (479) 
nan

>  <PDB_ID>  (479) 
nan

>  <Standardized_SMILES>  (479) 
O=S(=O)(Nc1nncs1)c1ccc(-c2ccccc2)cc1

>  <Name>  (479) 
nan

>  <Pocket>  (479) 
nan

>  <ATP_Site>  (479) 
nan

>  <Peripheral>  (479) 
nan

>  <Num_H_Atoms_ProtBoundConf>  (479) 
nan

>  <Num_Resolved_Atoms>  (479) 
nan

>  <Num_Not_Resolved_Atoms>  (479) 
nan

$$$$
CHEMBL1685064
     RDKit          3D

  0  0  0  0  0  0  0  0  0  0999 V3000
M  V30 BEGIN CTAB
M  V30 COUNTS 58 59 0 0 0
M  V30 BEGIN ATOM
M  V30 1 C 1.790426 -4.809791 4.921150 0
M  V30 2 C 3.081140 -4.451493 4.247411 0
M  V30 3 C 3.038816 -3.050113 3.654633 0
M  V30 4 C 1.907716 -2.994096 2.619661 0
M  V30 5 C 1.813101 -1.608661 1.986651 0
M  V30 6 C 0.706095 -1.520992 0.961563 0
M  V30 7 C -0.647468 -1.810946 1.543375 0
M  V30 8 C -1.051002 -0.887557 2.631518 0
M  V30 9 C -1.186954 0.560742 2.283794 0
M  V30 10 C -2.265516 0.755582 1.257852 0
M  V30 11 C -2.541011 2.154333 0.899980 0
M  V30 12 C -1.531887 3.002872 0.266119 0
M  V30 13 C -1.144394 2.598290 -1.100662 0
M  V30 14 C -1.943405 3.234147 -2.078609 0
M  V30 15 C -1.801247 3.072924 -3.461765 0
M  V30 16 C -0.827639 2.246614 -3.922567 0
M  V30 17 C -0.039338 1.616843 -2.984962 0
M  V30 18 S 1.235206 0.585275 -3.586525 0
M  V30 19 O 2.165588 0.160339 -2.487183 0
M  V30 20 O 1.998563 1.324232 -4.637723 0
M  V30 21 N 0.516614 -0.778704 -4.340716 0
M  V30 22 C -0.326959 -1.868632 -4.005876 0
M  V30 23 N -0.995715 -2.952512 -4.241769 0
M  V30 24 N -1.676467 -3.522046 -3.364877 0
M  V30 25 C -1.829866 -3.166014 -2.153661 0
M  V30 26 S -0.752484 -1.615434 -2.182886 0
M  V30 27 C -0.179199 1.775156 -1.632962 0
M  V30 28 H 1.930831 -5.319024 5.891791 0
M  V30 29 H 1.145753 -3.909915 5.037689 0
M  V30 30 H 1.184905 -5.528472 4.295594 0
M  V30 31 H 3.342515 -5.165880 3.445868 0
M  V30 32 H 3.911139 -4.481924 4.983319 0
M  V30 33 H 2.815373 -2.316234 4.446215 0
M  V30 34 H 4.005602 -2.788298 3.187689 0
M  V30 35 H 0.954701 -3.320323 3.075889 0
M  V30 36 H 2.175532 -3.747531 1.851235 0
M  V30 37 H 1.800030 -0.816215 2.742926 0
M  V30 38 H 2.762732 -1.487045 1.413929 0
M  V30 39 H 0.756541 -0.513996 0.536642 0
M  V30 40 H 0.933667 -2.264099 0.193134 0
M  V30 41 H -0.720426 -2.892341 1.862571 0
M  V30 42 H -1.385003 -1.734564 0.721479 0
M  V30 43 H -2.029695 -1.302765 3.041452 0
M  V30 44 H -0.352653 -1.054930 3.486639 0
M  V30 45 H -1.516178 1.088463 3.195500 0
M  V30 46 H -0.187239 0.886699 1.935553 0
M  V30 47 H -3.176457 0.248791 1.632855 0
M  V30 48 H -1.952821 0.167338 0.349677 0
M  V30 49 H -3.474147 2.160313 0.249509 0
M  V30 50 H -2.932415 2.677581 1.832196 0
M  V30 51 H -0.595908 3.130110 0.895513 0
M  V30 52 H -1.897029 4.069957 0.224082 0
M  V30 53 H -2.756309 3.919184 -1.836639 0
M  V30 54 H -2.434383 3.579118 -4.172640 0
M  V30 55 H -0.668673 2.082362 -4.976760 0
M  V30 56 H 0.640229 -1.018634 -5.343590 0
M  V30 57 H -2.443520 -3.761903 -1.535831 0
M  V30 58 H 0.395198 1.325968 -0.867182 0
M  V30 END ATOM
M  V30 BEGIN BOND
M  V30 1 1 1 2
M  V30 2 1 2 3
M  V30 3 1 3 4
M  V30 4 1 4 5
M  V30 5 1 5 6
M  V30 6 1 6 7
M  V30 7 1 7 8
M  V30 8 1 8 9
M  V30 9 1 9 10
M  V30 10 1 10 11
M  V30 11 1 11 12
M  V30 12 1 12 13
M  V30 13 2 13 14
M  V30 14 1 14 15
M  V30 15 2 15 16
M  V30 16 1 16 17
M  V30 17 1 17 18
M  V30 18 2 18 19
M  V30 19 2 18 20
M  V30 20 1 18 21
M  V30 21 1 21 22
M  V30 22 2 22 23
M  V30 23 1 23 24
M  V30 24 2 24 25
M  V30 25 1 25 26
M  V30 26 2 17 27
M  V30 27 1 27 13
M  V30 28 1 26 22
M  V30 29 1 1 28
M  V30 30 1 1 29
M  V30 31 1 1 30
M  V30 32 1 2 31
M  V30 33 1 2 32
M  V30 34 1 3 33
M  V30 35 1 3 34
M  V30 36 1 4 35
M  V30 37 1 4 36
M  V30 38 1 5 37
M  V30 39 1 5 38
M  V30 40 1 6 39
M  V30 41 1 6 40
M  V30 42 1 7 41
M  V30 43 1 7 42
M  V30 44 1 8 43
M  V30 45 1 8 44
M  V30 46 1 9 45
M  V30 47 1 9 46
M  V30 48 1 10 47
M  V30 49 1 10 48
M  V30 50 1 11 49
M  V30 51 1 11 50
M  V30 52 1 12 51
M  V30 53 1 12 52
M  V30 54 1 14 53
M  V30 55 1 15 54
M  V30 56 1 16 55
M  V30 57 1 21 56
M  V30 58 1 25 57
M  V30 59 1 27 58
M  V30 END BOND
M  V30 END CTAB
M  END
>  <Dataset>  (480) 
ChEMBL_Kinases

>  <Ligand_Instance>  (480) 
nan

>  <PDB_ID>  (480) 
nan

>  <Standardized_SMILES>  (480) 
CCCCCCCCCCCCc1cccc(S(=O)(=O)Nc2nncs2)c1

>  <Name>  (480) 
nan

>  <Pocket>  (480) 
nan

>  <ATP_Site>  (480) 
nan

>  <Peripheral>  (480) 
nan

>  <Num_H_Atoms_ProtBoundConf>  (480) 
nan

>  <Num_Resolved_Atoms>  (480) 
nan

>  <Num_Not_Resolved_Atoms>  (480) 
nan

$$$$
CHEMBL1685065
     RDKit          3D

  0  0  0  0  0  0  0  0  0  0999 V3000
M  V30 BEGIN CTAB
M  V30 COUNTS 149 149 0 0 0
M  V30 BEGIN ATOM
M  V30 1 C 3.970188 0.431914 -3.887720 0
M  V30 2 C 5.294652 -0.138310 -4.164795 0
M  V30 3 C 6.498904 0.725347 -4.140449 0
M  V30 4 C 6.822207 1.439555 -2.891986 0
M  V30 5 C 5.904718 2.534757 -2.447829 0
M  V30 6 C 5.982777 3.661025 -3.460675 0
M  V30 7 C 5.181764 4.859702 -3.150207 0
M  V30 8 C 3.662124 4.675480 -3.131142 0
M  V30 9 C 3.144291 4.351387 -4.470385 0
M  V30 10 C 1.719912 4.141648 -4.765273 0
M  V30 11 C 0.904534 3.082591 -4.134266 0
M  V30 12 C 0.639094 3.191574 -2.695567 0
M  V30 13 C -0.223894 2.039262 -2.160858 0
M  V30 14 C 0.396239 0.699691 -2.329135 0
M  V30 15 C -0.436663 -0.455246 -1.810384 0
M  V30 16 C -1.755503 -0.570719 -2.484445 0
M  V30 17 O -2.379788 0.128903 -3.355384 0
M  V30 18 O -2.431238 -1.701581 -2.051150 0
M  V30 19 C -3.718504 -1.962029 -2.611361 0
M  V30 20 C -4.304662 -3.232662 -2.095083 0 CFG=2
M  V30 21 C -4.556205 -3.280621 -0.628662 0
M  V30 22 O -5.443712 -2.245408 -0.291163 0
M  V30 23 P -6.249206 -2.619671 1.139691 0
M  V30 24 O -5.432322 -3.712858 1.835795 0
M  V30 25 O -7.822495 -3.159116 0.848429 0
M  V30 26 O -6.243064 -1.301197 2.186141 0
M  V30 27 C -4.903301 -1.025966 2.552026 0 CFG=1
M  V30 28 C -4.596508 0.413206 2.348615 0 CFG=2
M  V30 29 O -3.961185 0.519148 1.086707 0
M  V30 30 C -3.695732 1.054080 3.347287 0 CFG=1
M  V30 31 O -4.043724 2.428440 3.355092 0
M  V30 32 P -2.795062 3.392978 2.795194 0
M  V30 33 O -3.177139 4.015599 1.454440 0
M  V30 34 O -2.621828 4.682384 3.902002 0
M  V30 35 O -1.363571 2.517291 2.630892 0
M  V30 36 C -3.800616 0.534252 4.748034 0 CFG=2
M  V30 37 O -2.672722 -0.299386 4.932522 0
M  V30 38 P -1.679561 0.179687 6.176555 0
M  V30 39 O -1.642060 1.651011 6.433676 0
M  V30 40 O -0.080569 -0.298669 5.799216 0
M  V30 41 O -2.052115 -0.599055 7.638181 0
M  V30 42 C -4.992850 -0.362082 4.944740 0 CFG=1
M  V30 43 O -6.208823 0.203964 4.687598 0
M  V30 44 P -7.274517 0.167730 5.981992 0
M  V30 45 O -7.412126 -1.296798 6.399986 0
M  V30 46 O -6.788806 1.038453 7.313905 0
M  V30 47 O -8.777811 0.746267 5.469378 0
M  V30 48 C -4.793096 -1.513316 3.980868 0 CFG=1
M  V30 49 O -5.751202 -2.480246 4.281053 0
M  V30 50 O -3.418148 -4.301442 -2.414209 0
M  V30 51 C -3.786158 -5.348650 -3.228863 0
M  V30 52 O -4.962515 -5.321310 -3.685515 0
M  V30 53 C -3.105730 -6.561411 -3.723845 0
M  V30 54 C -1.643585 -6.568719 -3.352668 0
M  V30 55 C -0.986914 -5.373018 -3.984868 0
M  V30 56 C 0.476161 -5.283474 -3.692337 0
M  V30 57 C 0.803715 -5.173280 -2.222301 0
M  V30 58 C 2.297945 -5.103412 -2.098434 0
M  V30 59 C 2.829291 -4.989567 -0.719641 0
M  V30 60 C 2.383015 -3.761895 0.044726 0
M  V30 61 C 3.033320 -3.839990 1.379632 0
M  V30 62 C 2.769808 -2.738634 2.329041 0
M  V30 63 C 3.182569 -1.384182 1.861904 0
M  V30 64 C 2.851446 -0.401097 2.987966 0
M  V30 65 C 3.219660 1.000455 2.627168 0
M  V30 66 C 2.918689 1.991547 3.737342 0
M  V30 67 C 1.480888 2.045722 4.128076 0
M  V30 68 H 3.834729 1.453899 -4.263774 0
M  V30 69 H 3.217811 -0.180223 -4.491759 0
M  V30 70 H 3.605898 0.274625 -2.843812 0
M  V30 71 H 5.483008 -0.979470 -3.440793 0
M  V30 72 H 5.264283 -0.581840 -5.213835 0
M  V30 73 H 7.377659 0.041078 -4.353000 0
M  V30 74 H 6.419674 1.402911 -5.031868 0
M  V30 75 H 7.858398 1.901134 -2.919835 0
M  V30 76 H 6.947850 0.677585 -2.049021 0
M  V30 77 H 6.267585 2.908831 -1.458157 0
M  V30 78 H 4.916751 2.135331 -2.268920 0
M  V30 79 H 5.768197 3.295653 -4.484467 0
M  V30 80 H 7.048439 3.966242 -3.487746 0
M  V30 81 H 5.367397 5.621606 -3.934081 0
M  V30 82 H 5.439847 5.354884 -2.195541 0
M  V30 83 H 3.442393 3.928217 -2.321670 0
M  V30 84 H 3.245058 5.634419 -2.786526 0
M  V30 85 H 3.480471 5.272003 -5.119526 0
M  V30 86 H 3.719248 3.551557 -5.004455 0
M  V30 87 H 1.126160 5.118124 -4.644979 0
M  V30 88 H 1.676601 3.994281 -5.914077 0
M  V30 89 H -0.088453 3.097210 -4.716325 0
M  V30 90 H 1.290321 2.057848 -4.433749 0
M  V30 91 H 1.444277 3.404606 -2.000787 0
M  V30 92 H -0.064999 4.087011 -2.569524 0
M  V30 93 H -1.224743 2.140901 -2.584138 0
M  V30 94 H -0.314386 2.251001 -1.076330 0
M  V30 95 H 0.744611 0.470259 -3.375874 0
M  V30 96 H 1.357364 0.636383 -1.736550 0
M  V30 97 H -0.620984 -0.250000 -0.738878 0
M  V30 98 H 0.129293 -1.374712 -1.952235 0
M  V30 99 H -4.405387 -1.103977 -2.388527 0
M  V30 100 H -3.605983 -1.955986 -3.707826 0
M  V30 101 H -5.254151 -3.459912 -2.657185 0
M  V30 102 H -5.027787 -4.205428 -0.281968 0
M  V30 103 H -3.575047 -3.151756 -0.117258 0
M  V30 104 H -7.933184 -4.035947 1.312914 0
M  V30 105 H -4.205192 -1.656827 1.954216 0
M  V30 106 H -5.545569 1.019122 2.197479 0
M  V30 107 H -4.568871 0.731893 0.361519 0
M  V30 108 H -2.648976 1.010414 2.956928 0
M  V30 109 H -2.880508 4.405961 4.813804 0
M  V30 110 H -0.868122 2.722989 1.804597 0
M  V30 111 H -3.719587 1.330656 5.483285 0
M  V30 112 H 0.532615 -0.032595 6.523714 0
M  V30 113 H -1.427726 -1.331722 7.853675 0
M  V30 114 H -4.942245 -0.720616 5.993590 0
M  V30 115 H -5.853261 0.928861 7.589848 0
M  V30 116 H -8.609981 1.413750 4.761566 0
M  V30 117 H -3.783519 -1.945305 4.150731 0
M  V30 118 H -5.398042 -3.236231 4.777001 0
M  V30 119 H -3.638616 -7.450612 -3.331361 0
M  V30 120 H -3.178419 -6.540811 -4.851275 0
M  V30 121 H -1.590563 -6.388193 -2.240791 0
M  V30 122 H -1.148965 -7.513411 -3.583569 0
M  V30 123 H -1.490764 -4.451147 -3.674938 0
M  V30 124 H -1.188250 -5.458457 -5.086970 0
M  V30 125 H 0.885995 -4.417767 -4.254622 0
M  V30 126 H 0.950039 -6.177130 -4.151770 0
M  V30 127 H 0.494809 -6.158455 -1.772230 0
M  V30 128 H 0.247345 -4.388374 -1.714755 0
M  V30 129 H 2.676288 -6.089363 -2.499388 0
M  V30 130 H 2.744840 -4.355594 -2.792057 0
M  V30 131 H 3.942846 -4.922194 -0.791743 0
M  V30 132 H 2.524454 -5.885458 -0.141869 0
M  V30 133 H 1.274760 -3.908402 0.204946 0
M  V30 134 H 2.550773 -2.833973 -0.503285 0
M  V30 135 H 4.145384 -3.859613 1.200585 0
M  V30 136 H 2.778857 -4.835422 1.809377 0
M  V30 137 H 3.191548 -2.917281 3.331830 0
M  V30 138 H 1.659451 -2.693826 2.487954 0
M  V30 139 H 2.711359 -1.078419 0.909033 0
M  V30 140 H 4.289120 -1.366626 1.790739 0
M  V30 141 H 3.526420 -0.703802 3.822661 0
M  V30 142 H 1.833410 -0.511630 3.366432 0
M  V30 143 H 4.232665 1.118118 2.244813 0
M  V30 144 H 2.520204 1.297004 1.791370 0
M  V30 145 H 3.482765 1.609786 4.636946 0
M  V30 146 H 3.271633 2.990243 3.464836 0
M  V30 147 H 0.844735 1.275804 3.691622 0
M  V30 148 H 1.043642 3.049891 3.874898 0
M  V30 149 H 1.349187 1.979813 5.247680 0
M  V30 END ATOM
M  V30 BEGIN BOND
M  V30 1 1 1 2
M  V30 2 1 2 3
M  V30 3 1 3 4
M  V30 4 1 4 5
M  V30 5 1 5 6
M  V30 6 1 6 7
M  V30 7 1 7 8
M  V30 8 1 8 9
M  V30 9 1 9 10
M  V30 10 1 10 11
M  V30 11 1 11 12
M  V30 12 1 12 13
M  V30 13 1 13 14
M  V30 14 1 14 15
M  V30 15 1 15 16
M  V30 16 2 16 17
M  V30 17 1 16 18
M  V30 18 1 18 19
M  V30 19 1 19 20
M  V30 20 1 20 21
M  V30 21 1 21 22
M  V30 22 1 22 23
M  V30 23 2 23 24
M  V30 24 1 23 25
M  V30 25 1 23 26
M  V30 26 1 26 27
M  V30 27 1 27 28
M  V30 28 1 28 29
M  V30 29 1 28 30
M  V30 30 1 30 31
M  V30 31 1 31 32
M  V30 32 2 32 33
M  V30 33 1 32 34
M  V30 34 1 32 35
M  V30 35 1 30 36
M  V30 36 1 36 37
M  V30 37 1 37 38
M  V30 38 2 38 39
M  V30 39 1 38 40
M  V30 40 1 38 41
M  V30 41 1 36 42
M  V30 42 1 42 43
M  V30 43 1 43 44
M  V30 44 2 44 45
M  V30 45 1 44 46
M  V30 46 1 44 47
M  V30 47 1 42 48
M  V30 48 1 48 49
M  V30 49 1 20 50
M  V30 50 1 50 51
M  V30 51 2 51 52
M  V30 52 1 51 53
M  V30 53 1 53 54
M  V30 54 1 54 55
M  V30 55 1 55 56
M  V30 56 1 56 57
M  V30 57 1 57 58
M  V30 58 1 58 59
M  V30 59 1 59 60
M  V30 60 1 60 61
M  V30 61 1 61 62
M  V30 62 1 62 63
M  V30 63 1 63 64
M  V30 64 1 64 65
M  V30 65 1 65 66
M  V30 66 1 66 67
M  V30 67 1 48 27
M  V30 68 1 1 68
M  V30 69 1 1 69
M  V30 70 1 1 70
M  V30 71 1 2 71
M  V30 72 1 2 72
M  V30 73 1 3 73
M  V30 74 1 3 74
M  V30 75 1 4 75
M  V30 76 1 4 76
M  V30 77 1 5 77
M  V30 78 1 5 78
M  V30 79 1 6 79
M  V30 80 1 6 80
M  V30 81 1 7 81
M  V30 82 1 7 82
M  V30 83 1 8 83
M  V30 84 1 8 84
M  V30 85 1 9 85
M  V30 86 1 9 86
M  V30 87 1 10 87
M  V30 88 1 10 88
M  V30 89 1 11 89
M  V30 90 1 11 90
M  V30 91 1 12 91
M  V30 92 1 12 92
M  V30 93 1 13 93
M  V30 94 1 13 94
M  V30 95 1 14 95
M  V30 96 1 14 96
M  V30 97 1 15 97
M  V30 98 1 15 98
M  V30 99 1 19 99
M  V30 100 1 19 100
M  V30 101 1 20 101 CFG=3
M  V30 102 1 21 102
M  V30 103 1 21 103
M  V30 104 1 25 104
M  V30 105 1 27 105 CFG=3
M  V30 106 1 28 106 CFG=3
M  V30 107 1 29 107
M  V30 108 1 30 108 CFG=3
M  V30 109 1 34 109
M  V30 110 1 35 110
M  V30 111 1 36 111 CFG=1
M  V30 112 1 40 112
M  V30 113 1 41 113
M  V30 114 1 42 114 CFG=1
M  V30 115 1 46 115
M  V30 116 1 47 116
M  V30 117 1 48 117 CFG=3
M  V30 118 1 49 118
M  V30 119 1 53 119
M  V30 120 1 53 120
M  V30 121 1 54 121
M  V30 122 1 54 122
M  V30 123 1 55 123
M  V30 124 1 55 124
M  V30 125 1 56 125
M  V30 126 1 56 126
M  V30 127 1 57 127
M  V30 128 1 57 128
M  V30 129 1 58 129
M  V30 130 1 58 130
M  V30 131 1 59 131
M  V30 132 1 59 132
M  V30 133 1 60 133
M  V30 134 1 60 134
M  V30 135 1 61 135
M  V30 136 1 61 136
M  V30 137 1 62 137
M  V30 138 1 62 138
M  V30 139 1 63 139
M  V30 140 1 63 140
M  V30 141 1 64 141
M  V30 142 1 64 142
M  V30 143 1 65 143
M  V30 144 1 65 144
M  V30 145 1 66 145
M  V30 146 1 66 146
M  V30 147 1 67 147
M  V30 148 1 67 148
M  V30 149 1 67 149
M  V30 END BOND
M  V30 END CTAB
M  END
>  <Dataset>  (481) 
ChEMBL_Kinases

>  <Ligand_Instance>  (481) 
nan

>  <PDB_ID>  (481) 
nan

>  <Standardized_SMILES>  (481) 
CCCCCCCCCCCCCCCC(=O)OC[C@H](COP(=O)(O)O[C@H]1[C@H](O)[C@@H](OP(=O)(O)O)[C@H](OP(=O)(O)O)[C@@H](OP(=O)(O)O)[C@H]1O)OC(=O)CCCCCCCCCCCCCCC

>  <Name>  (481) 
PHOSPHATIDYLINOSITOL-TRISPHOSPHATE

>  <Pocket>  (481) 
nan

>  <ATP_Site>  (481) 
nan

>  <Peripheral>  (481) 
nan

>  <Num_H_Atoms_ProtBoundConf>  (481) 
nan

>  <Num_Resolved_Atoms>  (481) 
nan

>  <Num_Not_Resolved_Atoms>  (481) 
nan

$$$$
CHEMBL1686
     RDKit          3D

  0  0  0  0  0  0  0  0  0  0999 V3000
M  V30 BEGIN CTAB
M  V30 COUNTS 16 15 0 0 0
M  V30 BEGIN ATOM
M  V30 1 O 0.964075 -1.535902 2.049967 0
M  V30 2 C -0.027540 -0.926532 1.561781 0
M  V30 3 O -0.832696 -2.012476 1.434692 0
M  V30 4 C 0.167252 0.524786 1.390530 0
M  V30 5 C 1.535734 0.983281 1.835793 0
M  V30 6 C 2.576730 0.285607 1.018658 0
M  V30 7 O 3.333864 -0.619378 1.491667 0
M  V30 8 C 2.467524 0.887327 -0.326060 0
M  V30 9 O 1.904805 1.708539 -1.066922 0
M  V30 10 O 3.407726 0.281963 -1.159296 0
M  V30 11 H -0.682103 -2.719363 0.703896 0
M  V30 12 H -0.643519 1.104299 1.916728 0
M  V30 13 H 0.116488 0.779541 0.299230 0
M  V30 14 H 1.602614 2.062777 1.745656 0
M  V30 15 H 1.610492 0.677251 2.905689 0
M  V30 16 H 3.206465 0.054060 -2.130459 0
M  V30 END ATOM
M  V30 BEGIN BOND
M  V30 1 2 1 2
M  V30 2 1 2 3
M  V30 3 1 2 4
M  V30 4 1 4 5
M  V30 5 1 5 6
M  V30 6 2 6 7
M  V30 7 1 6 8
M  V30 8 2 8 9
M  V30 9 1 8 10
M  V30 10 1 3 11
M  V30 11 1 4 12
M  V30 12 1 4 13
M  V30 13 1 5 14
M  V30 14 1 5 15
M  V30 15 1 10 16
M  V30 END BOND
M  V30 END CTAB
M  END
>  <Dataset>  (482) 
ChEMBL_Kinases

>  <Ligand_Instance>  (482) 
nan

>  <PDB_ID>  (482) 
nan

>  <Standardized_SMILES>  (482) 
O=C(O)CCC(=O)C(=O)O

>  <Name>  (482) 
ALPHA-KETOGLUTARIC ACID

>  <Pocket>  (482) 
nan

>  <ATP_Site>  (482) 
nan

>  <Peripheral>  (482) 
nan

>  <Num_H_Atoms_ProtBoundConf>  (482) 
nan

>  <Num_Resolved_Atoms>  (482) 
nan

>  <Num_Not_Resolved_Atoms>  (482) 
nan

$$$$
CHEMBL1688213
     RDKit          3D

  0  0  0  0  0  0  0  0  0  0999 V3000
M  V30 BEGIN CTAB
M  V30 COUNTS 20 21 0 0 0
M  V30 BEGIN ATOM
M  V30 1 N -1.926544 1.028844 2.520023 0
M  V30 2 C -1.309803 0.473721 1.363954 0
M  V30 3 O -2.219336 0.300872 0.509806 0
M  V30 4 C 0.096904 0.173825 1.221004 0
M  V30 5 C 1.021625 0.398806 2.216733 0
M  V30 6 C 2.350217 0.094297 2.026783 0
M  V30 7 C 2.806564 -0.449184 0.828535 0
M  V30 8 C 1.833770 -0.655422 -0.140389 0
M  V30 9 C 2.055298 -1.185978 -1.410692 0
M  V30 10 C 0.809677 -1.195055 -1.993079 0
M  V30 11 N -0.110062 -0.705143 -1.141011 0
M  V30 12 C 0.491271 -0.362261 0.014028 0
M  V30 13 H -2.104662 2.041282 2.531764 0
M  V30 14 H -2.279924 0.654379 3.444276 0
M  V30 15 H 0.706498 0.819930 3.162477 0
M  V30 16 H 3.072322 0.273216 2.812681 0
M  V30 17 H 3.841530 -0.691577 0.667218 0
M  V30 18 H 2.967537 -1.531064 -1.892250 0
M  V30 19 H 0.581118 -1.546901 -3.004002 0
M  V30 20 H -1.123906 -0.607708 -1.344422 0
M  V30 END ATOM
M  V30 BEGIN BOND
M  V30 1 1 1 2
M  V30 2 2 2 3
M  V30 3 1 2 4
M  V30 4 2 4 5
M  V30 5 1 5 6
M  V30 6 2 6 7
M  V30 7 1 7 8
M  V30 8 1 8 9
M  V30 9 2 9 10
M  V30 10 1 10 11
M  V30 11 1 11 12
M  V30 12 1 12 4
M  V30 13 2 12 8
M  V30 14 1 1 13
M  V30 15 1 1 14
M  V30 16 1 5 15
M  V30 17 1 6 16
M  V30 18 1 7 17
M  V30 19 1 9 18
M  V30 20 1 10 19
M  V30 21 1 11 20
M  V30 END BOND
M  V30 END CTAB
M  END
>  <Dataset>  (483) 
ChEMBL_Kinases

>  <Ligand_Instance>  (483) 
nan

>  <PDB_ID>  (483) 
nan

>  <Standardized_SMILES>  (483) 
NC(=O)c1cccc2cc[nH]c12

>  <Name>  (483) 
nan

>  <Pocket>  (483) 
nan

>  <ATP_Site>  (483) 
nan

>  <Peripheral>  (483) 
nan

>  <Num_H_Atoms_ProtBoundConf>  (483) 
nan

>  <Num_Resolved_Atoms>  (483) 
nan

>  <Num_Not_Resolved_Atoms>  (483) 
nan

$$$$
CHEMBL1688205
     RDKit          3D

  0  0  0  0  0  0  0  0  0  0999 V3000
M  V30 BEGIN CTAB
M  V30 COUNTS 15 15 0 0 0
M  V30 BEGIN ATOM
M  V30 1 N 0.936358 -2.571219 0.398111 0
M  V30 2 C 0.769935 -1.453181 1.261064 0
M  V30 3 O 0.261149 -1.667910 2.390702 0
M  V30 4 C 1.174146 -0.115295 0.848366 0
M  V30 5 N 1.720615 0.202389 -0.328580 0
M  V30 6 N 1.957965 1.523767 -0.348432 0
M  V30 7 C 1.559475 2.053281 0.825842 0
M  V30 8 C 1.056037 1.023527 1.604070 0
M  V30 9 N 0.526305 1.122436 2.913860 0
M  V30 10 H 0.270909 -3.351215 0.167132 0
M  V30 11 H 1.629095 -3.011276 -0.239355 0
M  V30 12 H 2.382436 2.043393 -1.149337 0
M  V30 13 H 1.636301 3.102144 1.077335 0
M  V30 14 H 0.888075 0.956339 3.886795 0
M  V30 15 H -0.478040 1.441657 2.901749 0
M  V30 END ATOM
M  V30 BEGIN BOND
M  V30 1 1 1 2
M  V30 2 2 2 3
M  V30 3 1 2 4
M  V30 4 2 4 5
M  V30 5 1 5 6
M  V30 6 1 6 7
M  V30 7 2 7 8
M  V30 8 1 8 9
M  V30 9 1 8 4
M  V30 10 1 1 10
M  V30 11 1 1 11
M  V30 12 1 6 12
M  V30 13 1 7 13
M  V30 14 1 9 14
M  V30 15 1 9 15
M  V30 END BOND
M  V30 END CTAB
M  END
>  <Dataset>  (484) 
ChEMBL_Kinases

>  <Ligand_Instance>  (484) 
nan

>  <PDB_ID>  (484) 
nan

>  <Standardized_SMILES>  (484) 
NC(=O)c1n[nH]cc1N

>  <Name>  (484) 
nan

>  <Pocket>  (484) 
nan

>  <ATP_Site>  (484) 
nan

>  <Peripheral>  (484) 
nan

>  <Num_H_Atoms_ProtBoundConf>  (484) 
nan

>  <Num_Resolved_Atoms>  (484) 
nan

>  <Num_Not_Resolved_Atoms>  (484) 
nan

$$$$
CHEMBL1688206
     RDKit          3D

  0  0  0  0  0  0  0  0  0  0999 V3000
M  V30 BEGIN CTAB
M  V30 COUNTS 18 19 0 0 0
M  V30 BEGIN ATOM
M  V30 1 C 1.918695 0.577466 3.079618 0
M  V30 2 N 2.812061 -0.404184 3.300747 0
M  V30 3 N 2.718393 -1.242291 2.302025 0
M  V30 4 C 1.782428 -0.837368 1.423951 0
M  V30 5 N 1.287361 0.319812 1.937088 0
M  V30 6 C 0.263133 1.114227 1.340394 0
M  V30 7 C -0.112803 0.706929 -0.038781 0
M  V30 8 C 1.045827 -0.008288 -0.682433 0
M  V30 9 C 1.193644 -1.307930 0.119772 0
M  V30 10 H 1.812660 1.406263 3.791755 0
M  V30 11 H -0.617448 1.135479 2.043740 0
M  V30 12 H 0.630634 2.174568 1.292829 0
M  V30 13 H -0.421170 1.536620 -0.701832 0
M  V30 14 H -1.002185 0.015342 0.024915 0
M  V30 15 H 0.921740 -0.191675 -1.756951 0
M  V30 16 H 1.959045 0.606593 -0.503445 0
M  V30 17 H 1.801058 -2.055590 -0.381464 0
M  V30 18 H 0.194903 -1.722582 0.367529 0
M  V30 END ATOM
M  V30 BEGIN BOND
M  V30 1 2 1 2
M  V30 2 1 2 3
M  V30 3 2 3 4
M  V30 4 1 4 5
M  V30 5 1 5 6
M  V30 6 1 6 7
M  V30 7 1 7 8
M  V30 8 1 8 9
M  V30 9 1 5 1
M  V30 10 1 9 4
M  V30 11 1 1 10
M  V30 12 1 6 11
M  V30 13 1 6 12
M  V30 14 1 7 13
M  V30 15 1 7 14
M  V30 16 1 8 15
M  V30 17 1 8 16
M  V30 18 1 9 17
M  V30 19 1 9 18
M  V30 END BOND
M  V30 END CTAB
M  END
>  <Dataset>  (485) 
ChEMBL_Kinases

>  <Ligand_Instance>  (485) 
nan

>  <PDB_ID>  (485) 
nan

>  <Standardized_SMILES>  (485) 
c1nnc2n1CCCC2

>  <Name>  (485) 
nan

>  <Pocket>  (485) 
nan

>  <ATP_Site>  (485) 
nan

>  <Peripheral>  (485) 
nan

>  <Num_H_Atoms_ProtBoundConf>  (485) 
nan

>  <Num_Resolved_Atoms>  (485) 
nan

>  <Num_Not_Resolved_Atoms>  (485) 
nan

$$$$
CHEMBL1688207
     RDKit          3D

  0  0  0  0  0  0  0  0  0  0999 V3000
M  V30 BEGIN CTAB
M  V30 COUNTS 18 19 0 0 0
M  V30 BEGIN ATOM
M  V30 1 C -0.047736 0.124931 3.675472 0
M  V30 2 N -0.159117 -0.076230 2.230104 0
M  V30 3 C 0.950837 0.135571 1.373112 0
M  V30 4 N 2.118177 0.527642 1.913045 0
M  V30 5 C 3.217165 0.750029 1.172449 0
M  V30 6 N 3.165066 0.576453 -0.180165 0
M  V30 7 C 2.010205 0.185590 -0.739725 0
M  V30 8 N 1.664418 -0.062133 -2.019690 0
M  V30 9 N 0.389640 -0.425332 -2.056411 0
M  V30 10 C -0.146109 -0.432028 -0.829580 0
M  V30 11 C 0.874101 -0.047656 -0.002614 0
M  V30 12 H -0.707457 -0.544771 4.227622 0
M  V30 13 H -0.265470 1.169767 3.959531 0
M  V30 14 H 0.991941 -0.075147 4.005796 0
M  V30 15 H -1.091322 -0.379382 1.883563 0
M  V30 16 H 4.086485 1.061890 1.743805 0
M  V30 17 H 2.294527 0.015299 -2.870536 0
M  V30 18 H -1.157374 -0.681099 -0.526324 0
M  V30 END ATOM
M  V30 BEGIN BOND
M  V30 1 1 1 2
M  V30 2 1 2 3
M  V30 3 2 3 4
M  V30 4 1 4 5
M  V30 5 2 5 6
M  V30 6 1 6 7
M  V30 7 1 7 8
M  V30 8 1 8 9
M  V30 9 2 9 10
M  V30 10 1 10 11
M  V30 11 1 11 3
M  V30 12 2 11 7
M  V30 13 1 1 12
M  V30 14 1 1 13
M  V30 15 1 1 14
M  V30 16 1 2 15
M  V30 17 1 5 16
M  V30 18 1 8 17
M  V30 19 1 10 18
M  V30 END BOND
M  V30 END CTAB
M  END
>  <Dataset>  (486) 
ChEMBL_Kinases

>  <Ligand_Instance>  (486) 
nan

>  <PDB_ID>  (486) 
nan

>  <Standardized_SMILES>  (486) 
CNc1ncnc2[nH]ncc12

>  <Name>  (486) 
nan

>  <Pocket>  (486) 
nan

>  <ATP_Site>  (486) 
nan

>  <Peripheral>  (486) 
nan

>  <Num_H_Atoms_ProtBoundConf>  (486) 
nan

>  <Num_Resolved_Atoms>  (486) 
nan

>  <Num_Not_Resolved_Atoms>  (486) 
nan

$$$$
CHEMBL1688208
     RDKit          3D

  0  0  0  0  0  0  0  0  0  0999 V3000
M  V30 BEGIN CTAB
M  V30 COUNTS 18 19 0 0 0
M  V30 BEGIN ATOM
M  V30 1 C -1.998014 -0.007023 1.470201 0
M  V30 2 C -1.110260 -0.293681 2.485977 0
M  V30 3 C 0.258061 -0.265538 2.323511 0
M  V30 4 C 0.628486 0.074161 1.058478 0
M  V30 5 C 2.121242 0.128671 0.793671 0
M  V30 6 N 3.035245 -0.049058 1.407677 0
M  V30 7 C 4.318977 -0.004971 1.190190 0
M  V30 8 C 4.642382 0.340945 -0.095576 0
M  V30 9 S 2.896280 0.573829 -0.876466 0
M  V30 10 C -0.169705 0.378953 -0.027834 0
M  V30 11 C -1.521521 0.320950 0.243715 0
M  V30 12 H -3.073320 -0.057505 1.702174 0
M  V30 13 H -1.471999 -0.559613 3.479414 0
M  V30 14 H 1.011646 -0.471463 3.048182 0
M  V30 15 H 5.346805 -0.094061 1.473388 0
M  V30 16 H 5.228850 0.626989 -1.172565 0
M  V30 17 H 0.263843 0.634210 -0.985088 0
M  V30 18 H -2.219021 0.547596 -0.559592 0
M  V30 END ATOM
M  V30 BEGIN BOND
M  V30 1 2 1 2
M  V30 2 1 2 3
M  V30 3 2 3 4
M  V30 4 1 4 5
M  V30 5 2 5 6
M  V30 6 1 6 7
M  V30 7 2 7 8
M  V30 8 1 8 9
M  V30 9 1 4 10
M  V30 10 2 10 11
M  V30 11 1 11 1
M  V30 12 1 9 5
M  V30 13 1 1 12
M  V30 14 1 2 13
M  V30 15 1 3 14
M  V30 16 1 7 15
M  V30 17 1 8 16
M  V30 18 1 10 17
M  V30 19 1 11 18
M  V30 END BOND
M  V30 END CTAB
M  END
>  <Dataset>  (487) 
ChEMBL_Kinases

>  <Ligand_Instance>  (487) 
nan

>  <PDB_ID>  (487) 
nan

>  <Standardized_SMILES>  (487) 
c1ccc(-c2nccs2)cc1

>  <Name>  (487) 
2-PHENYLTHIAZOLE

>  <Pocket>  (487) 
nan

>  <ATP_Site>  (487) 
nan

>  <Peripheral>  (487) 
nan

>  <Num_H_Atoms_ProtBoundConf>  (487) 
nan

>  <Num_Resolved_Atoms>  (487) 
nan

>  <Num_Not_Resolved_Atoms>  (487) 
nan

$$$$
CHEMBL1688209
     RDKit          3D

  0  0  0  0  0  0  0  0  0  0999 V3000
M  V30 BEGIN CTAB
M  V30 COUNTS 15 16 0 0 0
M  V30 BEGIN ATOM
M  V30 1 O -1.456433 -1.076476 2.602576 0
M  V30 2 C -0.315274 -0.742501 2.123686 0
M  V30 3 C 0.752943 -1.385861 2.713591 0
M  V30 4 C 1.960164 -0.993123 2.164167 0
M  V30 5 Cl 3.466138 -1.667898 2.743563 0
M  V30 6 C 1.995055 -0.068559 1.156560 0
M  V30 7 S 3.374392 0.601439 0.288511 0
M  V30 8 C 2.325193 1.726795 -0.826776 0
M  V30 9 C 1.058146 1.438811 -0.385013 0
M  V30 10 C 0.891583 0.523656 0.625786 0
M  V30 11 N -0.298859 0.162690 1.139000 0
M  V30 12 H 0.677655 -2.108408 3.505920 0
M  V30 13 H 2.776383 2.334903 -1.533133 0
M  V30 14 H 0.309600 2.003295 -0.921809 0
M  V30 15 H -1.225925 0.550077 0.812692 0
M  V30 END ATOM
M  V30 BEGIN BOND
M  V30 1 2 1 2
M  V30 2 1 2 3
M  V30 3 2 3 4
M  V30 4 1 4 5
M  V30 5 1 4 6
M  V30 6 1 6 7
M  V30 7 1 7 8
M  V30 8 2 8 9
M  V30 9 1 9 10
M  V30 10 1 10 11
M  V30 11 1 11 2
M  V30 12 2 10 6
M  V30 13 1 3 12
M  V30 14 1 8 13
M  V30 15 1 9 14
M  V30 16 1 11 15
M  V30 END BOND
M  V30 END CTAB
M  END
>  <Dataset>  (488) 
ChEMBL_Kinases

>  <Ligand_Instance>  (488) 
nan

>  <PDB_ID>  (488) 
nan

>  <Standardized_SMILES>  (488) 
O=c1cc(Cl)c2sccc2[nH]1

>  <Name>  (488) 
nan

>  <Pocket>  (488) 
nan

>  <ATP_Site>  (488) 
nan

>  <Peripheral>  (488) 
nan

>  <Num_H_Atoms_ProtBoundConf>  (488) 
nan

>  <Num_Resolved_Atoms>  (488) 
nan

>  <Num_Not_Resolved_Atoms>  (488) 
nan

$$$$
CHEMBL1688210
     RDKit          3D

  0  0  0  0  0  0  0  0  0  0999 V3000
M  V30 BEGIN CTAB
M  V30 COUNTS 17 17 0 0 0
M  V30 BEGIN ATOM
M  V30 1 N -1.623118 -1.395298 1.393592 0
M  V30 2 C -0.549265 -1.013376 0.535784 0
M  V30 3 O -0.324082 -1.336306 -0.667255 0
M  V30 4 C 0.452258 -0.116814 1.107631 0
M  V30 5 N 0.417692 0.356707 2.368817 0
M  V30 6 N 1.349353 1.168221 2.843477 0
M  V30 7 C 2.402256 1.584913 2.109255 0
M  V30 8 N 3.334496 2.458882 2.741468 0
M  V30 9 N 2.496519 1.145001 0.831819 0
M  V30 10 C 1.528872 0.307048 0.351275 0
M  V30 11 N 1.711678 -0.098063 -0.988560 0
M  V30 12 H -2.408762 -0.746368 1.662995 0
M  V30 13 H -1.763581 -2.326699 1.845878 0
M  V30 14 H 4.288052 2.315165 2.381534 0
M  V30 15 H 2.990240 3.126444 3.468661 0
M  V30 16 H 2.298362 -0.612987 -1.664036 0
M  V30 17 H 1.115979 0.090586 -1.845309 0
M  V30 END ATOM
M  V30 BEGIN BOND
M  V30 1 1 1 2
M  V30 2 2 2 3
M  V30 3 1 2 4
M  V30 4 2 4 5
M  V30 5 1 5 6
M  V30 6 2 6 7
M  V30 7 1 7 8
M  V30 8 1 7 9
M  V30 9 2 9 10
M  V30 10 1 10 11
M  V30 11 1 10 4
M  V30 12 1 1 12
M  V30 13 1 1 13
M  V30 14 1 8 14
M  V30 15 1 8 15
M  V30 16 1 11 16
M  V30 17 1 11 17
M  V30 END BOND
M  V30 END CTAB
M  END
>  <Dataset>  (489) 
ChEMBL_Kinases

>  <Ligand_Instance>  (489) 
nan

>  <PDB_ID>  (489) 
nan

>  <Standardized_SMILES>  (489) 
NC(=O)c1nnc(N)nc1N

>  <Name>  (489) 
nan

>  <Pocket>  (489) 
nan

>  <ATP_Site>  (489) 
nan

>  <Peripheral>  (489) 
nan

>  <Num_H_Atoms_ProtBoundConf>  (489) 
nan

>  <Num_Resolved_Atoms>  (489) 
nan

>  <Num_Not_Resolved_Atoms>  (489) 
nan

$$$$
CHEMBL1688211
     RDKit          3D

  0  0  0  0  0  0  0  0  0  0999 V3000
M  V30 BEGIN CTAB
M  V30 COUNTS 17 18 0 0 0
M  V30 BEGIN ATOM
M  V30 1 N -1.663728 -1.430301 -0.457501 0
M  V30 2 C -0.531213 -1.043289 0.313857 0
M  V30 3 N 0.054670 -1.858371 1.236058 0
M  V30 4 N 1.120143 -1.434130 1.930743 0
M  V30 5 C 1.613989 -0.195212 1.715657 0
M  V30 6 C 2.709926 0.309541 2.394955 0
M  V30 7 C 3.164927 1.583433 2.128550 0
M  V30 8 C 2.567291 2.408849 1.190964 0
M  V30 9 C 1.457522 1.930087 0.486415 0
M  V30 10 C 1.043168 0.651027 0.790319 0
M  V30 11 N -0.038632 0.206301 0.092197 0
M  V30 12 H -2.361022 -1.876986 0.197057 0
M  V30 13 H -2.527094 -1.900668 -0.095300 0
M  V30 14 H 3.201060 -0.323249 3.141995 0
M  V30 15 H 4.037470 1.947234 2.688991 0
M  V30 16 H 2.925852 3.407777 0.983571 0
M  V30 17 H 0.942623 2.525015 -0.261503 0
M  V30 END ATOM
M  V30 BEGIN BOND
M  V30 1 1 1 2
M  V30 2 2 2 3
M  V30 3 1 3 4
M  V30 4 2 4 5
M  V30 5 1 5 6
M  V30 6 2 6 7
M  V30 7 1 7 8
M  V30 8 2 8 9
M  V30 9 1 9 10
M  V30 10 2 10 11
M  V30 11 1 11 2
M  V30 12 1 10 5
M  V30 13 1 1 12
M  V30 14 1 1 13
M  V30 15 1 6 14
M  V30 16 1 7 15
M  V30 17 1 8 16
M  V30 18 1 9 17
M  V30 END BOND
M  V30 END CTAB
M  END
>  <Dataset>  (490) 
ChEMBL_Kinases

>  <Ligand_Instance>  (490) 
nan

>  <PDB_ID>  (490) 
nan

>  <Standardized_SMILES>  (490) 
Nc1nnc2ccccc2n1

>  <Name>  (490) 
nan

>  <Pocket>  (490) 
nan

>  <ATP_Site>  (490) 
nan

>  <Peripheral>  (490) 
nan

>  <Num_H_Atoms_ProtBoundConf>  (490) 
nan

>  <Num_Resolved_Atoms>  (490) 
nan

>  <Num_Not_Resolved_Atoms>  (490) 
nan

$$$$
CHEMBL1688212
     RDKit          3D

  0  0  0  0  0  0  0  0  0  0999 V3000
M  V30 BEGIN CTAB
M  V30 COUNTS 20 21 0 0 0
M  V30 BEGIN ATOM
M  V30 1 O -2.296418 -0.435620 1.450274 0
M  V30 2 C -1.082688 -0.051520 1.444491 0
M  V30 3 N -0.624987 0.955712 2.364764 0
M  V30 4 C 0.450087 1.817821 1.854967 0
M  V30 5 C 1.629564 0.913788 1.546401 0
M  V30 6 C 1.182913 -0.128061 0.584960 0
M  V30 7 C 2.140448 -0.627120 -0.277720 0
M  V30 8 C 1.766539 -1.607067 -1.197762 0
M  V30 9 C 0.460795 -2.099149 -1.275930 0
M  V30 10 C -0.482013 -1.587206 -0.404528 0
M  V30 11 C -0.100295 -0.619671 0.499556 0
M  V30 12 H -1.078246 0.998608 3.301544 0
M  V30 13 H 0.175317 2.278248 0.886452 0
M  V30 14 H 0.703532 2.617383 2.557054 0
M  V30 15 H 1.992988 0.460477 2.490313 0
M  V30 16 H 2.440219 1.507128 1.085014 0
M  V30 17 H 3.151995 -0.287301 -0.261420 0
M  V30 18 H 2.504462 -2.022816 -1.895940 0
M  V30 19 H 0.160999 -2.848936 -1.975210 0
M  V30 20 H -1.535119 -1.905818 -0.383844 0
M  V30 END ATOM
M  V30 BEGIN BOND
M  V30 1 2 1 2
M  V30 2 1 2 3
M  V30 3 1 3 4
M  V30 4 1 4 5
M  V30 5 1 5 6
M  V30 6 2 6 7
M  V30 7 1 7 8
M  V30 8 2 8 9
M  V30 9 1 9 10
M  V30 10 2 10 11
M  V30 11 1 11 2
M  V30 12 1 11 6
M  V30 13 1 3 12
M  V30 14 1 4 13
M  V30 15 1 4 14
M  V30 16 1 5 15
M  V30 17 1 5 16
M  V30 18 1 7 17
M  V30 19 1 8 18
M  V30 20 1 9 19
M  V30 21 1 10 20
M  V30 END BOND
M  V30 END CTAB
M  END
>  <Dataset>  (491) 
ChEMBL_Kinases

>  <Ligand_Instance>  (491) 
nan

>  <PDB_ID>  (491) 
nan

>  <Standardized_SMILES>  (491) 
O=C1NCCc2ccccc21

>  <Name>  (491) 
nan

>  <Pocket>  (491) 
nan

>  <ATP_Site>  (491) 
nan

>  <Peripheral>  (491) 
nan

>  <Num_H_Atoms_ProtBoundConf>  (491) 
nan

>  <Num_Resolved_Atoms>  (491) 
nan

>  <Num_Not_Resolved_Atoms>  (491) 
nan

$$$$
CHEMBL1688204
     RDKit          3D

  0  0  0  0  0  0  0  0  0  0999 V3000
M  V30 BEGIN CTAB
M  V30 COUNTS 14 14 0 0 0
M  V30 BEGIN ATOM
M  V30 1 O -0.860300 -1.632200 1.018608 0
M  V30 2 C 0.493449 -1.872165 0.793905 0
M  V30 3 C 1.243304 -0.611945 1.079853 0
M  V30 4 C 1.551017 0.411490 0.200267 0
M  V30 5 C 2.249032 1.368047 0.892849 0
M  V30 6 O 2.720430 2.532866 0.338967 0
M  V30 7 N 2.360418 0.932849 2.160893 0
M  V30 8 N 1.760784 -0.252884 2.282678 0
M  V30 9 H -1.192833 -1.169106 0.187545 0
M  V30 10 H 0.872433 -2.720753 1.395886 0
M  V30 11 H 0.596353 -2.169247 -0.273053 0
M  V30 12 H 1.292885 0.459753 -0.847468 0
M  V30 13 H 2.887973 2.649880 -0.639298 0
M  V30 14 H 2.852910 1.472670 2.915559 0
M  V30 END ATOM
M  V30 BEGIN BOND
M  V30 1 1 1 2
M  V30 2 1 2 3
M  V30 3 1 3 4
M  V30 4 2 4 5
M  V30 5 1 5 6
M  V30 6 1 5 7
M  V30 7 1 7 8
M  V30 8 2 8 3
M  V30 9 1 1 9
M  V30 10 1 2 10
M  V30 11 1 2 11
M  V30 12 1 4 12
M  V30 13 1 6 13
M  V30 14 1 7 14
M  V30 END BOND
M  V30 END CTAB
M  END
>  <Dataset>  (492) 
ChEMBL_Kinases

>  <Ligand_Instance>  (492) 
nan

>  <PDB_ID>  (492) 
nan

>  <Standardized_SMILES>  (492) 
OCc1cc(O)[nH]n1

>  <Name>  (492) 
nan

>  <Pocket>  (492) 
nan

>  <ATP_Site>  (492) 
nan

>  <Peripheral>  (492) 
nan

>  <Num_H_Atoms_ProtBoundConf>  (492) 
nan

>  <Num_Resolved_Atoms>  (492) 
nan

>  <Num_Not_Resolved_Atoms>  (492) 
nan

$$$$
CHEMBL1835064
     RDKit          3D

  0  0  0  0  0  0  0  0  0  0999 V3000
M  V30 BEGIN CTAB
M  V30 COUNTS 49 51 0 0 0
M  V30 BEGIN ATOM
M  V30 1 C 0.307216 -5.744441 3.895397 0
M  V30 2 C 0.445569 -4.466004 3.116000 0
M  V30 3 C 1.386644 -3.531674 3.486024 0
M  V30 4 C 1.495882 -2.368454 2.758036 0
M  V30 5 C 0.649713 -2.202927 1.690358 0
M  V30 6 C -0.313711 -3.084364 1.256856 0
M  V30 7 N -1.184030 -2.910864 0.161249 0
M  V30 8 C -1.298756 -1.798246 -0.670405 0
M  V30 9 N -0.612496 -0.648097 -0.588841 0
M  V30 10 C -0.733316 0.403304 -1.394373 0
M  V30 11 N 0.049186 1.577777 -1.210991 0
M  V30 12 C 1.019054 1.803982 -0.187231 0 CFG=1
M  V30 13 C 1.733694 3.131249 -0.299961 0
M  V30 14 C 2.694838 3.300912 0.824516 0
M  V30 15 C 2.225458 2.887548 2.171747 0
M  V30 16 C 1.579438 1.501540 2.130893 0
M  V30 17 C 0.389062 1.670977 1.209297 0 CFG=1
M  V30 18 N -0.284415 2.933267 1.547367 0
M  V30 19 N -1.616257 0.360152 -2.405791 0
M  V30 20 C -2.371668 -0.741194 -2.599376 0
M  V30 21 C -2.179503 -1.769377 -1.724503 0
M  V30 22 C -3.028813 -2.918560 -1.998249 0
M  V30 23 N -3.983484 -3.043471 -3.041735 0
M  V30 24 O -3.384302 -4.058812 -1.697114 0
M  V30 25 C -0.366228 -4.231998 2.036791 0
M  V30 26 H -0.681807 -6.187700 3.643383 0
M  V30 27 H 1.113618 -6.469548 3.627746 0
M  V30 28 H 0.330594 -5.492896 4.962891 0
M  V30 29 H 1.991686 -3.780064 4.344383 0
M  V30 30 H 2.223627 -1.650216 3.047347 0
M  V30 31 H 0.786610 -1.274671 1.161810 0
M  V30 32 H -1.813439 -3.722631 -0.040417 0
M  V30 33 H -0.068278 2.380395 -1.872677 0
M  V30 34 H 1.784677 1.004811 -0.245092 0
M  V30 35 H 1.043935 3.983567 -0.419342 0
M  V30 36 H 2.346382 3.045623 -1.244152 0
M  V30 37 H 3.699235 2.853986 0.620317 0
M  V30 38 H 2.906953 4.408009 0.890434 0
M  V30 39 H 3.094574 2.808314 2.844194 0
M  V30 40 H 1.486543 3.606787 2.579406 0
M  V30 41 H 1.298489 1.175747 3.146355 0
M  V30 42 H 2.333269 0.832773 1.668122 0
M  V30 43 H -0.315659 0.849552 1.211117 0
M  V30 44 H -1.105467 2.753214 2.187944 0
M  V30 45 H -0.645529 3.403517 0.676265 0
M  V30 46 H -3.069912 -0.742459 -3.419949 0
M  V30 47 H -4.855240 -2.528678 -3.285682 0
M  V30 48 H -4.815812 -2.398291 -3.101370 0
M  V30 49 H -1.094922 -5.018818 1.796606 0
M  V30 END ATOM
M  V30 BEGIN BOND
M  V30 1 1 1 2
M  V30 2 2 2 3
M  V30 3 1 3 4
M  V30 4 2 4 5
M  V30 5 1 5 6
M  V30 6 1 6 7
M  V30 7 1 7 8
M  V30 8 2 8 9
M  V30 9 1 9 10
M  V30 10 1 10 11
M  V30 11 1 11 12
M  V30 12 1 12 13
M  V30 13 1 13 14
M  V30 14 1 14 15
M  V30 15 1 15 16
M  V30 16 1 16 17
M  V30 17 1 17 18
M  V30 18 2 10 19
M  V30 19 1 19 20
M  V30 20 2 20 21
M  V30 21 1 21 22
M  V30 22 1 22 23
M  V30 23 2 22 24
M  V30 24 2 6 25
M  V30 25 1 25 2
M  V30 26 1 21 8
M  V30 27 1 17 12
M  V30 28 1 1 26
M  V30 29 1 1 27
M  V30 30 1 1 28
M  V30 31 1 3 29
M  V30 32 1 4 30
M  V30 33 1 5 31
M  V30 34 1 7 32
M  V30 35 1 11 33
M  V30 36 1 12 34 CFG=1
M  V30 37 1 13 35
M  V30 38 1 13 36
M  V30 39 1 14 37
M  V30 40 1 14 38
M  V30 41 1 15 39
M  V30 42 1 15 40
M  V30 43 1 16 41
M  V30 44 1 16 42
M  V30 45 1 17 43 CFG=3
M  V30 46 1 18 44
M  V30 47 1 18 45
M  V30 48 1 20 46
M  V30 49 1 23 47
M  V30 50 1 23 48
M  V30 51 1 25 49
M  V30 END BOND
M  V30 END CTAB
M  END
>  <Dataset>  (493) 
ChEMBL_Kinases

>  <Ligand_Instance>  (493) 
nan

>  <PDB_ID>  (493) 
nan

>  <Standardized_SMILES>  (493) 
Cc1cccc(Nc2nc(N[C@H]3CCCC[C@H]3N)ncc2C(N)=O)c1

>  <Name>  (493) 
nan

>  <Pocket>  (493) 
nan

>  <ATP_Site>  (493) 
nan

>  <Peripheral>  (493) 
nan

>  <Num_H_Atoms_ProtBoundConf>  (493) 
nan

>  <Num_Resolved_Atoms>  (493) 
nan

>  <Num_Not_Resolved_Atoms>  (493) 
nan

$$$$
CHEMBL1835061
     RDKit          3D

  0  0  0  0  0  0  0  0  0  0999 V3000
M  V30 BEGIN CTAB
M  V30 COUNTS 46 48 0 0 0
M  V30 BEGIN ATOM
M  V30 1 C 0.380928 -7.171706 0.128866 0
M  V30 2 C 0.224854 -5.721630 0.419162 0
M  V30 3 C 0.554876 -5.311405 1.700786 0
M  V30 4 C 0.425610 -3.972358 2.017900 0
M  V30 5 C -0.032498 -3.108464 1.021762 0
M  V30 6 C -0.365674 -3.507812 -0.263618 0
M  V30 7 N -0.833796 -2.544991 -1.223785 0
M  V30 8 C -0.850309 -1.211213 -0.729860 0
M  V30 9 N 0.243820 -0.494261 -1.012335 0
M  V30 10 C 0.322253 0.792014 -0.571118 0
M  V30 11 N 1.438868 1.618767 -0.841506 0
M  V30 12 C 1.842452 2.958037 -0.491786 0
M  V30 13 C 2.135675 3.201256 0.929270 0 CFG=2
M  V30 14 C 1.049730 2.990835 1.923865 0
M  V30 15 C 1.545207 3.784293 3.143254 0
M  V30 16 C 2.821678 4.395647 2.650855 0
M  V30 17 N 2.600782 4.568761 1.230573 0
M  V30 18 N -0.713835 1.250583 0.121970 0
M  V30 19 C -1.831727 0.586893 0.436798 0
M  V30 20 C -1.894638 -0.707598 -0.015739 0
M  V30 21 C -3.058644 -1.527476 0.265352 0
M  V30 22 N -4.162195 -1.043704 1.013432 0
M  V30 23 O -3.043786 -2.712896 -0.195013 0
M  V30 24 C -0.228112 -4.850992 -0.556750 0
M  V30 25 H -0.343522 -7.708430 0.778939 0
M  V30 26 H 0.069378 -7.363898 -0.921649 0
M  V30 27 H 1.423820 -7.486212 0.338317 0
M  V30 28 H 0.908411 -6.002629 2.456383 0
M  V30 29 H 0.678102 -3.634963 3.009865 0
M  V30 30 H -0.105256 -2.087373 1.345413 0
M  V30 31 H -1.107231 -2.922269 -2.167581 0
M  V30 32 H 2.166031 1.132877 -1.455685 0
M  V30 33 H 2.676067 3.324015 -1.136947 0
M  V30 34 H 0.988384 3.664012 -0.769809 0
M  V30 35 H 3.022523 2.564583 1.224925 0
M  V30 36 H 0.069042 3.406418 1.604149 0
M  V30 37 H 0.970424 1.940695 2.245327 0
M  V30 38 H 0.781486 4.569785 3.413174 0
M  V30 39 H 1.723375 3.106675 4.005615 0
M  V30 40 H 3.072044 5.348375 3.158178 0
M  V30 41 H 3.634200 3.644769 2.740796 0
M  V30 42 H 1.747637 5.188280 1.134268 0
M  V30 43 H -2.649575 1.029155 1.013713 0
M  V30 44 H -4.943749 -1.017592 0.295630 0
M  V30 45 H -3.983331 -0.837161 2.014012 0
M  V30 46 H -0.481483 -5.166163 -1.541466 0
M  V30 END ATOM
M  V30 BEGIN BOND
M  V30 1 1 1 2
M  V30 2 2 2 3
M  V30 3 1 3 4
M  V30 4 2 4 5
M  V30 5 1 5 6
M  V30 6 1 6 7
M  V30 7 1 7 8
M  V30 8 2 8 9
M  V30 9 1 9 10
M  V30 10 1 10 11
M  V30 11 1 11 12
M  V30 12 1 12 13
M  V30 13 1 13 14
M  V30 14 1 14 15
M  V30 15 1 15 16
M  V30 16 1 16 17
M  V30 17 2 10 18
M  V30 18 1 18 19
M  V30 19 2 19 20
M  V30 20 1 20 21
M  V30 21 1 21 22
M  V30 22 2 21 23
M  V30 23 2 6 24
M  V30 24 1 24 2
M  V30 25 1 20 8
M  V30 26 1 17 13
M  V30 27 1 1 25
M  V30 28 1 1 26
M  V30 29 1 1 27
M  V30 30 1 3 28
M  V30 31 1 4 29
M  V30 32 1 5 30
M  V30 33 1 7 31
M  V30 34 1 11 32
M  V30 35 1 12 33
M  V30 36 1 12 34
M  V30 37 1 13 35 CFG=1
M  V30 38 1 14 36
M  V30 39 1 14 37
M  V30 40 1 15 38
M  V30 41 1 15 39
M  V30 42 1 16 40
M  V30 43 1 16 41
M  V30 44 1 17 42
M  V30 45 1 19 43
M  V30 46 1 22 44
M  V30 47 1 22 45
M  V30 48 1 24 46
M  V30 END BOND
M  V30 END CTAB
M  END
>  <Dataset>  (494) 
ChEMBL_Kinases

>  <Ligand_Instance>  (494) 
nan

>  <PDB_ID>  (494) 
nan

>  <Standardized_SMILES>  (494) 
Cc1cccc(Nc2nc(NC[C@@H]3CCCN3)ncc2C(N)=O)c1

>  <Name>  (494) 
nan

>  <Pocket>  (494) 
nan

>  <ATP_Site>  (494) 
nan

>  <Peripheral>  (494) 
nan

>  <Num_H_Atoms_ProtBoundConf>  (494) 
nan

>  <Num_Resolved_Atoms>  (494) 
nan

>  <Num_Not_Resolved_Atoms>  (494) 
nan

$$$$
CHEMBL1835058
     RDKit          3D

  0  0  0  0  0  0  0  0  0  0999 V3000
M  V30 BEGIN CTAB
M  V30 COUNTS 43 45 0 0 0
M  V30 BEGIN ATOM
M  V30 1 C -1.244032 -5.473412 3.544893 0
M  V30 2 C -0.374213 -4.399711 2.962804 0
M  V30 3 C 0.889108 -4.237235 3.449243 0
M  V30 4 C 1.640218 -3.235189 2.871662 0
M  V30 5 C 1.161942 -2.435253 1.862998 0
M  V30 6 C -0.125558 -2.663742 1.427649 0
M  V30 7 N -0.667555 -1.863806 0.387753 0
M  V30 8 C -0.137042 -0.822045 -0.387171 0
M  V30 9 N -0.166218 0.492706 -0.038094 0
M  V30 10 C 0.360018 1.439435 -0.833056 0
M  V30 11 N 0.319516 2.820854 -0.438253 0
M  V30 12 C -0.275539 3.200175 0.803539 0 CFG=1
M  V30 13 C 0.397900 2.574777 2.020775 0
M  V30 14 C 1.795580 3.147309 1.837831 0
M  V30 15 N 1.526597 4.535201 1.551880 0
M  V30 16 C 0.161259 4.648784 1.085236 0
M  V30 17 N 0.925155 1.065105 -1.997423 0
M  V30 18 C 0.992413 -0.212587 -2.411547 0
M  V30 19 C 0.443839 -1.158659 -1.573458 0
M  V30 20 C 0.518490 -2.540691 -2.026848 0
M  V30 21 N 1.104948 -2.940422 -3.238269 0
M  V30 22 O 0.143682 -3.620998 -1.552786 0
M  V30 23 C -0.952776 -3.638850 1.940597 0
M  V30 24 H -2.243478 -5.080644 3.764125 0
M  V30 25 H -0.813195 -5.900376 4.459262 0
M  V30 26 H -1.318468 -6.238731 2.723659 0
M  V30 27 H 1.258749 -4.870734 4.243439 0
M  V30 28 H 2.663345 -3.057547 3.221366 0
M  V30 29 H 1.777810 -1.639744 1.414730 0
M  V30 30 H -1.639360 -1.956054 0.022739 0
M  V30 31 H 0.746051 3.526000 -1.104628 0
M  V30 32 H -1.368011 3.108922 0.828736 0
M  V30 33 H 0.378061 1.494080 2.046398 0
M  V30 34 H -0.073670 3.056639 2.904359 0
M  V30 35 H 2.211844 2.668948 0.924464 0
M  V30 36 H 2.419960 2.988769 2.737653 0
M  V30 37 H 1.650257 5.070056 2.439606 0
M  V30 38 H 0.049964 5.279406 0.185133 0
M  V30 39 H -0.513665 5.007007 1.903981 0
M  V30 40 H 1.451625 -0.499275 -3.355435 0
M  V30 41 H 2.127846 -3.109382 -3.119686 0
M  V30 42 H 0.734087 -3.095481 -4.195866 0
M  V30 43 H -1.962517 -3.812989 1.594802 0
M  V30 END ATOM
M  V30 BEGIN BOND
M  V30 1 1 1 2
M  V30 2 2 2 3
M  V30 3 1 3 4
M  V30 4 2 4 5
M  V30 5 1 5 6
M  V30 6 1 6 7
M  V30 7 1 7 8
M  V30 8 2 8 9
M  V30 9 1 9 10
M  V30 10 1 10 11
M  V30 11 1 11 12
M  V30 12 1 12 13
M  V30 13 1 13 14
M  V30 14 1 14 15
M  V30 15 1 15 16
M  V30 16 2 10 17
M  V30 17 1 17 18
M  V30 18 2 18 19
M  V30 19 1 19 20
M  V30 20 1 20 21
M  V30 21 2 20 22
M  V30 22 2 6 23
M  V30 23 1 23 2
M  V30 24 1 19 8
M  V30 25 1 16 12
M  V30 26 1 1 24
M  V30 27 1 1 25
M  V30 28 1 1 26
M  V30 29 1 3 27
M  V30 30 1 4 28
M  V30 31 1 5 29
M  V30 32 1 7 30
M  V30 33 1 11 31
M  V30 34 1 12 32 CFG=3
M  V30 35 1 13 33
M  V30 36 1 13 34
M  V30 37 1 14 35
M  V30 38 1 14 36
M  V30 39 1 15 37
M  V30 40 1 16 38
M  V30 41 1 16 39
M  V30 42 1 18 40
M  V30 43 1 21 41
M  V30 44 1 21 42
M  V30 45 1 23 43
M  V30 END BOND
M  V30 END CTAB
M  END
>  <Dataset>  (495) 
ChEMBL_Kinases

>  <Ligand_Instance>  (495) 
nan

>  <PDB_ID>  (495) 
nan

>  <Standardized_SMILES>  (495) 
Cc1cccc(Nc2nc(N[C@H]3CCNC3)ncc2C(N)=O)c1

>  <Name>  (495) 
nan

>  <Pocket>  (495) 
nan

>  <ATP_Site>  (495) 
nan

>  <Peripheral>  (495) 
nan

>  <Num_H_Atoms_ProtBoundConf>  (495) 
nan

>  <Num_Resolved_Atoms>  (495) 
nan

>  <Num_Not_Resolved_Atoms>  (495) 
nan

$$$$
CHEMBL183504
     RDKit          3D

  0  0  0  0  0  0  0  0  0  0999 V3000
M  V30 BEGIN CTAB
M  V30 COUNTS 34 37 0 0 0
M  V30 BEGIN ATOM
M  V30 1 O -1.132138 -2.047630 2.923729 0
M  V30 2 C -1.698019 -2.617059 1.949598 0
M  V30 3 N -0.910248 -3.139359 0.885878 0
M  V30 4 C 0.475082 -2.911826 1.124158 0
M  V30 5 N 1.274317 -3.791512 1.792477 0
M  V30 6 C 2.582762 -3.525105 1.990466 0
M  V30 7 N 3.141411 -2.385839 1.536486 0
M  V30 8 C 2.400903 -1.464178 0.861292 0
M  V30 9 O 2.718498 -0.305795 0.335033 0
M  V30 10 C 1.675117 0.251146 -0.226852 0
M  V30 11 C 1.605301 1.549346 -0.926579 0
M  V30 12 C 0.419243 2.017126 -1.478468 0
M  V30 13 C 0.388573 3.239336 -2.128198 0
M  V30 14 C 1.557617 4.000292 -2.225939 0
M  V30 15 F 1.544381 5.188620 -2.853384 0
M  V30 16 C 2.729988 3.518702 -1.670334 0
M  V30 17 C 2.769640 2.285920 -1.012733 0
M  V30 18 C 0.605472 -0.623853 -0.043603 0
M  V30 19 C 1.050510 -1.744600 0.659832 0
M  V30 20 C -3.185817 -2.701724 1.987598 0
M  V30 21 C -3.916241 -1.454384 2.484212 0
M  V30 22 C -3.900496 -2.698477 3.287782 0
M  V30 23 H -1.419024 -3.608257 0.089295 0
M  V30 24 H 3.203692 -4.251970 2.532488 0
M  V30 25 H -0.491144 1.408716 -1.394044 0
M  V30 26 H -0.520990 3.627011 -2.566626 0
M  V30 27 H 3.650142 4.108565 -1.742508 0
M  V30 28 H 3.735258 1.987348 -0.606628 0
M  V30 29 H -0.419922 -0.492936 -0.377137 0
M  V30 30 H -3.623945 -3.212630 1.104610 0
M  V30 31 H -4.878460 -1.170507 1.973876 0
M  V30 32 H -3.282377 -0.589731 2.674820 0
M  V30 33 H -4.868407 -3.272508 3.304196 0
M  V30 34 H -3.282286 -2.715733 4.213449 0
M  V30 END ATOM
M  V30 BEGIN BOND
M  V30 1 2 1 2
M  V30 2 1 2 3
M  V30 3 1 3 4
M  V30 4 2 4 5
M  V30 5 1 5 6
M  V30 6 2 6 7
M  V30 7 1 7 8
M  V30 8 1 8 9
M  V30 9 1 9 10
M  V30 10 1 10 11
M  V30 11 2 11 12
M  V30 12 1 12 13
M  V30 13 2 13 14
M  V30 14 1 14 15
M  V30 15 1 14 16
M  V30 16 2 16 17
M  V30 17 2 10 18
M  V30 18 1 18 19
M  V30 19 1 2 20
M  V30 20 1 20 21
M  V30 21 1 21 22
M  V30 22 1 19 4
M  V30 23 1 22 20
M  V30 24 2 19 8
M  V30 25 1 17 11
M  V30 26 1 3 23
M  V30 27 1 6 24
M  V30 28 1 12 25
M  V30 29 1 13 26
M  V30 30 1 16 27
M  V30 31 1 17 28
M  V30 32 1 18 29
M  V30 33 1 20 30
M  V30 34 1 21 31
M  V30 35 1 21 32
M  V30 36 1 22 33
M  V30 37 1 22 34
M  V30 END BOND
M  V30 END CTAB
M  END
>  <Dataset>  (496) 
ChEMBL_Kinases

>  <Ligand_Instance>  (496) 
nan

>  <PDB_ID>  (496) 
nan

>  <Standardized_SMILES>  (496) 
O=C(Nc1ncnc2oc(-c3ccc(F)cc3)cc12)C1CC1

>  <Name>  (496) 
nan

>  <Pocket>  (496) 
nan

>  <ATP_Site>  (496) 
nan

>  <Peripheral>  (496) 
nan

>  <Num_H_Atoms_ProtBoundConf>  (496) 
nan

>  <Num_Resolved_Atoms>  (496) 
nan

>  <Num_Not_Resolved_Atoms>  (496) 
nan

$$$$
CHEMBL183496
     RDKit          3D

  0  0  0  0  0  0  0  0  0  0999 V3000
M  V30 BEGIN CTAB
M  V30 COUNTS 43 45 0 0 0
M  V30 BEGIN ATOM
M  V30 1 N 2.311865 -5.217885 -0.175741 0
M  V30 2 C 1.648942 -4.320374 0.189034 0
M  V30 3 C 0.828282 -3.246321 0.621165 0
M  V30 4 C 1.357460 -2.044868 1.039853 0
M  V30 5 C 2.822840 -1.855994 1.043865 0
M  V30 6 N 3.243842 -0.967924 2.104523 0
M  V30 7 C 3.324114 -1.297778 -0.274465 0
M  V30 8 C 2.710505 0.023928 -0.572686 0
M  V30 9 C 1.513753 0.021895 -1.295983 0
M  V30 10 C 0.813958 1.166089 -1.656044 0
M  V30 11 C 1.339856 2.398504 -1.270589 0
M  V30 12 F 0.655425 3.499091 -1.623760 0
M  V30 13 C 2.515842 2.403734 -0.559666 0
M  V30 14 C 3.196917 1.268382 -0.210431 0
M  V30 15 C 0.497069 -1.051972 1.443882 0
M  V30 16 C -0.870568 -1.145965 1.470423 0
M  V30 17 C -1.817422 -0.137923 1.883890 0
M  V30 18 C -3.160854 -0.444713 1.830966 0
M  V30 19 C -4.159839 0.419484 2.193800 0
M  V30 20 C -3.863829 1.685574 2.646740 0
M  V30 21 C -2.545813 2.039237 2.718061 0
M  V30 22 C -1.582907 1.133830 2.341665 0
M  V30 23 O -0.276263 1.570855 2.444186 0
M  V30 24 N -1.342391 -2.314532 1.061278 0
M  V30 25 C -0.545602 -3.312446 0.658245 0
M  V30 26 N -1.162672 -4.537309 0.234876 0
M  V30 27 H 3.327738 -2.836429 1.178054 0
M  V30 28 H 4.231684 -1.181831 2.409342 0
M  V30 29 H 2.631033 -1.026675 2.953663 0
M  V30 30 H 4.422856 -1.172891 -0.154834 0
M  V30 31 H 3.121470 -1.993315 -1.110825 0
M  V30 32 H 1.080459 -0.920483 -1.609558 0
M  V30 33 H -0.103260 1.085895 -2.214708 0
M  V30 34 H 2.910151 3.371807 -0.268247 0
M  V30 35 H 4.125566 1.253019 0.349899 0
M  V30 36 H 0.965974 -0.142378 1.757809 0
M  V30 37 H -3.518472 -1.427673 1.485021 0
M  V30 38 H -5.196420 0.146142 2.139482 0
M  V30 39 H -4.622311 2.388514 2.939455 0
M  V30 40 H -2.285891 3.026104 3.069805 0
M  V30 41 H 0.244917 1.590614 3.288683 0
M  V30 42 H -1.181208 -5.267793 0.981117 0
M  V30 43 H -1.631833 -5.006606 -0.592455 0
M  V30 END ATOM
M  V30 BEGIN BOND
M  V30 1 3 1 2
M  V30 2 1 2 3
M  V30 3 2 3 4
M  V30 4 1 4 5
M  V30 5 1 5 6
M  V30 6 1 5 7
M  V30 7 1 7 8
M  V30 8 2 8 9
M  V30 9 1 9 10
M  V30 10 2 10 11
M  V30 11 1 11 12
M  V30 12 1 11 13
M  V30 13 2 13 14
M  V30 14 1 4 15
M  V30 15 2 15 16
M  V30 16 1 16 17
M  V30 17 2 17 18
M  V30 18 1 18 19
M  V30 19 2 19 20
M  V30 20 1 20 21
M  V30 21 2 21 22
M  V30 22 1 22 23
M  V30 23 1 16 24
M  V30 24 2 24 25
M  V30 25 1 25 26
M  V30 26 1 25 3
M  V30 27 1 14 8
M  V30 28 1 22 17
M  V30 29 1 5 27
M  V30 30 1 6 28
M  V30 31 1 6 29
M  V30 32 1 7 30
M  V30 33 1 7 31
M  V30 34 1 9 32
M  V30 35 1 10 33
M  V30 36 1 13 34
M  V30 37 1 14 35
M  V30 38 1 15 36
M  V30 39 1 18 37
M  V30 40 1 19 38
M  V30 41 1 20 39
M  V30 42 1 21 40
M  V30 43 1 23 41
M  V30 44 1 26 42
M  V30 45 1 26 43
M  V30 END BOND
M  V30 END CTAB
M  END
>  <Dataset>  (497) 
ChEMBL_Kinases

>  <Ligand_Instance>  (497) 
nan

>  <PDB_ID>  (497) 
nan

>  <Standardized_SMILES>  (497) 
N#Cc1c(C(N)Cc2ccc(F)cc2)cc(-c2ccccc2O)nc1N

>  <Name>  (497) 
nan

>  <Pocket>  (497) 
nan

>  <ATP_Site>  (497) 
nan

>  <Peripheral>  (497) 
nan

>  <Num_H_Atoms_ProtBoundConf>  (497) 
nan

>  <Num_Resolved_Atoms>  (497) 
nan

>  <Num_Not_Resolved_Atoms>  (497) 
nan

$$$$
CHEMBL1834758
     RDKit          3D

  0  0  0  0  0  0  0  0  0  0999 V3000
M  V30 BEGIN CTAB
M  V30 COUNTS 46 48 0 0 0
M  V30 BEGIN ATOM
M  V30 1 C -1.026516 -5.373131 1.421952 0
M  V30 2 C -0.941907 -3.915146 1.681391 0
M  V30 3 C -0.457229 -3.548245 2.907752 0
M  V30 4 C -0.349710 -2.204404 3.201365 0
M  V30 5 C -0.718805 -1.244407 2.288085 0
M  V30 6 C -1.199544 -1.681405 1.069939 0
M  V30 7 N -1.568165 -0.727471 0.081383 0
M  V30 8 C -1.327935 0.662253 0.306394 0
M  V30 9 N -0.037239 0.980781 0.198922 0
M  V30 10 C 0.457346 2.224343 0.355198 0
M  V30 11 N 1.858406 2.472850 0.243275 0
M  V30 12 C 2.786109 1.422433 -0.004969 0 CFG=1
M  V30 13 C 2.796591 0.439049 1.153913 0
M  V30 14 C 3.774394 -0.684992 0.895901 0
M  V30 15 C 3.587213 -1.309300 -0.456913 0
M  V30 16 N 3.650129 -0.254112 -1.465540 0
M  V30 17 C 2.481060 0.591526 -1.236591 0
M  V30 18 N -0.442732 3.195256 0.639929 0
M  V30 19 C -1.765996 2.901167 0.755824 0
M  V30 20 C -2.241219 1.633173 0.592717 0
M  V30 21 C -3.604992 1.155161 0.678268 0
M  V30 22 N -4.732152 1.947144 0.964436 0
M  V30 23 O -3.924417 -0.041783 0.501498 0
M  V30 24 C -1.339410 -3.016070 0.697184 0
M  V30 25 H -1.613671 -5.875230 2.216247 0
M  V30 26 H -1.564599 -5.560955 0.469988 0
M  V30 27 H -0.020187 -5.846021 1.401362 0
M  V30 28 H -0.160266 -4.268104 3.643236 0
M  V30 29 H 0.035485 -1.932228 4.177981 0
M  V30 30 H -0.640981 -0.186225 2.500729 0
M  V30 31 H -2.020866 -0.955285 -0.828793 0
M  V30 32 H 2.193192 3.464906 0.347691 0
M  V30 33 H 3.808908 1.835610 -0.131124 0
M  V30 34 H 3.113718 0.949752 2.089658 0
M  V30 35 H 1.800697 0.022214 1.284225 0
M  V30 36 H 3.558074 -1.466660 1.665064 0
M  V30 37 H 4.821588 -0.328582 0.949817 0
M  V30 38 H 2.550626 -1.718366 -0.507767 0
M  V30 39 H 4.365563 -2.076637 -0.588917 0
M  V30 40 H 3.510133 -0.645958 -2.429702 0
M  V30 41 H 2.277843 1.295622 -2.044256 0
M  V30 42 H 1.649062 -0.140385 -1.046549 0
M  V30 43 H -2.517317 3.659990 0.985618 0
M  V30 44 H -5.473050 2.521867 0.514921 0
M  V30 45 H -4.778731 1.899716 2.015796 0
M  V30 46 H -1.720203 -3.320176 -0.268634 0
M  V30 END ATOM
M  V30 BEGIN BOND
M  V30 1 1 1 2
M  V30 2 2 2 3
M  V30 3 1 3 4
M  V30 4 2 4 5
M  V30 5 1 5 6
M  V30 6 1 6 7
M  V30 7 1 7 8
M  V30 8 2 8 9
M  V30 9 1 9 10
M  V30 10 1 10 11
M  V30 11 1 11 12
M  V30 12 1 12 13
M  V30 13 1 13 14
M  V30 14 1 14 15
M  V30 15 1 15 16
M  V30 16 1 16 17
M  V30 17 2 10 18
M  V30 18 1 18 19
M  V30 19 2 19 20
M  V30 20 1 20 21
M  V30 21 1 21 22
M  V30 22 2 21 23
M  V30 23 2 6 24
M  V30 24 1 24 2
M  V30 25 1 20 8
M  V30 26 1 17 12
M  V30 27 1 1 25
M  V30 28 1 1 26
M  V30 29 1 1 27
M  V30 30 1 3 28
M  V30 31 1 4 29
M  V30 32 1 5 30
M  V30 33 1 7 31
M  V30 34 1 11 32
M  V30 35 1 12 33 CFG=3
M  V30 36 1 13 34
M  V30 37 1 13 35
M  V30 38 1 14 36
M  V30 39 1 14 37
M  V30 40 1 15 38
M  V30 41 1 15 39
M  V30 42 1 16 40
M  V30 43 1 17 41
M  V30 44 1 17 42
M  V30 45 1 19 43
M  V30 46 1 22 44
M  V30 47 1 22 45
M  V30 48 1 24 46
M  V30 END BOND
M  V30 END CTAB
M  END
>  <Dataset>  (498) 
ChEMBL_Kinases

>  <Ligand_Instance>  (498) 
nan

>  <PDB_ID>  (498) 
nan

>  <Standardized_SMILES>  (498) 
Cc1cccc(Nc2nc(N[C@H]3CCCNC3)ncc2C(N)=O)c1

>  <Name>  (498) 
nan

>  <Pocket>  (498) 
nan

>  <ATP_Site>  (498) 
nan

>  <Peripheral>  (498) 
nan

>  <Num_H_Atoms_ProtBoundConf>  (498) 
nan

>  <Num_Resolved_Atoms>  (498) 
nan

>  <Num_Not_Resolved_Atoms>  (498) 
nan

$$$$
CHEMBL1834757
     RDKit          3D

  0  0  0  0  0  0  0  0  0  0999 V3000
M  V30 BEGIN CTAB
M  V30 COUNTS 46 48 0 0 0
M  V30 BEGIN ATOM
M  V30 1 C -1.083321 -7.266038 -0.513260 0
M  V30 2 C -0.926976 -5.874627 0.027032 0
M  V30 3 C -0.720649 -5.832492 1.390511 0
M  V30 4 C -0.569467 -4.553843 1.934962 0
M  V30 5 C -0.630074 -3.436350 1.121878 0
M  V30 6 C -0.839990 -3.570458 -0.232072 0
M  V30 7 N -0.900008 -2.412049 -1.052907 0
M  V30 8 C -0.748138 -1.097414 -0.531749 0
M  V30 9 N 0.447777 -0.476436 -0.437474 0
M  V30 10 C 0.548013 0.785959 0.068936 0
M  V30 11 N 1.836600 1.399985 0.146719 0
M  V30 12 C 2.021113 2.727942 0.667791 0 CFG=2
M  V30 13 C 3.465624 3.171695 0.648579 0
M  V30 14 C 3.981429 3.495003 2.036878 0
M  V30 15 C 3.098206 4.503142 2.735673 0
M  V30 16 N 1.698881 4.314966 2.401755 0
M  V30 17 C 1.550698 2.888846 2.097368 0
M  V30 18 N -0.540743 1.452531 0.490585 0
M  V30 19 C -1.795508 0.912233 0.437515 0
M  V30 20 C -1.824654 -0.363478 -0.084032 0
M  V30 21 C -3.146712 -0.971588 -0.155366 0
M  V30 22 N -4.352288 -0.346795 0.262661 0
M  V30 23 O -3.634254 -2.062447 -0.536755 0
M  V30 24 C -0.994845 -4.803744 -0.817008 0
M  V30 25 H -1.832585 -7.762997 0.142153 0
M  V30 26 H -1.447776 -7.265919 -1.548043 0
M  V30 27 H -0.140186 -7.845608 -0.395194 0
M  V30 28 H -0.673908 -6.703344 2.023427 0
M  V30 29 H -0.401236 -4.397730 3.001904 0
M  V30 30 H -0.505586 -2.455407 1.597988 0
M  V30 31 H -1.059316 -2.478454 -2.081584 0
M  V30 32 H 2.680165 0.885390 -0.179227 0
M  V30 33 H 1.385041 3.412592 0.042329 0
M  V30 34 H 3.535888 4.113198 0.055757 0
M  V30 35 H 4.147039 2.415189 0.212341 0
M  V30 36 H 4.968042 4.011622 1.895319 0
M  V30 37 H 4.179605 2.592337 2.631623 0
M  V30 38 H 3.399442 5.543223 2.520896 0
M  V30 39 H 3.189351 4.305871 3.824137 0
M  V30 40 H 1.412461 4.837173 1.544837 0
M  V30 41 H 0.504498 2.641058 2.265865 0
M  V30 42 H 2.171987 2.275061 2.787122 0
M  V30 43 H -2.689995 1.422054 0.768425 0
M  V30 44 H -4.546652 -0.058303 1.262822 0
M  V30 45 H -4.171137 -0.222637 1.283138 0
M  V30 46 H -1.157562 -4.895385 -1.876356 0
M  V30 END ATOM
M  V30 BEGIN BOND
M  V30 1 1 1 2
M  V30 2 2 2 3
M  V30 3 1 3 4
M  V30 4 2 4 5
M  V30 5 1 5 6
M  V30 6 1 6 7
M  V30 7 1 7 8
M  V30 8 2 8 9
M  V30 9 1 9 10
M  V30 10 1 10 11
M  V30 11 1 11 12
M  V30 12 1 12 13
M  V30 13 1 13 14
M  V30 14 1 14 15
M  V30 15 1 15 16
M  V30 16 1 16 17
M  V30 17 2 10 18
M  V30 18 1 18 19
M  V30 19 2 19 20
M  V30 20 1 20 21
M  V30 21 1 21 22
M  V30 22 2 21 23
M  V30 23 2 6 24
M  V30 24 1 24 2
M  V30 25 1 20 8
M  V30 26 1 17 12
M  V30 27 1 1 25
M  V30 28 1 1 26
M  V30 29 1 1 27
M  V30 30 1 3 28
M  V30 31 1 4 29
M  V30 32 1 5 30
M  V30 33 1 7 31
M  V30 34 1 11 32
M  V30 35 1 12 33 CFG=3
M  V30 36 1 13 34
M  V30 37 1 13 35
M  V30 38 1 14 36
M  V30 39 1 14 37
M  V30 40 1 15 38
M  V30 41 1 15 39
M  V30 42 1 16 40
M  V30 43 1 17 41
M  V30 44 1 17 42
M  V30 45 1 19 43
M  V30 46 1 22 44
M  V30 47 1 22 45
M  V30 48 1 24 46
M  V30 END BOND
M  V30 END CTAB
M  END
>  <Dataset>  (499) 
ChEMBL_Kinases

>  <Ligand_Instance>  (499) 
nan

>  <PDB_ID>  (499) 
nan

>  <Standardized_SMILES>  (499) 
Cc1cccc(Nc2nc(N[C@@H]3CCCNC3)ncc2C(N)=O)c1

>  <Name>  (499) 
nan

>  <Pocket>  (499) 
nan

>  <ATP_Site>  (499) 
nan

>  <Peripheral>  (499) 
nan

>  <Num_H_Atoms_ProtBoundConf>  (499) 
nan

>  <Num_Resolved_Atoms>  (499) 
nan

>  <Num_Not_Resolved_Atoms>  (499) 
nan

$$$$
CHEMBL1834756
     RDKit          3D

  0  0  0  0  0  0  0  0  0  0999 V3000
M  V30 BEGIN CTAB
M  V30 COUNTS 38 39 0 0 0
M  V30 BEGIN ATOM
M  V30 1 C -3.549544 0.974376 1.023256 0
M  V30 2 C -2.364853 0.555424 1.816325 0
M  V30 3 C -2.350985 0.840742 3.167384 0
M  V30 4 C -1.251545 0.450695 3.890387 0
M  V30 5 C -0.200346 -0.199090 3.302683 0
M  V30 6 C -0.166781 -0.510464 1.941041 0
M  V30 7 N 0.945090 -1.181883 1.387423 0
M  V30 8 C 1.119345 -1.578594 0.040606 0
M  V30 9 N 0.254156 -1.392090 -0.963756 0
M  V30 10 C 0.425005 -1.770169 -2.233747 0
M  V30 11 O -0.558444 -1.511589 -3.176488 0
M  V30 12 C -1.721429 -0.840850 -2.725400 0
M  V30 13 C -2.724739 -0.612528 -3.831862 0
M  V30 14 N -2.112691 0.187141 -4.855475 0
M  V30 15 N 1.563444 -2.401935 -2.574988 0
M  V30 16 C 2.522737 -2.651973 -1.648638 0
M  V30 17 C 2.255502 -2.225109 -0.369397 0
M  V30 18 C 3.336986 -2.536118 0.553619 0
M  V30 19 N 4.556272 -3.194638 0.240447 0
M  V30 20 O 3.728086 -2.455427 1.735916 0
M  V30 21 C -1.291625 -0.097721 1.264070 0
M  V30 22 H -3.322822 1.971932 0.545544 0
M  V30 23 H -3.726922 0.243392 0.200608 0
M  V30 24 H -4.454324 1.072692 1.646263 0
M  V30 25 H -3.137075 1.343956 3.688143 0
M  V30 26 H -1.211438 0.662185 4.959846 0
M  V30 27 H 0.635246 -0.480153 3.924840 0
M  V30 28 H 1.708605 -1.402416 2.046892 0
M  V30 29 H -2.116642 -1.392566 -1.860612 0
M  V30 30 H -1.368465 0.157052 -2.381359 0
M  V30 31 H -3.184094 -1.543196 -4.162927 0
M  V30 32 H -3.515916 0.042778 -3.368062 0
M  V30 33 H -1.232966 -0.281725 -5.151502 0
M  V30 34 H -2.774540 0.316271 -5.658719 0
M  V30 35 H 3.421089 -3.160320 -1.961672 0
M  V30 36 H 5.087662 -2.711833 -0.533024 0
M  V30 37 H 4.923418 -2.569175 -0.535578 0
M  V30 38 H -1.386572 -0.275769 0.223184 0
M  V30 END ATOM
M  V30 BEGIN BOND
M  V30 1 1 1 2
M  V30 2 2 2 3
M  V30 3 1 3 4
M  V30 4 2 4 5
M  V30 5 1 5 6
M  V30 6 1 6 7
M  V30 7 1 7 8
M  V30 8 2 8 9
M  V30 9 1 9 10
M  V30 10 1 10 11
M  V30 11 1 11 12
M  V30 12 1 12 13
M  V30 13 1 13 14
M  V30 14 2 10 15
M  V30 15 1 15 16
M  V30 16 2 16 17
M  V30 17 1 17 18
M  V30 18 1 18 19
M  V30 19 2 18 20
M  V30 20 2 6 21
M  V30 21 1 21 2
M  V30 22 1 17 8
M  V30 23 1 1 22
M  V30 24 1 1 23
M  V30 25 1 1 24
M  V30 26 1 3 25
M  V30 27 1 4 26
M  V30 28 1 5 27
M  V30 29 1 7 28
M  V30 30 1 12 29
M  V30 31 1 12 30
M  V30 32 1 13 31
M  V30 33 1 13 32
M  V30 34 1 14 33
M  V30 35 1 14 34
M  V30 36 1 16 35
M  V30 37 1 19 36
M  V30 38 1 19 37
M  V30 39 1 21 38
M  V30 END BOND
M  V30 END CTAB
M  END
>  <Dataset>  (500) 
ChEMBL_Kinases

>  <Ligand_Instance>  (500) 
nan

>  <PDB_ID>  (500) 
nan

>  <Standardized_SMILES>  (500) 
Cc1cccc(Nc2nc(OCCN)ncc2C(N)=O)c1

>  <Name>  (500) 
nan

>  <Pocket>  (500) 
nan

>  <ATP_Site>  (500) 
nan

>  <Peripheral>  (500) 
nan

>  <Num_H_Atoms_ProtBoundConf>  (500) 
nan

>  <Num_Resolved_Atoms>  (500) 
nan

>  <Num_Not_Resolved_Atoms>  (500) 
nan

$$$$
CHEMBL1834331
     RDKit          3D

  0  0  0  0  0  0  0  0  0  0999 V3000
M  V30 BEGIN CTAB
M  V30 COUNTS 50 53 0 0 0
M  V30 BEGIN ATOM
M  V30 1 N 1.681673 -6.536028 0.426944 0
M  V30 2 C 2.268261 -5.283959 0.752100 0
M  V30 3 C 1.825265 -4.166565 0.074600 0
M  V30 4 C 2.355945 -2.921294 0.345181 0
M  V30 5 C 3.350884 -2.757033 1.306932 0
M  V30 6 C 3.870162 -1.385912 1.539703 0
M  V30 7 C 3.124290 -0.641176 2.583823 0
M  V30 8 N 1.738129 -0.425890 2.365794 0
M  V30 9 C 0.996871 0.367391 1.491249 0
M  V30 10 C 1.488410 1.241648 0.566932 0
M  V30 11 F 2.828619 1.411489 0.475556 0
M  V30 12 C 0.766791 2.019821 -0.313623 0
M  V30 13 N 1.371176 2.906792 -1.247023 0
M  V30 14 C -0.604130 1.887872 -0.237858 0
M  V30 15 C -1.406859 2.627246 -1.080002 0
M  V30 16 O -0.855710 3.418118 -1.911663 0
M  V30 17 C -2.782644 2.535366 -1.047715 0
M  V30 18 C -3.649767 3.305629 -1.926562 0
M  V30 19 O -4.897506 3.261683 -1.940057 0
M  V30 20 O -3.082826 4.173734 -2.841289 0
M  V30 21 C -3.290152 1.654252 -0.115931 0
M  V30 22 N -2.519612 0.927157 0.711296 0
M  V30 23 C -3.189208 0.049809 1.630948 0
M  V30 24 C -3.352696 -1.422052 1.282512 0
M  V30 25 C -4.532320 -0.555826 1.232955 0
M  V30 26 C -1.186334 1.028714 0.666414 0
M  V30 27 C -0.382318 0.295289 1.502038 0
M  V30 28 F -1.023663 -0.531312 2.368137 0
M  V30 29 C 3.805201 -3.882595 1.997481 0
M  V30 30 C 3.253974 -5.097567 1.699982 0
M  V30 31 H 0.642626 -6.568729 0.338478 0
M  V30 32 H 2.133723 -7.440857 0.260394 0
M  V30 33 H 1.061916 -4.219347 -0.678627 0
M  V30 34 H 2.003047 -2.043250 -0.191993 0
M  V30 35 H 4.023408 -0.921005 0.577611 0
M  V30 36 H 4.910105 -1.545385 1.957990 0
M  V30 37 H 3.592879 0.399536 2.595505 0
M  V30 38 H 3.386036 -1.056666 3.565310 0
M  V30 39 H 1.182472 -1.030010 3.046319 0
M  V30 40 H 1.510934 3.921582 -0.966607 0
M  V30 41 H 1.708456 2.684271 -2.207694 0
M  V30 42 H -3.490267 4.312276 -3.773458 0
M  V30 43 H -4.373818 1.565792 -0.072974 0
M  V30 44 H -3.116954 0.350834 2.694048 0
M  V30 45 H -3.288686 -2.146676 2.093446 0
M  V30 46 H -2.841807 -1.680714 0.333236 0
M  V30 47 H -5.310000 -0.630116 2.029101 0
M  V30 48 H -4.963982 -0.359811 0.250479 0
M  V30 49 H 4.571212 -3.738653 2.734299 0
M  V30 50 H 3.590315 -5.999310 2.225545 0
M  V30 END ATOM
M  V30 BEGIN BOND
M  V30 1 1 1 2
M  V30 2 2 2 3
M  V30 3 1 3 4
M  V30 4 2 4 5
M  V30 5 1 5 6
M  V30 6 1 6 7
M  V30 7 1 7 8
M  V30 8 1 8 9
M  V30 9 2 9 10
M  V30 10 1 10 11
M  V30 11 1 10 12
M  V30 12 1 12 13
M  V30 13 2 12 14
M  V30 14 1 14 15
M  V30 15 2 15 16
M  V30 16 1 15 17
M  V30 17 1 17 18
M  V30 18 2 18 19
M  V30 19 1 18 20
M  V30 20 2 17 21
M  V30 21 1 21 22
M  V30 22 1 22 23
M  V30 23 1 23 24
M  V30 24 1 24 25
M  V30 25 1 22 26
M  V30 26 2 26 27
M  V30 27 1 27 28
M  V30 28 1 5 29
M  V30 29 2 29 30
M  V30 30 1 30 2
M  V30 31 1 27 9
M  V30 32 1 26 14
M  V30 33 1 25 23
M  V30 34 1 1 31
M  V30 35 1 1 32
M  V30 36 1 3 33
M  V30 37 1 4 34
M  V30 38 1 6 35
M  V30 39 1 6 36
M  V30 40 1 7 37
M  V30 41 1 7 38
M  V30 42 1 8 39
M  V30 43 1 13 40
M  V30 44 1 13 41
M  V30 45 1 20 42
M  V30 46 1 21 43
M  V30 47 1 23 44
M  V30 48 1 24 45
M  V30 49 1 24 46
M  V30 50 1 25 47
M  V30 51 1 25 48
M  V30 52 1 29 49
M  V30 53 1 30 50
M  V30 END BOND
M  V30 END CTAB
M  END
>  <Dataset>  (501) 
ChEMBL_Kinases

>  <Ligand_Instance>  (501) 
nan

>  <PDB_ID>  (501) 
nan

>  <Standardized_SMILES>  (501) 
Nc1ccc(CCNc2c(F)c(N)c3c(=O)c(C(=O)O)cn(C4CC4)c3c2F)cc1

>  <Name>  (501) 
nan

>  <Pocket>  (501) 
nan

>  <ATP_Site>  (501) 
nan

>  <Peripheral>  (501) 
nan

>  <Num_H_Atoms_ProtBoundConf>  (501) 
nan

>  <Num_Resolved_Atoms>  (501) 
nan

>  <Num_Not_Resolved_Atoms>  (501) 
nan

$$$$
CHEMBL1834330
     RDKit          3D

  0  0  0  0  0  0  0  0  0  0999 V3000
M  V30 BEGIN CTAB
M  V30 COUNTS 57 61 0 0 0
M  V30 BEGIN ATOM
M  V30 1 N 0.823900 -1.903341 4.550110 0
M  V30 2 C 0.815748 -1.865444 3.125880 0
M  V30 3 C 1.999516 -1.517731 2.533541 0
M  V30 4 F 3.100176 -1.234930 3.245458 0
M  V30 5 C 2.103835 -1.449291 1.160915 0
M  V30 6 N 3.278752 -1.086977 0.416999 0
M  V30 7 C 3.406168 0.306440 0.120854 0
M  V30 8 C 3.446407 1.151039 1.361984 0
M  V30 9 N 3.573472 2.567008 1.053976 0
M  V30 10 C 2.426568 2.941708 0.264622 0
M  V30 11 C 2.229008 2.991408 -1.097723 0
M  V30 12 C 1.010645 3.385999 -1.567644 0
M  V30 13 C 0.005973 3.725560 -0.678679 0
M  V30 14 C 0.203827 3.675812 0.685072 0
M  V30 15 N 1.425764 3.279655 1.114565 0
M  V30 16 C 1.002973 -1.734138 0.345690 0
M  V30 17 C -0.207398 -2.089661 0.950370 0
M  V30 18 C -0.281678 -2.149244 2.318770 0
M  V30 19 C -1.418301 -2.485390 3.033173 0
M  V30 20 O -1.464097 -2.533949 4.289164 0
M  V30 21 C -2.556015 -2.780563 2.297804 0
M  V30 22 C -3.791326 -3.142948 2.988353 0
M  V30 23 O -3.788652 -3.177344 4.232626 0
M  V30 24 O -4.899600 -3.427927 2.191894 0
M  V30 25 C -2.458657 -2.714316 0.922458 0
M  V30 26 N -1.340915 -2.384583 0.250981 0
M  V30 27 C -1.344521 -2.342903 -1.192601 0
M  V30 28 C -2.186977 -3.360991 -1.869028 0
M  V30 29 C -3.043331 -2.566905 -2.849341 0
M  V30 30 C -3.225599 -1.262818 -2.106291 0
M  V30 31 C -1.789352 -0.985755 -1.681644 0
M  V30 32 C 0.081292 -2.543874 -1.715944 0
M  V30 33 O 0.990505 -1.698402 -1.040891 0
M  V30 34 H 0.548142 -0.930068 4.759204 0
M  V30 35 H 1.000048 -2.530389 5.369053 0
M  V30 36 H 3.820243 -1.954795 0.238850 0
M  V30 37 H 2.515573 0.633516 -0.475098 0
M  V30 38 H 4.336553 0.500310 -0.463438 0
M  V30 39 H 4.283077 0.847670 2.005606 0
M  V30 40 H 2.468140 0.987414 1.878116 0
M  V30 41 H 4.249525 3.348319 1.247450 0
M  V30 42 H 3.127742 2.690599 -1.618420 0
M  V30 43 H 0.937716 3.397914 -2.652192 0
M  V30 44 H -0.943331 4.032163 -1.097961 0
M  V30 45 H -0.615451 3.951145 1.310613 0
M  V30 46 H -5.654263 -3.941516 2.619787 0
M  V30 47 H -3.370394 -2.952848 0.404638 0
M  V30 48 H -1.607094 -4.072227 -2.529524 0
M  V30 49 H -2.784103 -4.018966 -1.229888 0
M  V30 50 H -2.399808 -2.332588 -3.720168 0
M  V30 51 H -3.988220 -3.070994 -3.094878 0
M  V30 52 H -3.596300 -0.476739 -2.798972 0
M  V30 53 H -3.929951 -1.332657 -1.276635 0
M  V30 54 H -1.722693 -0.191510 -0.925940 0
M  V30 55 H -1.250071 -0.741000 -2.622417 0
M  V30 56 H 0.372716 -3.591899 -1.505602 0
M  V30 57 H 0.136109 -2.349810 -2.786568 0
M  V30 END ATOM
M  V30 BEGIN BOND
M  V30 1 1 1 2
M  V30 2 2 2 3
M  V30 3 1 3 4
M  V30 4 1 3 5
M  V30 5 1 5 6
M  V30 6 1 6 7
M  V30 7 1 7 8
M  V30 8 1 8 9
M  V30 9 1 9 10
M  V30 10 2 10 11
M  V30 11 1 11 12
M  V30 12 2 12 13
M  V30 13 1 13 14
M  V30 14 2 14 15
M  V30 15 2 5 16
M  V30 16 1 16 17
M  V30 17 2 17 18
M  V30 18 1 18 19
M  V30 19 2 19 20
M  V30 20 1 19 21
M  V30 21 1 21 22
M  V30 22 2 22 23
M  V30 23 1 22 24
M  V30 24 2 21 25
M  V30 25 1 25 26
M  V30 26 1 26 27
M  V30 27 1 27 28
M  V30 28 1 28 29
M  V30 29 1 29 30
M  V30 30 1 30 31
M  V30 31 1 27 32
M  V30 32 1 32 33
M  V30 33 1 18 2
M  V30 34 1 31 27
M  V30 35 1 15 10
M  V30 36 1 33 16
M  V30 37 1 26 17
M  V30 38 1 1 34
M  V30 39 1 1 35
M  V30 40 1 6 36
M  V30 41 1 7 37
M  V30 42 1 7 38
M  V30 43 1 8 39
M  V30 44 1 8 40
M  V30 45 1 9 41
M  V30 46 1 11 42
M  V30 47 1 12 43
M  V30 48 1 13 44
M  V30 49 1 14 45
M  V30 50 1 24 46
M  V30 51 1 25 47
M  V30 52 1 28 48
M  V30 53 1 28 49
M  V30 54 1 29 50
M  V30 55 1 29 51
M  V30 56 1 30 52
M  V30 57 1 30 53
M  V30 58 1 31 54
M  V30 59 1 31 55
M  V30 60 1 32 56
M  V30 61 1 32 57
M  V30 END BOND
M  V30 END CTAB
M  END
>  <Dataset>  (502) 
ChEMBL_Kinases

>  <Ligand_Instance>  (502) 
nan

>  <PDB_ID>  (502) 
nan

>  <Standardized_SMILES>  (502) 
Nc1c(F)c(NCCNc2ccccn2)c2c3c1c(=O)c(C(=O)O)cn3C1(CCCC1)CO2

>  <Name>  (502) 
nan

>  <Pocket>  (502) 
nan

>  <ATP_Site>  (502) 
nan

>  <Peripheral>  (502) 
nan

>  <Num_H_Atoms_ProtBoundConf>  (502) 
nan

>  <Num_Resolved_Atoms>  (502) 
nan

>  <Num_Not_Resolved_Atoms>  (502) 
nan

$$$$
CHEMBL1834329
     RDKit          3D

  0  0  0  0  0  0  0  0  0  0999 V3000
M  V30 BEGIN CTAB
M  V30 COUNTS 54 58 0 0 0
M  V30 BEGIN ATOM
M  V30 1 N -0.700260 -1.188220 4.669377 0
M  V30 2 C -0.297703 -1.223150 3.302350 0
M  V30 3 C 0.932842 -0.747920 2.905783 0
M  V30 4 F 1.721600 -0.284941 3.898316 0
M  V30 5 C 1.415023 -0.732988 1.620489 0
M  V30 6 N 2.664162 -0.222431 1.189239 0
M  V30 7 C 3.738443 0.435212 1.837160 0
M  V30 8 C 3.510870 1.840165 2.275391 0
M  V30 9 N 3.193919 2.650683 1.106500 0
M  V30 10 C 2.204310 2.664817 0.114946 0
M  V30 11 C 2.143883 2.132618 -1.148774 0
M  V30 12 C 1.006439 2.296398 -1.934540 0
M  V30 13 C -0.079005 3.008412 -1.427426 0
M  V30 14 C 0.003894 3.529335 -0.166078 0
M  V30 15 N 1.122837 3.349321 0.563213 0
M  V30 16 C 0.524618 -1.265478 0.679374 0
M  V30 17 C -0.715900 -1.754537 1.021198 0
M  V30 18 C -1.136200 -1.736336 2.334431 0
M  V30 19 C -2.374329 -2.206915 2.781114 0
M  V30 20 O -2.686614 -2.156725 3.987977 0
M  V30 21 C -3.179899 -2.712304 1.775784 0
M  V30 22 C -4.483865 -3.212003 2.190175 0
M  V30 23 O -4.811436 -3.163374 3.396079 0
M  V30 24 O -5.453837 -3.762602 1.367404 0
M  V30 25 C -2.723092 -2.713903 0.474802 0
M  V30 26 N -1.528549 -2.256000 0.068530 0
M  V30 27 C -1.158973 -2.316781 -1.300717 0
M  V30 28 C -0.424357 -3.626744 -1.630528 0
M  V30 29 C -1.005854 -3.463668 -3.033386 0
M  V30 30 C -2.126181 -2.658246 -2.352259 0
M  V30 31 C -0.210441 -1.181164 -1.603894 0
M  V30 32 O 0.855917 -1.326248 -0.667252 0
M  V30 33 H -0.760209 -1.810191 5.504834 0
M  V30 34 H -1.004342 -0.184745 4.719553 0
M  V30 35 H 2.843966 -0.358699 0.146500 0
M  V30 36 H 4.638074 0.462580 1.160288 0
M  V30 37 H 4.066076 -0.226289 2.682200 0
M  V30 38 H 2.724646 1.918880 3.009372 0
M  V30 39 H 4.496917 2.202654 2.698284 0
M  V30 40 H 3.783806 3.459467 0.833050 0
M  V30 41 H 3.060791 1.609614 -1.400290 0
M  V30 42 H 1.051152 1.848253 -2.903696 0
M  V30 43 H -0.945061 3.118988 -2.061173 0
M  V30 44 H -0.878674 4.064807 0.147572 0
M  V30 45 H -6.002968 -4.572505 1.625611 0
M  V30 46 H -3.461824 -3.138123 -0.188504 0
M  V30 47 H -0.790060 -4.492522 -1.074697 0
M  V30 48 H 0.675682 -3.537888 -1.558862 0
M  V30 49 H -0.320220 -2.874622 -3.652278 0
M  V30 50 H -1.314978 -4.440405 -3.414380 0
M  V30 51 H -2.926054 -3.348997 -2.116842 0
M  V30 52 H -2.375680 -1.785807 -3.003195 0
M  V30 53 H -0.790469 -0.242250 -1.409280 0
M  V30 54 H 0.178125 -1.189935 -2.630142 0
M  V30 END ATOM
M  V30 BEGIN BOND
M  V30 1 1 1 2
M  V30 2 2 2 3
M  V30 3 1 3 4
M  V30 4 1 3 5
M  V30 5 1 5 6
M  V30 6 1 6 7
M  V30 7 1 7 8
M  V30 8 1 8 9
M  V30 9 1 9 10
M  V30 10 2 10 11
M  V30 11 1 11 12
M  V30 12 2 12 13
M  V30 13 1 13 14
M  V30 14 2 14 15
M  V30 15 2 5 16
M  V30 16 1 16 17
M  V30 17 2 17 18
M  V30 18 1 18 19
M  V30 19 2 19 20
M  V30 20 1 19 21
M  V30 21 1 21 22
M  V30 22 2 22 23
M  V30 23 1 22 24
M  V30 24 2 21 25
M  V30 25 1 25 26
M  V30 26 1 26 27
M  V30 27 1 27 28
M  V30 28 1 28 29
M  V30 29 1 29 30
M  V30 30 1 27 31
M  V30 31 1 31 32
M  V30 32 1 18 2
M  V30 33 1 30 27
M  V30 34 1 15 10
M  V30 35 1 32 16
M  V30 36 1 26 17
M  V30 37 1 1 33
M  V30 38 1 1 34
M  V30 39 1 6 35
M  V30 40 1 7 36
M  V30 41 1 7 37
M  V30 42 1 8 38
M  V30 43 1 8 39
M  V30 44 1 9 40
M  V30 45 1 11 41
M  V30 46 1 12 42
M  V30 47 1 13 43
M  V30 48 1 14 44
M  V30 49 1 24 45
M  V30 50 1 25 46
M  V30 51 1 28 47
M  V30 52 1 28 48
M  V30 53 1 29 49
M  V30 54 1 29 50
M  V30 55 1 30 51
M  V30 56 1 30 52
M  V30 57 1 31 53
M  V30 58 1 31 54
M  V30 END BOND
M  V30 END CTAB
M  END
>  <Dataset>  (503) 
ChEMBL_Kinases

>  <Ligand_Instance>  (503) 
nan

>  <PDB_ID>  (503) 
nan

>  <Standardized_SMILES>  (503) 
Nc1c(F)c(NCCNc2ccccn2)c2c3c1c(=O)c(C(=O)O)cn3C1(CCC1)CO2

>  <Name>  (503) 
nan

>  <Pocket>  (503) 
nan

>  <ATP_Site>  (503) 
nan

>  <Peripheral>  (503) 
nan

>  <Num_H_Atoms_ProtBoundConf>  (503) 
nan

>  <Num_Resolved_Atoms>  (503) 
nan

>  <Num_Not_Resolved_Atoms>  (503) 
nan

$$$$
CHEMBL1834328
     RDKit          3D

  0  0  0  0  0  0  0  0  0  0999 V3000
M  V30 BEGIN CTAB
M  V30 COUNTS 56 59 0 0 0
M  V30 BEGIN ATOM
M  V30 1 C 0.824644 -0.550397 2.293006 0
M  V30 2 C 1.884198 -1.599771 2.099616 0
M  V30 3 C 2.766894 -1.602940 3.323138 0
M  V30 4 C 2.745049 -1.328384 0.877575 0
M  V30 5 O 1.926900 -0.850085 -0.200187 0
M  V30 6 C 0.660714 -1.279874 -0.586097 0
M  V30 7 C 0.264783 -0.572423 -1.726646 0
M  V30 8 N 1.153531 0.393432 -2.262779 0
M  V30 9 C 1.492396 1.774229 -2.169251 0
M  V30 10 C 0.303184 2.649267 -2.496559 0
M  V30 11 N -0.795036 2.406734 -1.584114 0
M  V30 12 C -0.689322 2.598164 -0.190039 0
M  V30 13 C -1.747414 2.360195 0.685239 0
M  V30 14 C -1.687616 2.534088 2.046438 0
M  V30 15 C -0.513971 2.973803 2.620747 0
M  V30 16 C 0.525497 3.206421 1.750737 0
M  V30 17 N 0.425232 3.023837 0.426645 0
M  V30 18 C -0.969361 -0.839253 -2.287438 0
M  V30 19 F -1.351352 -0.157736 -3.391785 0
M  V30 20 C -1.756424 -1.808093 -1.677256 0
M  V30 21 N -2.993360 -2.014915 -2.311808 0
M  V30 22 C -1.376421 -2.511594 -0.552779 0
M  V30 23 C -2.304489 -3.435432 -0.098391 0
M  V30 24 O -3.396899 -3.612710 -0.666060 0
M  V30 25 C -1.961058 -4.158186 1.023086 0
M  V30 26 C -2.899075 -5.143143 1.544090 0
M  V30 27 O -3.986909 -5.276318 0.926212 0
M  V30 28 O -2.647102 -5.911731 2.655378 0
M  V30 29 C -0.732273 -3.894228 1.583416 0
M  V30 30 N 0.138056 -2.986581 1.107261 0
M  V30 31 C -0.145073 -2.253084 0.015844 0
M  V30 32 C 1.313149 -3.003880 1.971025 0
M  V30 33 H -0.170799 -0.975141 2.534026 0
M  V30 34 H 0.775447 0.158859 1.417945 0
M  V30 35 H 1.053482 0.130298 3.162384 0
M  V30 36 H 2.918534 -0.592030 3.763766 0
M  V30 37 H 3.746673 -2.107396 3.122633 0
M  V30 38 H 2.265821 -2.214222 4.101908 0
M  V30 39 H 3.534628 -0.608344 1.116771 0
M  V30 40 H 3.143778 -2.311295 0.544957 0
M  V30 41 H 1.648376 -0.273446 -2.914414 0
M  V30 42 H 2.239021 1.986507 -2.980785 0
M  V30 43 H 1.880872 2.046669 -1.175220 0
M  V30 44 H -0.033807 2.531394 -3.535593 0
M  V30 45 H 0.609269 3.727195 -2.380484 0
M  V30 46 H -1.706751 2.080270 -1.943382 0
M  V30 47 H -2.691424 2.016182 0.307410 0
M  V30 48 H -2.534092 2.337093 2.689182 0
M  V30 49 H -0.451211 3.114188 3.678989 0
M  V30 50 H 1.468056 3.554669 2.169732 0
M  V30 51 H -3.984482 -2.232005 -2.541359 0
M  V30 52 H -3.179326 -1.878277 -3.314468 0
M  V30 53 H -3.015169 -6.862510 2.650955 0
M  V30 54 H -0.497311 -4.483631 2.465620 0
M  V30 55 H 2.061215 -3.650754 1.469159 0
M  V30 56 H 1.071632 -3.429552 2.964849 0
M  V30 END ATOM
M  V30 BEGIN BOND
M  V30 1 1 1 2
M  V30 2 1 2 3
M  V30 3 1 2 4
M  V30 4 1 4 5
M  V30 5 1 5 6
M  V30 6 2 6 7
M  V30 7 1 7 8
M  V30 8 1 8 9
M  V30 9 1 9 10
M  V30 10 1 10 11
M  V30 11 1 11 12
M  V30 12 2 12 13
M  V30 13 1 13 14
M  V30 14 2 14 15
M  V30 15 1 15 16
M  V30 16 2 16 17
M  V30 17 1 7 18
M  V30 18 1 18 19
M  V30 19 2 18 20
M  V30 20 1 20 21
M  V30 21 1 20 22
M  V30 22 1 22 23
M  V30 23 2 23 24
M  V30 24 1 23 25
M  V30 25 1 25 26
M  V30 26 2 26 27
M  V30 27 1 26 28
M  V30 28 2 25 29
M  V30 29 1 29 30
M  V30 30 1 30 31
M  V30 31 1 30 32
M  V30 32 1 32 2
M  V30 33 1 31 6
M  V30 34 1 17 12
M  V30 35 2 31 22
M  V30 36 1 1 33
M  V30 37 1 1 34
M  V30 38 1 1 35
M  V30 39 1 3 36
M  V30 40 1 3 37
M  V30 41 1 3 38
M  V30 42 1 4 39
M  V30 43 1 4 40
M  V30 44 1 8 41
M  V30 45 1 9 42
M  V30 46 1 9 43
M  V30 47 1 10 44
M  V30 48 1 10 45
M  V30 49 1 11 46
M  V30 50 1 13 47
M  V30 51 1 14 48
M  V30 52 1 15 49
M  V30 53 1 16 50
M  V30 54 1 21 51
M  V30 55 1 21 52
M  V30 56 1 28 53
M  V30 57 1 29 54
M  V30 58 1 32 55
M  V30 59 1 32 56
M  V30 END BOND
M  V30 END CTAB
M  END
>  <Dataset>  (504) 
ChEMBL_Kinases

>  <Ligand_Instance>  (504) 
nan

>  <PDB_ID>  (504) 
nan

>  <Standardized_SMILES>  (504) 
CC1(C)COc2c(NCCNc3ccccn3)c(F)c(N)c3c(=O)c(C(=O)O)cn(c23)C1

>  <Name>  (504) 
nan

>  <Pocket>  (504) 
nan

>  <ATP_Site>  (504) 
nan

>  <Peripheral>  (504) 
nan

>  <Num_H_Atoms_ProtBoundConf>  (504) 
nan

>  <Num_Resolved_Atoms>  (504) 
nan

>  <Num_Not_Resolved_Atoms>  (504) 
nan

$$$$
CHEMBL1834327
     RDKit          3D

  0  0  0  0  0  0  0  0  0  0999 V3000
M  V30 BEGIN CTAB
M  V30 COUNTS 53 56 0 0 0
M  V30 BEGIN ATOM
M  V30 1 C 0.478061 -0.480612 4.681112 0
M  V30 2 C 0.956786 -0.449606 3.250203 0
M  V30 3 C 1.188811 -1.887972 2.796239 0
M  V30 4 C 2.304455 0.262522 3.107832 0
M  V30 5 N 2.436289 0.861887 1.774567 0
M  V30 6 C 3.695722 1.206664 1.437461 0
M  V30 7 C 4.025699 1.782657 0.240339 0
M  V30 8 C 5.428302 2.130150 -0.073144 0
M  V30 9 O 5.764241 2.644804 -1.149360 0
M  V30 10 O 6.446290 1.897482 0.829395 0
M  V30 11 C 3.048224 2.039044 -0.695119 0
M  V30 12 O 3.270533 2.566319 -1.825705 0
M  V30 13 C 1.773501 1.672327 -0.314468 0
M  V30 14 C 0.687652 1.862108 -1.144556 0
M  V30 15 N 0.895125 2.469067 -2.433852 0
M  V30 16 C -0.614829 1.534054 -0.871904 0
M  V30 17 F -1.650953 1.725138 -1.685193 0
M  V30 18 C -0.918553 0.953644 0.341881 0
M  V30 19 N -2.217965 0.537632 0.811878 0
M  V30 20 C -2.410192 -0.843751 0.415456 0
M  V30 21 C -3.750986 -1.396017 0.839571 0
M  V30 22 N -3.939092 -2.756915 0.468931 0
M  V30 23 C -4.057839 -3.744009 -0.533328 0
M  V30 24 C -2.831019 -4.176316 -1.011865 0
M  V30 25 C -2.673976 -5.150563 -1.991234 0
M  V30 26 C -3.912806 -5.641903 -2.437604 0
M  V30 27 C -5.156745 -5.227789 -1.978596 0
M  V30 28 N -5.190985 -4.278533 -1.026698 0
M  V30 29 C 0.141430 0.733726 1.234509 0
M  V30 30 C 1.424516 1.092255 0.885331 0
M  V30 31 O -0.056205 0.160573 2.469811 0
M  V30 32 H -0.182900 0.394568 4.897244 0
M  V30 33 H -0.159749 -1.384788 4.824367 0
M  V30 34 H 1.324750 -0.424383 5.406759 0
M  V30 35 H 1.638967 -2.422398 3.659774 0
M  V30 36 H 0.271715 -2.382599 2.483088 0
M  V30 37 H 1.856586 -1.824977 1.910585 0
M  V30 38 H 2.360267 1.052760 3.884557 0
M  V30 39 H 3.149419 -0.465650 3.266275 0
M  V30 40 H 4.526977 1.045677 2.111136 0
M  V30 41 H 7.342867 1.480806 0.559203 0
M  V30 42 H 0.708253 3.481129 -2.265740 0
M  V30 43 H 1.116487 2.574761 -3.463181 0
M  V30 44 H -2.957245 1.067378 1.352462 0
M  V30 45 H -2.330718 -0.963975 -0.682184 0
M  V30 46 H -1.571159 -1.434069 0.836985 0
M  V30 47 H -3.852544 -1.267698 1.914141 0
M  V30 48 H -4.566172 -0.795474 0.346649 0
M  V30 49 H -4.061381 -3.455702 1.263230 0
M  V30 50 H -1.856827 -3.785270 -0.663739 0
M  V30 51 H -1.766567 -5.528459 -2.403842 0
M  V30 52 H -3.931984 -6.406393 -3.202427 0
M  V30 53 H -6.056468 -5.667290 -2.379626 0
M  V30 END ATOM
M  V30 BEGIN BOND
M  V30 1 1 1 2
M  V30 2 1 2 3
M  V30 3 1 2 4
M  V30 4 1 4 5
M  V30 5 1 5 6
M  V30 6 2 6 7
M  V30 7 1 7 8
M  V30 8 2 8 9
M  V30 9 1 8 10
M  V30 10 1 7 11
M  V30 11 2 11 12
M  V30 12 1 11 13
M  V30 13 1 13 14
M  V30 14 1 14 15
M  V30 15 2 14 16
M  V30 16 1 16 17
M  V30 17 1 16 18
M  V30 18 1 18 19
M  V30 19 1 19 20
M  V30 20 1 20 21
M  V30 21 1 21 22
M  V30 22 1 22 23
M  V30 23 2 23 24
M  V30 24 1 24 25
M  V30 25 2 25 26
M  V30 26 1 26 27
M  V30 27 2 27 28
M  V30 28 2 18 29
M  V30 29 1 29 30
M  V30 30 1 29 31
M  V30 31 1 31 2
M  V30 32 1 30 5
M  V30 33 2 30 13
M  V30 34 1 28 23
M  V30 35 1 1 32
M  V30 36 1 1 33
M  V30 37 1 1 34
M  V30 38 1 3 35
M  V30 39 1 3 36
M  V30 40 1 3 37
M  V30 41 1 4 38
M  V30 42 1 4 39
M  V30 43 1 6 40
M  V30 44 1 10 41
M  V30 45 1 15 42
M  V30 46 1 15 43
M  V30 47 1 19 44
M  V30 48 1 20 45
M  V30 49 1 20 46
M  V30 50 1 21 47
M  V30 51 1 21 48
M  V30 52 1 22 49
M  V30 53 1 24 50
M  V30 54 1 25 51
M  V30 55 1 26 52
M  V30 56 1 27 53
M  V30 END BOND
M  V30 END CTAB
M  END
>  <Dataset>  (505) 
ChEMBL_Kinases

>  <Ligand_Instance>  (505) 
nan

>  <PDB_ID>  (505) 
nan

>  <Standardized_SMILES>  (505) 
CC1(C)Cn2cc(C(=O)O)c(=O)c3c(N)c(F)c(NCCNc4ccccn4)c(c32)O1

>  <Name>  (505) 
nan

>  <Pocket>  (505) 
nan

>  <ATP_Site>  (505) 
nan

>  <Peripheral>  (505) 
nan

>  <Num_H_Atoms_ProtBoundConf>  (505) 
nan

>  <Num_Resolved_Atoms>  (505) 
nan

>  <Num_Not_Resolved_Atoms>  (505) 
nan

$$$$
CHEMBL1834326
     RDKit          3D

  0  0  0  0  0  0  0  0  0  0999 V3000
M  V30 BEGIN CTAB
M  V30 COUNTS 53 56 0 0 0
M  V30 BEGIN ATOM
M  V30 1 C -0.888323 -2.222358 3.868563 0
M  V30 2 C 0.382879 -2.401471 3.031690 0
M  V30 3 C 1.235036 -3.428805 3.786771 0
M  V30 4 C 1.098997 -1.090864 3.011833 0
M  V30 5 O 1.644097 -0.742128 1.755552 0
M  V30 6 C 1.230847 -1.274912 0.557192 0
M  V30 7 C 1.644550 -0.725287 -0.661244 0
M  V30 8 N 2.514050 0.412001 -0.554248 0
M  V30 9 C 1.904126 1.737335 -0.497728 0
M  V30 10 C 1.081502 2.066849 -1.706567 0
M  V30 11 N 0.484247 3.390849 -1.628009 0
M  V30 12 C -0.413961 3.733826 -0.586773 0
M  V30 13 C -1.001464 4.996412 -0.483044 0
M  V30 14 C -1.873312 5.367240 0.505426 0
M  V30 15 C -2.215880 4.466258 1.475068 0
M  V30 16 C -1.642181 3.215365 1.383765 0
M  V30 17 N -0.798748 2.907558 0.399212 0
M  V30 18 C 1.223010 -1.269135 -1.840562 0
M  V30 19 F 1.630513 -0.728227 -2.987967 0
M  V30 20 C 0.387380 -2.363376 -1.754772 0
M  V30 21 N -0.048312 -2.925429 -2.988105 0
M  V30 22 C -0.067335 -2.966250 -0.599751 0
M  V30 23 C -0.904607 -4.061845 -0.642514 0
M  V30 24 O -1.286197 -4.553986 -1.726434 0
M  V30 25 C -1.279275 -4.560580 0.594492 0
M  V30 26 C -2.160662 -5.714761 0.650824 0
M  V30 27 O -2.557314 -6.241034 1.719223 0
M  V30 28 O -2.629698 -6.321243 -0.496064 0
M  V30 29 C -0.827318 -3.976846 1.754950 0
M  V30 30 N -0.005398 -2.900942 1.739172 0
M  V30 31 C 0.383641 -2.383823 0.567137 0
M  V30 32 H -1.792233 -2.460389 3.269080 0
M  V30 33 H -0.899742 -2.848335 4.768282 0
M  V30 34 H -1.024996 -1.152804 4.171097 0
M  V30 35 H 1.095760 -3.243699 4.881450 0
M  V30 36 H 0.827310 -4.445260 3.605348 0
M  V30 37 H 2.295138 -3.304287 3.521865 0
M  V30 38 H 0.399941 -0.258937 3.281087 0
M  V30 39 H 1.894414 -1.075734 3.787587 0
M  V30 40 H 3.557174 0.211524 -0.522874 0
M  V30 41 H 1.334890 1.862228 0.433179 0
M  V30 42 H 2.741039 2.464299 -0.471062 0
M  V30 43 H 1.667837 1.947152 -2.629429 0
M  V30 44 H 0.190582 1.378331 -1.802263 0
M  V30 45 H 0.690252 4.135300 -2.327851 0
M  V30 46 H -0.741314 5.740451 -1.252542 0
M  V30 47 H -2.294627 6.366786 0.527533 0
M  V30 48 H -2.892717 4.702073 2.271384 0
M  V30 49 H -1.837909 2.438717 2.083151 0
M  V30 50 H -0.824179 -2.344618 -3.425580 0
M  V30 51 H -0.338278 -3.368529 -3.885697 0
M  V30 52 H -3.541095 -6.772128 -0.554558 0
M  V30 53 H -1.166073 -4.426513 2.691331 0
M  V30 END ATOM
M  V30 BEGIN BOND
M  V30 1 1 1 2
M  V30 2 1 2 3
M  V30 3 1 2 4
M  V30 4 1 4 5
M  V30 5 1 5 6
M  V30 6 1 6 7
M  V30 7 1 7 8
M  V30 8 1 8 9
M  V30 9 1 9 10
M  V30 10 1 10 11
M  V30 11 1 11 12
M  V30 12 2 12 13
M  V30 13 1 13 14
M  V30 14 2 14 15
M  V30 15 1 15 16
M  V30 16 2 16 17
M  V30 17 2 7 18
M  V30 18 1 18 19
M  V30 19 1 18 20
M  V30 20 1 20 21
M  V30 21 2 20 22
M  V30 22 1 22 23
M  V30 23 2 23 24
M  V30 24 1 23 25
M  V30 25 1 25 26
M  V30 26 2 26 27
M  V30 27 1 26 28
M  V30 28 2 25 29
M  V30 29 1 29 30
M  V30 30 1 30 31
M  V30 31 1 30 2
M  V30 32 2 31 6
M  V30 33 1 17 12
M  V30 34 1 31 22
M  V30 35 1 1 32
M  V30 36 1 1 33
M  V30 37 1 1 34
M  V30 38 1 3 35
M  V30 39 1 3 36
M  V30 40 1 3 37
M  V30 41 1 4 38
M  V30 42 1 4 39
M  V30 43 1 8 40
M  V30 44 1 9 41
M  V30 45 1 9 42
M  V30 46 1 10 43
M  V30 47 1 10 44
M  V30 48 1 11 45
M  V30 49 1 13 46
M  V30 50 1 14 47
M  V30 51 1 15 48
M  V30 52 1 16 49
M  V30 53 1 21 50
M  V30 54 1 21 51
M  V30 55 1 28 52
M  V30 56 1 29 53
M  V30 END BOND
M  V30 END CTAB
M  END
>  <Dataset>  (506) 
ChEMBL_Kinases

>  <Ligand_Instance>  (506) 
nan

>  <PDB_ID>  (506) 
nan

>  <Standardized_SMILES>  (506) 
CC1(C)COc2c(NCCNc3ccccn3)c(F)c(N)c3c(=O)c(C(=O)O)cn1c23

>  <Name>  (506) 
nan

>  <Pocket>  (506) 
nan

>  <ATP_Site>  (506) 
nan

>  <Peripheral>  (506) 
nan

>  <Num_H_Atoms_ProtBoundConf>  (506) 
nan

>  <Num_Resolved_Atoms>  (506) 
nan

>  <Num_Not_Resolved_Atoms>  (506) 
nan

$$$$
CHEMBL1834325
     RDKit          3D

  0  0  0  0  0  0  0  0  0  0999 V3000
M  V30 BEGIN CTAB
M  V30 COUNTS 56 59 0 0 0
M  V30 BEGIN ATOM
M  V30 1 C 3.041697 -1.770433 1.542967 0
M  V30 2 C 1.794578 -0.969685 1.716768 0
M  V30 3 C 2.098513 0.331728 2.360696 0
M  V30 4 C 0.724257 -1.787229 2.458156 0 CFG=1
M  V30 5 C -0.518338 -0.959981 2.631057 0
M  V30 6 O -0.813441 -0.435166 1.326525 0
M  V30 7 C -1.153014 -1.376291 0.359801 0
M  V30 8 C -2.023671 -1.214891 -0.716485 0
M  V30 9 N -2.564009 0.114980 -0.697914 0
M  V30 10 C -1.886848 1.256723 -1.306232 0
M  V30 11 C -2.763046 2.467956 -1.210137 0
M  V30 12 N -2.132959 3.689518 -1.713954 0
M  V30 13 C -1.004323 3.889859 -0.826543 0
M  V30 14 C 0.335082 3.711716 -1.067332 0
M  V30 15 C 1.227392 3.944862 -0.047888 0
M  V30 16 C 0.865384 4.349906 1.215976 0
M  V30 17 C -0.497067 4.512181 1.397672 0
M  V30 18 N -1.365588 4.290512 0.422662 0
M  V30 19 C -2.264970 -2.245966 -1.593518 0
M  V30 20 F -3.134591 -1.931553 -2.577918 0
M  V30 21 C -1.628397 -3.452012 -1.391600 0
M  V30 22 N -1.967290 -4.454147 -2.373180 0
M  V30 23 C -0.754934 -3.642311 -0.331174 0
M  V30 24 C -0.175289 -4.912414 -0.233647 0
M  V30 25 O -0.422442 -5.831817 -1.054277 0
M  V30 26 C 0.684093 -5.058866 0.833787 0
M  V30 27 C 1.308179 -6.364425 0.959337 0
M  V30 28 O 1.163189 -7.356052 0.228904 0
M  V30 29 O 2.199423 -6.989145 1.805930 0
M  V30 30 C 0.967125 -4.064146 1.737035 0
M  V30 31 N 0.350127 -2.886931 1.539304 0
M  V30 32 C -0.511127 -2.606804 0.546903 0
M  V30 33 H 3.679716 -1.206274 0.812883 0
M  V30 34 H 3.637669 -1.874264 2.457134 0
M  V30 35 H 2.870693 -2.755120 1.037949 0
M  V30 36 H 1.424296 -0.750692 0.680100 0
M  V30 37 H 2.493600 1.015323 1.547206 0
M  V30 38 H 1.231837 0.890152 2.765356 0
M  V30 39 H 2.930281 0.221933 3.059526 0
M  V30 40 H 1.111370 -2.153264 3.398112 0
M  V30 41 H -0.403488 -0.141314 3.368476 0
M  V30 42 H -1.346257 -1.632438 2.911880 0
M  V30 43 H -3.470074 0.238643 -0.227405 0
M  V30 44 H -0.942626 1.489642 -0.764789 0
M  V30 45 H -1.587754 1.034378 -2.345436 0
M  V30 46 H -3.673841 2.302101 -1.843374 0
M  V30 47 H -3.088873 2.666248 -0.179245 0
M  V30 48 H -2.254065 4.407857 -2.478083 0
M  V30 49 H 0.564911 3.394712 -2.075704 0
M  V30 50 H 2.270348 3.793649 -0.270943 0
M  V30 51 H 1.525975 4.535129 2.022431 0
M  V30 52 H -0.902823 4.834017 2.371504 0
M  V30 53 H -2.716493 -4.962248 -1.821891 0
M  V30 54 H -1.536666 -4.548094 -3.307994 0
M  V30 55 H 1.994229 -7.654798 2.513908 0
M  V30 56 H 1.633843 -4.200814 2.549559 0
M  V30 END ATOM
M  V30 BEGIN BOND
M  V30 1 1 1 2
M  V30 2 1 2 3
M  V30 3 1 2 4
M  V30 4 1 4 5
M  V30 5 1 5 6
M  V30 6 1 6 7
M  V30 7 1 7 8
M  V30 8 1 8 9
M  V30 9 1 9 10
M  V30 10 1 10 11
M  V30 11 1 11 12
M  V30 12 1 12 13
M  V30 13 2 13 14
M  V30 14 1 14 15
M  V30 15 2 15 16
M  V30 16 1 16 17
M  V30 17 2 17 18
M  V30 18 2 8 19
M  V30 19 1 19 20
M  V30 20 1 19 21
M  V30 21 1 21 22
M  V30 22 2 21 23
M  V30 23 1 23 24
M  V30 24 2 24 25
M  V30 25 1 24 26
M  V30 26 1 26 27
M  V30 27 2 27 28
M  V30 28 1 27 29
M  V30 29 2 26 30
M  V30 30 1 30 31
M  V30 31 1 31 32
M  V30 32 1 31 4
M  V30 33 2 32 7
M  V30 34 1 18 13
M  V30 35 1 32 23
M  V30 36 1 1 33
M  V30 37 1 1 34
M  V30 38 1 1 35
M  V30 39 1 2 36
M  V30 40 1 3 37
M  V30 41 1 3 38
M  V30 42 1 3 39
M  V30 43 1 4 40 CFG=1
M  V30 44 1 5 41
M  V30 45 1 5 42
M  V30 46 1 9 43
M  V30 47 1 10 44
M  V30 48 1 10 45
M  V30 49 1 11 46
M  V30 50 1 11 47
M  V30 51 1 12 48
M  V30 52 1 14 49
M  V30 53 1 15 50
M  V30 54 1 16 51
M  V30 55 1 17 52
M  V30 56 1 22 53
M  V30 57 1 22 54
M  V30 58 1 29 55
M  V30 59 1 30 56
M  V30 END BOND
M  V30 END CTAB
M  END
>  <Dataset>  (507) 
ChEMBL_Kinases

>  <Ligand_Instance>  (507) 
nan

>  <PDB_ID>  (507) 
nan

>  <Standardized_SMILES>  (507) 
CC(C)[C@H]1COc2c(NCCNc3ccccn3)c(F)c(N)c3c(=O)c(C(=O)O)cn1c23

>  <Name>  (507) 
nan

>  <Pocket>  (507) 
nan

>  <ATP_Site>  (507) 
nan

>  <Peripheral>  (507) 
nan

>  <Num_H_Atoms_ProtBoundConf>  (507) 
nan

>  <Num_Resolved_Atoms>  (507) 
nan

>  <Num_Not_Resolved_Atoms>  (507) 
nan

$$$$
CHEMBL1801283
     RDKit          3D

  0  0  0  0  0  0  0  0  0  0999 V3000
M  V30 BEGIN CTAB
M  V30 COUNTS 44 49 0 0 0
M  V30 BEGIN ATOM
M  V30 1 O 4.949566 0.397187 2.727071 0
M  V30 2 C 4.516083 -0.492546 1.919800 0
M  V30 3 N 5.350468 -1.530920 1.377145 0
M  V30 4 C 4.607860 -2.770464 1.108005 0
M  V30 5 C 3.518353 -2.466678 0.117184 0
M  V30 6 C 3.786260 -2.490226 -1.341985 0
M  V30 7 C 3.031759 -3.581045 -0.696860 0
M  V30 8 C 2.625043 -1.421640 0.648003 0
M  V30 9 N 1.318226 -1.242431 0.395359 0
M  V30 10 C 0.957592 -0.162067 1.111463 0
M  V30 11 C 2.029071 0.345827 1.817763 0
M  V30 12 C 3.098704 -0.465013 1.518301 0
M  V30 13 C 2.034669 1.515064 2.710586 0
M  V30 14 C 0.722888 2.203944 2.845557 0
M  V30 15 C -0.380853 1.622222 2.073105 0
M  V30 16 C -1.595112 2.237177 2.180160 0
M  V30 17 N -2.697401 1.818759 1.532770 0
M  V30 18 C -2.693234 0.748101 0.717785 0
M  V30 19 C -3.892986 0.298323 0.017445 0
M  V30 20 C -3.941555 -0.791752 -0.828053 0
M  V30 21 C -5.126989 -1.136477 -1.444042 0
M  V30 22 C -6.291990 -0.392383 -1.223872 0
M  V30 23 F -7.452402 -0.720943 -1.820081 0
M  V30 24 N -6.203620 0.663654 -0.392465 0
M  V30 25 C -5.056564 1.013955 0.216340 0
M  V30 26 C -1.474064 0.121846 0.603576 0
M  V30 27 C -0.327779 0.519148 1.247972 0
M  V30 28 H 6.371885 -1.263359 1.247725 0
M  V30 29 H 4.139652 -3.160066 2.035073 0
M  V30 30 H 5.298030 -3.544254 0.766167 0
M  V30 31 H 4.838162 -2.670106 -1.692648 0
M  V30 32 H 3.190624 -1.768336 -1.943261 0
M  V30 33 H 3.565480 -4.560071 -0.612238 0
M  V30 34 H 1.947178 -3.711585 -0.860136 0
M  V30 35 H 0.683814 -1.812580 -0.228210 0
M  V30 36 H 2.763926 2.256864 2.279367 0
M  V30 37 H 2.453429 1.275506 3.717287 0
M  V30 38 H 0.423888 2.229488 3.925408 0
M  V30 39 H 0.775349 3.283507 2.549623 0
M  V30 40 H -1.786731 3.122593 2.798078 0
M  V30 41 H -3.053359 -1.352492 -0.990911 0
M  V30 42 H -5.217423 -1.979449 -2.113632 0
M  V30 43 H -5.040450 1.885162 0.885320 0
M  V30 44 H -1.367560 -0.742262 -0.023459 0
M  V30 END ATOM
M  V30 BEGIN BOND
M  V30 1 2 1 2
M  V30 2 1 2 3
M  V30 3 1 3 4
M  V30 4 1 4 5
M  V30 5 1 5 6
M  V30 6 1 6 7
M  V30 7 1 5 8
M  V30 8 1 8 9
M  V30 9 1 9 10
M  V30 10 2 10 11
M  V30 11 1 11 12
M  V30 12 1 11 13
M  V30 13 1 13 14
M  V30 14 1 14 15
M  V30 15 2 15 16
M  V30 16 1 16 17
M  V30 17 2 17 18
M  V30 18 1 18 19
M  V30 19 2 19 20
M  V30 20 1 20 21
M  V30 21 2 21 22
M  V30 22 1 22 23
M  V30 23 1 22 24
M  V30 24 2 24 25
M  V30 25 1 18 26
M  V30 26 2 26 27
M  V30 27 1 12 2
M  V30 28 1 27 15
M  V30 29 1 7 5
M  V30 30 2 12 8
M  V30 31 1 25 19
M  V30 32 1 27 10
M  V30 33 1 3 28
M  V30 34 1 4 29
M  V30 35 1 4 30
M  V30 36 1 6 31
M  V30 37 1 6 32
M  V30 38 1 7 33
M  V30 39 1 7 34
M  V30 40 1 9 35
M  V30 41 1 13 36
M  V30 42 1 13 37
M  V30 43 1 14 38
M  V30 44 1 14 39
M  V30 45 1 16 40
M  V30 46 1 20 41
M  V30 47 1 21 42
M  V30 48 1 25 43
M  V30 49 1 26 44
M  V30 END BOND
M  V30 END CTAB
M  END
>  <Dataset>  (508) 
ChEMBL_Kinases

>  <Ligand_Instance>  (508) 
nan

>  <PDB_ID>  (508) 
nan

>  <Standardized_SMILES>  (508) 
O=C1NCC2(CC2)c2[nH]c3c(c21)CCc1cnc(-c2ccc(F)nc2)cc1-3

>  <Name>  (508) 
nan

>  <Pocket>  (508) 
nan

>  <ATP_Site>  (508) 
nan

>  <Peripheral>  (508) 
nan

>  <Num_H_Atoms_ProtBoundConf>  (508) 
nan

>  <Num_Resolved_Atoms>  (508) 
nan

>  <Num_Not_Resolved_Atoms>  (508) 
nan

$$$$
CHEMBL1834323
     RDKit          3D

  0  0  0  0  0  0  0  0  0  0999 V3000
M  V30 BEGIN CTAB
M  V30 COUNTS 50 53 0 0 0
M  V30 BEGIN ATOM
M  V30 1 C 1.785040 -2.696566 -2.077637 0
M  V30 2 C 1.813214 -3.390527 -0.715842 0 CFG=1
M  V30 3 C 2.814487 -2.737848 0.186768 0
M  V30 4 O 2.235153 -1.643618 0.914296 0
M  V30 5 C 0.914325 -1.745495 1.326373 0
M  V30 6 C 0.552861 -0.892786 2.344069 0
M  V30 7 N 1.361977 0.066951 3.013632 0
M  V30 8 C 1.446461 1.427353 2.512809 0
M  V30 9 C 1.979848 1.526511 1.114471 0
M  V30 10 N 2.064586 2.884966 0.612928 0
M  V30 11 C 0.884620 3.670403 0.513714 0
M  V30 12 C 0.912355 4.986493 0.038709 0
M  V30 13 C -0.203757 5.779246 -0.073587 0
M  V30 14 C -1.435785 5.273418 0.296386 0
M  V30 15 C -1.458111 3.981255 0.762000 0
M  V30 16 N -0.337460 3.265805 0.845951 0
M  V30 17 C -0.750135 -0.900495 2.845971 0
M  V30 18 F -1.211273 -0.101407 3.847550 0
M  V30 19 C -1.671035 -1.791791 2.290372 0
M  V30 20 N -3.015955 -1.821221 2.786362 0
M  V30 21 C -1.275732 -2.633719 1.270511 0
M  V30 22 C -2.170254 -3.521568 0.708153 0
M  V30 23 O -3.336682 -3.542662 1.142858 0
M  V30 24 C -1.696545 -4.328474 -0.306371 0
M  V30 25 C -2.650990 -5.262202 -0.892378 0
M  V30 26 O -3.831158 -5.298657 -0.468044 0
M  V30 27 O -2.320373 -6.140332 -1.924092 0
M  V30 28 C -0.396981 -4.277737 -0.762712 0
M  V30 29 N 0.473541 -3.407255 -0.208812 0
M  V30 30 C 0.014332 -2.623562 0.776182 0
M  V30 31 H 2.848884 -2.544761 -2.413571 0
M  V30 32 H 1.236968 -3.317720 -2.791396 0
M  V30 33 H 1.315401 -1.706182 -2.016631 0
M  V30 34 H 2.172687 -4.437126 -0.908186 0
M  V30 35 H 3.638540 -2.291303 -0.408680 0
M  V30 36 H 3.257113 -3.465907 0.882422 0
M  V30 37 H 1.885902 -0.250808 3.872571 0
M  V30 38 H 0.498516 1.973389 2.656636 0
M  V30 39 H 2.189061 1.981563 3.158597 0
M  V30 40 H 1.328130 0.991027 0.382065 0
M  V30 41 H 2.956871 1.005957 1.053251 0
M  V30 42 H 2.959345 3.330435 0.313889 0
M  V30 43 H 1.847677 5.437407 -0.266091 0
M  V30 44 H -0.173109 6.784217 -0.437766 0
M  V30 45 H -2.373128 5.779951 0.259033 0
M  V30 46 H -2.306674 3.412634 1.095597 0
M  V30 47 H -3.642018 -1.160272 2.237735 0
M  V30 48 H -3.188993 -2.462402 3.586629 0
M  V30 49 H -2.952874 -6.858145 -2.234959 0
M  V30 50 H -0.087350 -4.947870 -1.572472 0
M  V30 END ATOM
M  V30 BEGIN BOND
M  V30 1 1 1 2
M  V30 2 1 2 3
M  V30 3 1 3 4
M  V30 4 1 4 5
M  V30 5 1 5 6
M  V30 6 1 6 7
M  V30 7 1 7 8
M  V30 8 1 8 9
M  V30 9 1 9 10
M  V30 10 1 10 11
M  V30 11 2 11 12
M  V30 12 1 12 13
M  V30 13 2 13 14
M  V30 14 1 14 15
M  V30 15 2 15 16
M  V30 16 2 6 17
M  V30 17 1 17 18
M  V30 18 1 17 19
M  V30 19 1 19 20
M  V30 20 2 19 21
M  V30 21 1 21 22
M  V30 22 2 22 23
M  V30 23 1 22 24
M  V30 24 1 24 25
M  V30 25 2 25 26
M  V30 26 1 25 27
M  V30 27 2 24 28
M  V30 28 1 28 29
M  V30 29 1 29 30
M  V30 30 1 29 2
M  V30 31 2 30 5
M  V30 32 1 16 11
M  V30 33 1 30 21
M  V30 34 1 1 31
M  V30 35 1 1 32
M  V30 36 1 1 33
M  V30 37 1 2 34 CFG=3
M  V30 38 1 3 35
M  V30 39 1 3 36
M  V30 40 1 7 37
M  V30 41 1 8 38
M  V30 42 1 8 39
M  V30 43 1 9 40
M  V30 44 1 9 41
M  V30 45 1 10 42
M  V30 46 1 12 43
M  V30 47 1 13 44
M  V30 48 1 14 45
M  V30 49 1 15 46
M  V30 50 1 20 47
M  V30 51 1 20 48
M  V30 52 1 27 49
M  V30 53 1 28 50
M  V30 END BOND
M  V30 END CTAB
M  END
>  <Dataset>  (509) 
ChEMBL_Kinases

>  <Ligand_Instance>  (509) 
nan

>  <PDB_ID>  (509) 
nan

>  <Standardized_SMILES>  (509) 
C[C@H]1COc2c(NCCNc3ccccn3)c(F)c(N)c3c(=O)c(C(=O)O)cn1c23

>  <Name>  (509) 
nan

>  <Pocket>  (509) 
nan

>  <ATP_Site>  (509) 
nan

>  <Peripheral>  (509) 
nan

>  <Num_H_Atoms_ProtBoundConf>  (509) 
nan

>  <Num_Resolved_Atoms>  (509) 
nan

>  <Num_Not_Resolved_Atoms>  (509) 
nan

$$$$
CHEMBL1834322
     RDKit          3D

  0  0  0  0  0  0  0  0  0  0999 V3000
M  V30 BEGIN CTAB
M  V30 COUNTS 50 53 0 0 0
M  V30 BEGIN ATOM
M  V30 1 C 2.423378 -4.028834 -1.924103 0
M  V30 2 C 1.846625 -2.870613 -1.210891 0 CFG=2
M  V30 3 C 2.759397 -2.402242 -0.091960 0
M  V30 4 O 2.122990 -1.422697 0.713305 0
M  V30 5 C 0.847172 -1.590725 1.218076 0
M  V30 6 C 0.466169 -0.954664 2.357500 0
M  V30 7 N 1.318950 -0.094233 3.097604 0
M  V30 8 C 1.342016 1.319830 2.781402 0
M  V30 9 C 1.756461 1.623818 1.378915 0
M  V30 10 N 1.782711 3.031267 1.053059 0
M  V30 11 C 0.637883 3.861088 1.122070 0
M  V30 12 C 0.669767 5.223466 0.808003 0
M  V30 13 C -0.436066 6.043521 0.869802 0
M  V30 14 C -1.648443 5.528014 1.256275 0
M  V30 15 C -1.642146 4.192676 1.555733 0
M  V30 16 N -0.565650 3.392299 1.496038 0
M  V30 17 C -0.849398 -1.221471 2.743257 0
M  V30 18 F -1.317485 -0.621844 3.881189 0
M  V30 19 C -1.677367 -2.068106 2.008195 0
M  V30 20 N -3.005569 -2.250967 2.522301 0
M  V30 21 C -1.237299 -2.700683 0.839199 0
M  V30 22 C -2.122329 -3.535257 0.154901 0
M  V30 23 O -3.275922 -3.701765 0.590332 0
M  V30 24 C -1.593625 -4.110341 -0.983155 0
M  V30 25 C -2.467065 -4.996279 -1.748273 0
M  V30 26 O -3.624791 -5.184282 -1.341419 0
M  V30 27 O -2.052511 -5.634996 -2.911184 0
M  V30 28 C -0.290628 -3.840569 -1.357265 0
M  V30 29 N 0.534234 -3.032253 -0.675573 0
M  V30 30 C 0.080201 -2.438558 0.445572 0
M  V30 31 H 3.541066 -3.878458 -1.956947 0
M  V30 32 H 2.262645 -5.013957 -1.489749 0
M  V30 33 H 2.103921 -4.068948 -2.987240 0
M  V30 34 H 1.793982 -2.018624 -1.923987 0
M  V30 35 H 3.613809 -1.872208 -0.600563 0
M  V30 36 H 3.144474 -3.246371 0.509596 0
M  V30 37 H 1.841488 -0.669663 3.817662 0
M  V30 38 H 0.377489 1.806817 2.993020 0
M  V30 39 H 2.078665 1.839149 3.448620 0
M  V30 40 H 1.085995 1.155051 0.619835 0
M  V30 41 H 2.776719 1.207329 1.177247 0
M  V30 42 H 2.682008 3.507184 0.742492 0
M  V30 43 H 1.617762 5.634322 0.504054 0
M  V30 44 H -0.316950 7.089849 0.607483 0
M  V30 45 H -2.539197 6.135320 1.318046 0
M  V30 46 H -2.562170 3.709651 1.869700 0
M  V30 47 H -3.039212 -3.029734 3.215077 0
M  V30 48 H -3.820437 -1.648791 2.210449 0
M  V30 49 H -2.536789 -6.453212 -3.297870 0
M  V30 50 H 0.014595 -4.340741 -2.256567 0
M  V30 END ATOM
M  V30 BEGIN BOND
M  V30 1 1 1 2
M  V30 2 1 2 3
M  V30 3 1 3 4
M  V30 4 1 4 5
M  V30 5 1 5 6
M  V30 6 1 6 7
M  V30 7 1 7 8
M  V30 8 1 8 9
M  V30 9 1 9 10
M  V30 10 1 10 11
M  V30 11 2 11 12
M  V30 12 1 12 13
M  V30 13 2 13 14
M  V30 14 1 14 15
M  V30 15 2 15 16
M  V30 16 2 6 17
M  V30 17 1 17 18
M  V30 18 1 17 19
M  V30 19 1 19 20
M  V30 20 2 19 21
M  V30 21 1 21 22
M  V30 22 2 22 23
M  V30 23 1 22 24
M  V30 24 1 24 25
M  V30 25 2 25 26
M  V30 26 1 25 27
M  V30 27 2 24 28
M  V30 28 1 28 29
M  V30 29 1 29 30
M  V30 30 1 29 2
M  V30 31 2 30 5
M  V30 32 1 16 11
M  V30 33 1 30 21
M  V30 34 1 1 31
M  V30 35 1 1 32
M  V30 36 1 1 33
M  V30 37 1 2 34 CFG=3
M  V30 38 1 3 35
M  V30 39 1 3 36
M  V30 40 1 7 37
M  V30 41 1 8 38
M  V30 42 1 8 39
M  V30 43 1 9 40
M  V30 44 1 9 41
M  V30 45 1 10 42
M  V30 46 1 12 43
M  V30 47 1 13 44
M  V30 48 1 14 45
M  V30 49 1 15 46
M  V30 50 1 20 47
M  V30 51 1 20 48
M  V30 52 1 27 49
M  V30 53 1 28 50
M  V30 END BOND
M  V30 END CTAB
M  END
>  <Dataset>  (510) 
ChEMBL_Kinases

>  <Ligand_Instance>  (510) 
nan

>  <PDB_ID>  (510) 
nan

>  <Standardized_SMILES>  (510) 
C[C@@H]1COc2c(NCCNc3ccccn3)c(F)c(N)c3c(=O)c(C(=O)O)cn1c23

>  <Name>  (510) 
nan

>  <Pocket>  (510) 
nan

>  <ATP_Site>  (510) 
nan

>  <Peripheral>  (510) 
nan

>  <Num_H_Atoms_ProtBoundConf>  (510) 
nan

>  <Num_Resolved_Atoms>  (510) 
nan

>  <Num_Not_Resolved_Atoms>  (510) 
nan

$$$$
CHEMBL1834320
     RDKit          3D

  0  0  0  0  0  0  0  0  0  0999 V3000
M  V30 BEGIN CTAB
M  V30 COUNTS 49 51 0 0 0
M  V30 BEGIN ATOM
M  V30 1 C 0.606568 -2.685056 2.973048 0
M  V30 2 O 0.658694 -1.813584 1.831843 0
M  V30 3 C -0.327308 -0.842623 1.759827 0
M  V30 4 C 0.048455 0.299943 2.434337 0
M  V30 5 N 1.231929 0.595532 3.141063 0
M  V30 6 C 2.548279 1.164417 2.937624 0
M  V30 7 C 3.312022 0.374206 1.915366 0
M  V30 8 N 2.603317 0.384766 0.657270 0
M  V30 9 C 3.015483 -0.230275 -0.574543 0
M  V30 10 C 2.803866 -1.496743 -1.085154 0
M  V30 11 C 3.343267 -1.776008 -2.322104 0
M  V30 12 C 4.059054 -0.858456 -3.031255 0
M  V30 13 C 4.257789 0.397630 -2.503369 0
M  V30 14 N 3.729433 0.682302 -1.283601 0
M  V30 15 C -0.826435 1.392977 2.471584 0
M  V30 16 F -0.607123 2.580901 3.088402 0
M  V30 17 C -2.063570 1.300557 1.822335 0
M  V30 18 N -2.994471 2.381007 1.827164 0
M  V30 19 C -2.388204 0.134992 1.162333 0
M  V30 20 C -3.610929 0.074228 0.527219 0
M  V30 21 O -4.408652 1.029986 0.544637 0
M  V30 22 C -3.951332 -1.080172 -0.142945 0
M  V30 23 C -5.217642 -1.243067 -0.843834 0
M  V30 24 O -6.031721 -0.284710 -0.833616 0
M  V30 25 O -5.502532 -2.423334 -1.497214 0
M  V30 26 C -3.019065 -2.093054 -0.118473 0
M  V30 27 N -1.792829 -2.102493 0.488031 0
M  V30 28 C -0.934467 -3.253516 0.400119 0
M  V30 29 C -1.539132 -0.944783 1.117735 0
M  V30 30 H 1.185095 -2.319373 3.823072 0
M  V30 31 H -0.433399 -2.865575 3.286663 0
M  V30 32 H 0.992891 -3.661795 2.610415 0
M  V30 33 H 0.972740 0.257239 4.111431 0
M  V30 34 H 3.090010 1.246524 3.899878 0
M  V30 35 H 2.402538 2.197930 2.501976 0
M  V30 36 H 4.308428 0.896947 1.815197 0
M  V30 37 H 3.482535 -0.651650 2.289336 0
M  V30 38 H 1.678538 0.854673 0.486688 0
M  V30 39 H 2.226986 -2.085587 -0.403777 0
M  V30 40 H 3.126112 -2.802697 -2.648312 0
M  V30 41 H 4.442834 -1.176720 -3.997587 0
M  V30 42 H 4.829877 1.100501 -3.092092 0
M  V30 43 H -3.877414 2.450436 2.379434 0
M  V30 44 H -2.823755 3.227550 1.227594 0
M  V30 45 H -6.376705 -2.566656 -2.024597 0
M  V30 46 H -3.305744 -3.003288 -0.656290 0
M  V30 47 H 0.094964 -3.049407 0.119467 0
M  V30 48 H -1.100785 -4.020351 1.182278 0
M  V30 49 H -1.325587 -3.801724 -0.529003 0
M  V30 END ATOM
M  V30 BEGIN BOND
M  V30 1 1 1 2
M  V30 2 1 2 3
M  V30 3 2 3 4
M  V30 4 1 4 5
M  V30 5 1 5 6
M  V30 6 1 6 7
M  V30 7 1 7 8
M  V30 8 1 8 9
M  V30 9 2 9 10
M  V30 10 1 10 11
M  V30 11 2 11 12
M  V30 12 1 12 13
M  V30 13 2 13 14
M  V30 14 1 4 15
M  V30 15 1 15 16
M  V30 16 2 15 17
M  V30 17 1 17 18
M  V30 18 1 17 19
M  V30 19 1 19 20
M  V30 20 2 20 21
M  V30 21 1 20 22
M  V30 22 1 22 23
M  V30 23 2 23 24
M  V30 24 1 23 25
M  V30 25 2 22 26
M  V30 26 1 26 27
M  V30 27 1 27 28
M  V30 28 1 27 29
M  V30 29 1 29 3
M  V30 30 1 14 9
M  V30 31 2 29 19
M  V30 32 1 1 30
M  V30 33 1 1 31
M  V30 34 1 1 32
M  V30 35 1 5 33
M  V30 36 1 6 34
M  V30 37 1 6 35
M  V30 38 1 7 36
M  V30 39 1 7 37
M  V30 40 1 8 38
M  V30 41 1 10 39
M  V30 42 1 11 40
M  V30 43 1 12 41
M  V30 44 1 13 42
M  V30 45 1 18 43
M  V30 46 1 18 44
M  V30 47 1 25 45
M  V30 48 1 26 46
M  V30 49 1 28 47
M  V30 50 1 28 48
M  V30 51 1 28 49
M  V30 END BOND
M  V30 END CTAB
M  END
>  <Dataset>  (511) 
ChEMBL_Kinases

>  <Ligand_Instance>  (511) 
nan

>  <PDB_ID>  (511) 
nan

>  <Standardized_SMILES>  (511) 
COc1c(NCCNc2ccccn2)c(F)c(N)c2c(=O)c(C(=O)O)cn(C)c12

>  <Name>  (511) 
nan

>  <Pocket>  (511) 
nan

>  <ATP_Site>  (511) 
nan

>  <Peripheral>  (511) 
nan

>  <Num_H_Atoms_ProtBoundConf>  (511) 
nan

>  <Num_Resolved_Atoms>  (511) 
nan

>  <Num_Not_Resolved_Atoms>  (511) 
nan

$$$$
CHEMBL1834319
     RDKit          3D

  0  0  0  0  0  0  0  0  0  0999 V3000
M  V30 BEGIN CTAB
M  V30 COUNTS 46 48 0 0 0
M  V30 BEGIN ATOM
M  V30 1 C 0.329386 -3.774302 3.070643 0
M  V30 2 O 0.461587 -3.424653 1.697123 0
M  V30 3 C -0.354177 -2.409450 1.210855 0
M  V30 4 C 0.219067 -1.159820 1.327557 0
M  V30 5 N 1.488713 -0.796601 1.861038 0
M  V30 6 C 2.522883 -0.801398 0.820066 0
M  V30 7 C 3.860316 -0.426367 1.366131 0
M  V30 8 N 3.943601 0.866939 1.962143 0
M  V30 9 C 3.839091 2.127232 1.357222 0
M  V30 10 C 3.709921 2.368987 0.015921 0
M  V30 11 C 3.599837 3.596528 -0.586254 0
M  V30 12 C 3.619512 4.712120 0.226563 0
M  V30 13 C 3.749064 4.488381 1.579365 0
M  V30 14 N 3.851617 3.260718 2.095925 0
M  V30 15 C -0.474144 -0.034838 0.883912 0
M  V30 16 F -0.025530 1.248766 0.940964 0
M  V30 17 C -1.742089 -0.150820 0.322004 0
M  V30 18 N -2.487563 0.959574 -0.144718 0
M  V30 19 C -2.280317 -1.418516 0.223349 0
M  V30 20 C -3.536205 -1.581987 -0.326890 0
M  V30 21 O -4.161148 -0.571976 -0.726510 0
M  V30 22 C -4.055504 -2.859293 -0.415315 0
M  V30 23 C -5.376700 -3.080077 -0.988962 0
M  V30 24 O -5.974665 -4.186106 -1.132579 0
M  V30 25 O -6.113304 -2.005891 -1.446975 0
M  V30 26 C -3.318987 -3.954071 0.044100 0
M  V30 27 N -2.076751 -3.802041 0.589705 0
M  V30 28 C -1.609573 -2.542364 0.656551 0
M  V30 29 H 1.330906 -3.932224 3.539333 0
M  V30 30 H -0.230684 -4.723164 3.193973 0
M  V30 31 H -0.189619 -3.014235 3.652570 0
M  V30 32 H 1.728846 -0.547166 2.851149 0
M  V30 33 H 2.259412 -0.185820 -0.028674 0
M  V30 34 H 2.639655 -1.845782 0.412184 0
M  V30 35 H 4.169357 -1.216713 2.093284 0
M  V30 36 H 4.594086 -0.459121 0.522091 0
M  V30 37 H 4.107537 0.876790 3.015059 0
M  V30 38 H 3.696887 1.546922 -0.674074 0
M  V30 39 H 3.500016 3.722293 -1.660699 0
M  V30 40 H 3.535948 5.700681 -0.199721 0
M  V30 41 H 3.765855 5.371630 2.231103 0
M  V30 42 H -2.646660 1.389002 -1.094396 0
M  V30 43 H -2.882630 1.283847 0.764083 0
M  V30 44 H -6.862391 -2.064409 -2.129485 0
M  V30 45 H -3.688531 -4.983855 -0.004907 0
M  V30 46 H -1.547634 -4.613819 0.922094 0
M  V30 END ATOM
M  V30 BEGIN BOND
M  V30 1 1 1 2
M  V30 2 1 2 3
M  V30 3 2 3 4
M  V30 4 1 4 5
M  V30 5 1 5 6
M  V30 6 1 6 7
M  V30 7 1 7 8
M  V30 8 1 8 9
M  V30 9 2 9 10
M  V30 10 1 10 11
M  V30 11 2 11 12
M  V30 12 1 12 13
M  V30 13 2 13 14
M  V30 14 1 4 15
M  V30 15 1 15 16
M  V30 16 2 15 17
M  V30 17 1 17 18
M  V30 18 1 17 19
M  V30 19 1 19 20
M  V30 20 2 20 21
M  V30 21 1 20 22
M  V30 22 1 22 23
M  V30 23 2 23 24
M  V30 24 1 23 25
M  V30 25 2 22 26
M  V30 26 1 26 27
M  V30 27 1 27 28
M  V30 28 1 28 3
M  V30 29 1 14 9
M  V30 30 2 28 19
M  V30 31 1 1 29
M  V30 32 1 1 30
M  V30 33 1 1 31
M  V30 34 1 5 32
M  V30 35 1 6 33
M  V30 36 1 6 34
M  V30 37 1 7 35
M  V30 38 1 7 36
M  V30 39 1 8 37
M  V30 40 1 10 38
M  V30 41 1 11 39
M  V30 42 1 12 40
M  V30 43 1 13 41
M  V30 44 1 18 42
M  V30 45 1 18 43
M  V30 46 1 25 44
M  V30 47 1 26 45
M  V30 48 1 27 46
M  V30 END BOND
M  V30 END CTAB
M  END
>  <Dataset>  (512) 
ChEMBL_Kinases

>  <Ligand_Instance>  (512) 
nan

>  <PDB_ID>  (512) 
nan

>  <Standardized_SMILES>  (512) 
COc1c(NCCNc2ccccn2)c(F)c(N)c2c(=O)c(C(=O)O)c[nH]c12

>  <Name>  (512) 
nan

>  <Pocket>  (512) 
nan

>  <ATP_Site>  (512) 
nan

>  <Peripheral>  (512) 
nan

>  <Num_H_Atoms_ProtBoundConf>  (512) 
nan

>  <Num_Resolved_Atoms>  (512) 
nan

>  <Num_Not_Resolved_Atoms>  (512) 
nan

$$$$
CHEMBL1834318
     RDKit          3D

  0  0  0  0  0  0  0  0  0  0999 V3000
M  V30 BEGIN CTAB
M  V30 COUNTS 55 58 0 0 0
M  V30 BEGIN ATOM
M  V30 1 N -0.629433 -1.305912 4.622467 0
M  V30 2 C -0.019604 -1.494907 3.350602 0
M  V30 3 C 1.358121 -1.437658 3.252570 0
M  V30 4 F 2.151581 -1.205470 4.345632 0
M  V30 5 C 1.871059 -1.631910 1.975816 0
M  V30 6 N 3.298657 -1.580276 1.807967 0
M  V30 7 C 3.953866 -0.301790 1.535485 0
M  V30 8 C 2.893052 0.723970 1.263970 0
M  V30 9 N 3.498414 2.026607 0.952478 0
M  V30 10 C 2.410078 2.949480 0.741592 0
M  V30 11 C 1.916990 3.897944 1.614345 0
M  V30 12 C 0.850495 4.671988 1.225890 0
M  V30 13 C 0.261434 4.524024 -0.015807 0
M  V30 14 C 0.781756 3.567309 -0.860261 0
M  V30 15 N 1.822220 2.820243 -0.465882 0
M  V30 16 C 1.070258 -1.866174 0.876340 0
M  V30 17 F 1.724478 -2.060079 -0.272252 0
M  V30 18 C -0.294145 -1.907856 1.053551 0
M  V30 19 C -0.857148 -1.723284 2.292346 0
M  V30 20 C -2.226412 -1.773763 2.443298 0
M  V30 21 O -2.697354 -1.600089 3.589177 0
M  V30 22 C -2.978400 -2.014082 1.311363 0
M  V30 23 C -4.423634 -2.071945 1.466795 0
M  V30 24 O -4.953154 -1.905868 2.591140 0
M  V30 25 O -5.328344 -2.306117 0.442459 0
M  V30 26 C -2.332818 -2.187109 0.110780 0
M  V30 27 N -0.975172 -2.140971 -0.068121 0
M  V30 28 C -0.567709 -2.353495 -1.434719 0
M  V30 29 C -0.850491 -3.778903 -1.857759 0
M  V30 30 C -1.680282 -3.750050 -3.101608 0
M  V30 31 C -2.163807 -2.342697 -3.277593 0
M  V30 32 C -1.517483 -1.469480 -2.275824 0
M  V30 33 H -0.911449 -1.854140 5.468883 0
M  V30 34 H -0.904238 -0.305094 4.817946 0
M  V30 35 H 3.683423 -2.537456 1.913237 0
M  V30 36 H 4.631058 -0.017224 2.355056 0
M  V30 37 H 4.534723 -0.420033 0.594151 0
M  V30 38 H 2.303733 0.445549 0.388541 0
M  V30 39 H 2.265770 0.879885 2.175344 0
M  V30 40 H 4.515584 2.302821 0.882268 0
M  V30 41 H 2.435436 3.942410 2.549444 0
M  V30 42 H 0.497247 5.406250 1.945184 0
M  V30 43 H -0.590210 5.179191 -0.255702 0
M  V30 44 H 0.288668 3.482354 -1.816073 0
M  V30 45 H -6.029240 -3.060921 0.514845 0
M  V30 46 H -3.058615 -2.378735 -0.697692 0
M  V30 47 H 0.394725 -1.983604 -1.748469 0
M  V30 48 H 0.108922 -4.311306 -2.001494 0
M  V30 49 H -1.494912 -4.282581 -1.072657 0
M  V30 50 H -2.604614 -4.387605 -3.030352 0
M  V30 51 H -1.151103 -4.142155 -4.001380 0
M  V30 52 H -1.928123 -2.059404 -4.344589 0
M  V30 53 H -3.289483 -2.255214 -3.252919 0
M  V30 54 H -0.936897 -0.696088 -2.866165 0
M  V30 55 H -2.182392 -0.859516 -1.646394 0
M  V30 END ATOM
M  V30 BEGIN BOND
M  V30 1 1 1 2
M  V30 2 2 2 3
M  V30 3 1 3 4
M  V30 4 1 3 5
M  V30 5 1 5 6
M  V30 6 1 6 7
M  V30 7 1 7 8
M  V30 8 1 8 9
M  V30 9 1 9 10
M  V30 10 2 10 11
M  V30 11 1 11 12
M  V30 12 2 12 13
M  V30 13 1 13 14
M  V30 14 2 14 15
M  V30 15 2 5 16
M  V30 16 1 16 17
M  V30 17 1 16 18
M  V30 18 2 18 19
M  V30 19 1 19 20
M  V30 20 2 20 21
M  V30 21 1 20 22
M  V30 22 1 22 23
M  V30 23 2 23 24
M  V30 24 1 23 25
M  V30 25 2 22 26
M  V30 26 1 26 27
M  V30 27 1 27 28
M  V30 28 1 28 29
M  V30 29 1 29 30
M  V30 30 1 30 31
M  V30 31 1 31 32
M  V30 32 1 19 2
M  V30 33 1 32 28
M  V30 34 1 15 10
M  V30 35 1 27 18
M  V30 36 1 1 33
M  V30 37 1 1 34
M  V30 38 1 6 35
M  V30 39 1 7 36
M  V30 40 1 7 37
M  V30 41 1 8 38
M  V30 42 1 8 39
M  V30 43 1 9 40
M  V30 44 1 11 41
M  V30 45 1 12 42
M  V30 46 1 13 43
M  V30 47 1 14 44
M  V30 48 1 25 45
M  V30 49 1 26 46
M  V30 50 1 28 47
M  V30 51 1 29 48
M  V30 52 1 29 49
M  V30 53 1 30 50
M  V30 54 1 30 51
M  V30 55 1 31 52
M  V30 56 1 31 53
M  V30 57 1 32 54
M  V30 58 1 32 55
M  V30 END BOND
M  V30 END CTAB
M  END
>  <Dataset>  (513) 
ChEMBL_Kinases

>  <Ligand_Instance>  (513) 
nan

>  <PDB_ID>  (513) 
nan

>  <Standardized_SMILES>  (513) 
Nc1c(F)c(NCCNc2ccccn2)c(F)c2c1c(=O)c(C(=O)O)cn2C1CCCC1

>  <Name>  (513) 
nan

>  <Pocket>  (513) 
nan

>  <ATP_Site>  (513) 
nan

>  <Peripheral>  (513) 
nan

>  <Num_H_Atoms_ProtBoundConf>  (513) 
nan

>  <Num_Resolved_Atoms>  (513) 
nan

>  <Num_Not_Resolved_Atoms>  (513) 
nan

$$$$
CHEMBL1834317
     RDKit          3D

  0  0  0  0  0  0  0  0  0  0999 V3000
M  V30 BEGIN CTAB
M  V30 COUNTS 59 62 0 0 0
M  V30 BEGIN ATOM
M  V30 1 C 2.542562 -2.328596 1.962141 0
M  V30 2 O 1.779085 -1.379622 1.209174 0
M  V30 3 C 0.439500 -1.266199 1.520919 0
M  V30 4 C 0.340569 -0.371311 2.540162 0
M  V30 5 N 1.338543 0.393077 3.237061 0
M  V30 6 C 1.605524 1.690837 2.644196 0
M  V30 7 C 2.166831 1.628942 1.261783 0
M  V30 8 N 2.380796 3.011215 0.796542 0
M  V30 9 C 1.195834 3.781177 0.655883 0
M  V30 10 C 0.772399 3.754773 -0.671979 0
M  V30 11 C -0.363680 4.415616 -1.112241 0
M  V30 12 C -1.136300 5.147979 -0.202841 0
M  V30 13 C -0.674146 5.143696 1.103882 0
M  V30 14 N 0.436220 4.492108 1.507186 0
M  V30 15 C -0.907907 -0.043868 3.093698 0
M  V30 16 F -1.186673 0.819494 4.107569 0
M  V30 17 C -2.021150 -0.684199 2.540874 0
M  V30 18 N -3.348054 -0.422254 3.039980 0
M  V30 19 C -1.858480 -1.579955 1.509119 0
M  V30 20 C -2.978237 -2.194559 0.996276 0
M  V30 21 O -4.094134 -1.934069 1.460135 0
M  V30 22 C -2.767321 -3.100372 -0.046941 0
M  V30 23 C -3.979854 -3.722461 -0.550424 0
M  V30 24 O -5.092839 -3.465298 -0.087985 0
M  V30 25 O -4.025779 -4.649073 -1.576745 0
M  V30 26 C -1.495249 -3.343429 -0.517147 0
M  V30 27 N -0.363185 -2.744916 -0.026787 0
M  V30 28 C 0.862275 -3.072134 -0.659808 0
M  V30 29 C 0.551102 -2.861008 -2.184288 0
M  V30 30 C 1.834209 -3.500365 -2.725435 0
M  V30 31 C 1.648577 -4.877923 -2.109744 0
M  V30 32 C 1.230368 -4.523168 -0.687838 0
M  V30 33 C -0.647634 -1.896198 0.970890 0
M  V30 34 H 2.836616 -1.840141 2.903688 0
M  V30 35 H 1.905906 -3.216628 2.191390 0
M  V30 36 H 3.431772 -2.653398 1.422012 0
M  V30 37 H 1.852164 0.062824 4.109942 0
M  V30 38 H 0.637361 2.238205 2.658014 0
M  V30 39 H 2.341092 2.212441 3.276720 0
M  V30 40 H 1.372216 1.251303 0.582714 0
M  V30 41 H 3.095471 1.043013 1.253176 0
M  V30 42 H 3.311915 3.412494 0.579901 0
M  V30 43 H 1.249427 3.239523 -1.508165 0
M  V30 44 H -0.730600 4.424147 -2.129471 0
M  V30 45 H -2.018884 5.663874 -0.532385 0
M  V30 46 H -1.205404 5.674347 1.856592 0
M  V30 47 H -3.833079 0.384765 2.544703 0
M  V30 48 H -3.760444 -0.993433 3.818269 0
M  V30 49 H -4.715024 -5.348111 -1.718942 0
M  V30 50 H -1.567280 -4.084202 -1.301890 0
M  V30 51 H 1.698533 -2.385641 -0.626942 0
M  V30 52 H -0.283620 -3.421950 -2.528508 0
M  V30 53 H 0.471234 -1.802496 -2.418163 0
M  V30 54 H 2.673168 -2.935264 -2.289565 0
M  V30 55 H 1.855471 -3.524012 -3.820373 0
M  V30 56 H 0.820838 -5.364577 -2.654096 0
M  V30 57 H 2.589746 -5.451113 -2.158211 0
M  V30 58 H 2.106329 -4.774198 -0.056906 0
M  V30 59 H 0.350170 -5.144647 -0.441224 0
M  V30 END ATOM
M  V30 BEGIN BOND
M  V30 1 1 1 2
M  V30 2 1 2 3
M  V30 3 2 3 4
M  V30 4 1 4 5
M  V30 5 1 5 6
M  V30 6 1 6 7
M  V30 7 1 7 8
M  V30 8 1 8 9
M  V30 9 2 9 10
M  V30 10 1 10 11
M  V30 11 2 11 12
M  V30 12 1 12 13
M  V30 13 2 13 14
M  V30 14 1 4 15
M  V30 15 1 15 16
M  V30 16 2 15 17
M  V30 17 1 17 18
M  V30 18 1 17 19
M  V30 19 1 19 20
M  V30 20 2 20 21
M  V30 21 1 20 22
M  V30 22 1 22 23
M  V30 23 2 23 24
M  V30 24 1 23 25
M  V30 25 2 22 26
M  V30 26 1 26 27
M  V30 27 1 27 28
M  V30 28 1 28 29
M  V30 29 1 29 30
M  V30 30 1 30 31
M  V30 31 1 31 32
M  V30 32 1 27 33
M  V30 33 1 33 3
M  V30 34 1 14 9
M  V30 35 2 33 19
M  V30 36 1 32 28
M  V30 37 1 1 34
M  V30 38 1 1 35
M  V30 39 1 1 36
M  V30 40 1 5 37
M  V30 41 1 6 38
M  V30 42 1 6 39
M  V30 43 1 7 40
M  V30 44 1 7 41
M  V30 45 1 8 42
M  V30 46 1 10 43
M  V30 47 1 11 44
M  V30 48 1 12 45
M  V30 49 1 13 46
M  V30 50 1 18 47
M  V30 51 1 18 48
M  V30 52 1 25 49
M  V30 53 1 26 50
M  V30 54 1 28 51
M  V30 55 1 29 52
M  V30 56 1 29 53
M  V30 57 1 30 54
M  V30 58 1 30 55
M  V30 59 1 31 56
M  V30 60 1 31 57
M  V30 61 1 32 58
M  V30 62 1 32 59
M  V30 END BOND
M  V30 END CTAB
M  END
>  <Dataset>  (514) 
ChEMBL_Kinases

>  <Ligand_Instance>  (514) 
nan

>  <PDB_ID>  (514) 
nan

>  <Standardized_SMILES>  (514) 
COc1c(NCCNc2ccccn2)c(F)c(N)c2c(=O)c(C(=O)O)cn(C3CCCC3)c12

>  <Name>  (514) 
nan

>  <Pocket>  (514) 
nan

>  <ATP_Site>  (514) 
nan

>  <Peripheral>  (514) 
nan

>  <Num_H_Atoms_ProtBoundConf>  (514) 
nan

>  <Num_Resolved_Atoms>  (514) 
nan

>  <Num_Not_Resolved_Atoms>  (514) 
nan

$$$$
CHEMBL1834316
     RDKit          3D

  0  0  0  0  0  0  0  0  0  0999 V3000
M  V30 BEGIN CTAB
M  V30 COUNTS 53 56 0 0 0
M  V30 BEGIN ATOM
M  V30 1 C -0.173633 -1.036075 -1.648589 0
M  V30 2 O 0.075409 -1.933549 -0.550446 0
M  V30 3 C -0.715058 -1.697419 0.563194 0
M  V30 4 C -0.152484 -0.724581 1.375096 0
M  V30 5 N 1.079095 -0.044111 1.119748 0
M  V30 6 C 2.461542 -0.238255 1.425846 0
M  V30 7 C 3.349940 0.850682 0.871634 0
M  V30 8 N 3.030801 2.159143 1.367896 0
M  V30 9 C 3.860954 3.195515 0.853243 0
M  V30 10 C 4.887375 2.960681 -0.048227 0
M  V30 11 C 5.695358 3.953580 -0.551898 0
M  V30 12 C 5.508554 5.245498 -0.169394 0
M  V30 13 C 4.475636 5.491458 0.739468 0
M  V30 14 N 3.713108 4.488694 1.203312 0
M  V30 15 C -0.777867 -0.333098 2.538554 0
M  V30 16 F -0.287012 0.606240 3.373633 0
M  V30 17 C -1.972360 -0.942349 2.857720 0
M  V30 18 N -2.644369 -0.559832 4.052288 0
M  V30 19 C -2.494786 -1.904575 2.023608 0
M  V30 20 C -3.673715 -2.471268 2.411811 0
M  V30 21 O -4.249599 -2.117726 3.470577 0
M  V30 22 C -4.214048 -3.446858 1.602704 0
M  V30 23 C -5.469978 -4.055707 2.008297 0
M  V30 24 O -6.007676 -3.667983 3.075606 0
M  V30 25 O -6.039475 -5.054379 1.196273 0
M  V30 26 C -3.529883 -3.786996 0.455819 0
M  V30 27 N -2.368555 -3.268628 0.017773 0
M  V30 28 C -1.692078 -3.692404 -1.183009 0
M  V30 29 C -2.160028 -3.435661 -2.542360 0
M  V30 30 C -2.365224 -4.785020 -1.982005 0
M  V30 31 C -1.903352 -2.325760 0.853178 0
M  V30 32 H -1.223913 -0.710308 -1.697763 0
M  V30 33 H 0.045073 -1.552013 -2.622169 0
M  V30 34 H 0.463980 -0.144093 -1.614278 0
M  V30 35 H 0.835918 0.800575 0.564398 0
M  V30 36 H 2.627642 -0.405681 2.512349 0
M  V30 37 H 2.804502 -1.174236 0.921668 0
M  V30 38 H 3.255302 0.788774 -0.239135 0
M  V30 39 H 4.373988 0.613378 1.222302 0
M  V30 40 H 2.295184 2.432303 2.032248 0
M  V30 41 H 5.070840 1.947989 -0.379100 0
M  V30 42 H 6.494330 3.725778 -1.261484 0
M  V30 43 H 6.094036 6.098588 -0.511003 0
M  V30 44 H 4.299866 6.523583 1.067295 0
M  V30 45 H -3.201993 0.230727 4.451106 0
M  V30 46 H -2.763923 -1.052279 4.966601 0
M  V30 47 H -7.040438 -5.179571 1.250814 0
M  V30 48 H -4.051214 -4.561014 -0.087912 0
M  V30 49 H -0.606345 -3.972360 -1.002429 0
M  V30 50 H -1.335222 -3.392642 -3.314060 0
M  V30 51 H -2.963699 -2.735599 -2.785904 0
M  V30 52 H -1.738822 -5.648742 -2.354037 0
M  V30 53 H -3.395616 -5.076398 -1.833256 0
M  V30 END ATOM
M  V30 BEGIN BOND
M  V30 1 1 1 2
M  V30 2 1 2 3
M  V30 3 2 3 4
M  V30 4 1 4 5
M  V30 5 1 5 6
M  V30 6 1 6 7
M  V30 7 1 7 8
M  V30 8 1 8 9
M  V30 9 2 9 10
M  V30 10 1 10 11
M  V30 11 2 11 12
M  V30 12 1 12 13
M  V30 13 2 13 14
M  V30 14 1 4 15
M  V30 15 1 15 16
M  V30 16 2 15 17
M  V30 17 1 17 18
M  V30 18 1 17 19
M  V30 19 1 19 20
M  V30 20 2 20 21
M  V30 21 1 20 22
M  V30 22 1 22 23
M  V30 23 2 23 24
M  V30 24 1 23 25
M  V30 25 2 22 26
M  V30 26 1 26 27
M  V30 27 1 27 28
M  V30 28 1 28 29
M  V30 29 1 29 30
M  V30 30 1 27 31
M  V30 31 1 31 3
M  V30 32 1 14 9
M  V30 33 2 31 19
M  V30 34 1 30 28
M  V30 35 1 1 32
M  V30 36 1 1 33
M  V30 37 1 1 34
M  V30 38 1 5 35
M  V30 39 1 6 36
M  V30 40 1 6 37
M  V30 41 1 7 38
M  V30 42 1 7 39
M  V30 43 1 8 40
M  V30 44 1 10 41
M  V30 45 1 11 42
M  V30 46 1 12 43
M  V30 47 1 13 44
M  V30 48 1 18 45
M  V30 49 1 18 46
M  V30 50 1 25 47
M  V30 51 1 26 48
M  V30 52 1 28 49
M  V30 53 1 29 50
M  V30 54 1 29 51
M  V30 55 1 30 52
M  V30 56 1 30 53
M  V30 END BOND
M  V30 END CTAB
M  END
>  <Dataset>  (515) 
ChEMBL_Kinases

>  <Ligand_Instance>  (515) 
nan

>  <PDB_ID>  (515) 
nan

>  <Standardized_SMILES>  (515) 
COc1c(NCCNc2ccccn2)c(F)c(N)c2c(=O)c(C(=O)O)cn(C3CC3)c12

>  <Name>  (515) 
nan

>  <Pocket>  (515) 
nan

>  <ATP_Site>  (515) 
nan

>  <Peripheral>  (515) 
nan

>  <Num_H_Atoms_ProtBoundConf>  (515) 
nan

>  <Num_Resolved_Atoms>  (515) 
nan

>  <Num_Not_Resolved_Atoms>  (515) 
nan

$$$$
CHEMBL1834315
     RDKit          3D

  0  0  0  0  0  0  0  0  0  0999 V3000
M  V30 BEGIN CTAB
M  V30 COUNTS 49 52 0 0 0
M  V30 BEGIN ATOM
M  V30 1 N 1.290901 -3.012199 3.593119 0
M  V30 2 C 0.950118 -2.506024 2.323246 0
M  V30 3 C 1.953057 -2.350123 1.352851 0
M  V30 4 F 3.187218 -2.698858 1.675758 0
M  V30 5 C 1.537839 -1.822619 0.109800 0
M  V30 6 N 2.603077 -1.679577 -0.855141 0
M  V30 7 C 2.437481 -1.062602 -2.194472 0
M  V30 8 C 2.949617 0.378749 -2.108407 0
M  V30 9 N 2.386382 1.184799 -1.081389 0
M  V30 10 C 1.839924 2.030308 -0.054278 0
M  V30 11 C 0.674675 2.692390 0.183624 0
M  V30 12 C 0.681890 3.374635 1.356720 0
M  V30 13 C 1.707567 3.434588 2.252842 0
M  V30 14 C 2.868439 2.753419 1.975498 0
M  V30 15 N 2.899479 2.071118 0.823688 0
M  V30 16 C 0.207997 -1.507153 -0.078380 0
M  V30 17 C -0.770615 -1.664399 0.872399 0
M  V30 18 C -0.389840 -2.170058 2.089508 0
M  V30 19 C -1.344708 -2.332319 3.058849 0
M  V30 20 O -1.017345 -2.790093 4.175254 0
M  V30 21 C -2.621023 -1.973319 2.729303 0
M  V30 22 C -3.676912 -2.063999 3.739785 0
M  V30 23 O -4.910536 -1.812782 3.625913 0
M  V30 24 O -3.651058 -2.427800 5.071363 0
M  V30 25 C -3.057092 -1.467476 1.518481 0
M  V30 26 N -2.068681 -1.326365 0.594295 0
M  V30 27 C -2.310737 -0.843917 -0.762233 0
M  V30 28 C -3.623454 -1.411730 -1.374936 0
M  V30 29 C -2.269515 -1.874228 -1.855513 0
M  V30 30 H 0.958099 -4.008064 3.775363 0
M  V30 31 H 1.824461 -2.289644 4.124337 0
M  V30 32 H 3.566639 -2.027929 -0.656842 0
M  V30 33 H 1.378643 -1.063593 -2.419920 0
M  V30 34 H 3.057958 -1.561704 -2.922709 0
M  V30 35 H 4.070101 0.371636 -2.031784 0
M  V30 36 H 2.695477 0.822295 -3.109481 0
M  V30 37 H 1.783639 0.414769 -0.777934 0
M  V30 38 H 0.000127 2.528668 -0.619836 0
M  V30 39 H -0.269681 3.889623 1.523119 0
M  V30 40 H 1.637284 3.974894 3.148886 0
M  V30 41 H 3.649379 2.825013 2.744324 0
M  V30 42 H -0.067799 -1.108649 -1.047956 0
M  V30 43 H -3.765520 -1.706280 5.820224 0
M  V30 44 H -4.070931 -1.183307 1.266579 0
M  V30 45 H -2.012546 0.177337 -1.024953 0
M  V30 46 H -4.192785 -0.726499 -2.046669 0
M  V30 47 H -4.208447 -2.127711 -0.777066 0
M  V30 48 H -1.973134 -1.528928 -2.858839 0
M  V30 49 H -1.932204 -2.901746 -1.620791 0
M  V30 END ATOM
M  V30 BEGIN BOND
M  V30 1 1 1 2
M  V30 2 2 2 3
M  V30 3 1 3 4
M  V30 4 1 3 5
M  V30 5 1 5 6
M  V30 6 1 6 7
M  V30 7 1 7 8
M  V30 8 1 8 9
M  V30 9 1 9 10
M  V30 10 2 10 11
M  V30 11 1 11 12
M  V30 12 2 12 13
M  V30 13 1 13 14
M  V30 14 2 14 15
M  V30 15 2 5 16
M  V30 16 1 16 17
M  V30 17 2 17 18
M  V30 18 1 18 19
M  V30 19 2 19 20
M  V30 20 1 19 21
M  V30 21 1 21 22
M  V30 22 2 22 23
M  V30 23 1 22 24
M  V30 24 2 21 25
M  V30 25 1 25 26
M  V30 26 1 26 27
M  V30 27 1 27 28
M  V30 28 1 28 29
M  V30 29 1 18 2
M  V30 30 1 29 27
M  V30 31 1 15 10
M  V30 32 1 26 17
M  V30 33 1 1 30
M  V30 34 1 1 31
M  V30 35 1 6 32
M  V30 36 1 7 33
M  V30 37 1 7 34
M  V30 38 1 8 35
M  V30 39 1 8 36
M  V30 40 1 9 37
M  V30 41 1 11 38
M  V30 42 1 12 39
M  V30 43 1 13 40
M  V30 44 1 14 41
M  V30 45 1 16 42
M  V30 46 1 24 43
M  V30 47 1 25 44
M  V30 48 1 27 45
M  V30 49 1 28 46
M  V30 50 1 28 47
M  V30 51 1 29 48
M  V30 52 1 29 49
M  V30 END BOND
M  V30 END CTAB
M  END
>  <Dataset>  (516) 
ChEMBL_Kinases

>  <Ligand_Instance>  (516) 
nan

>  <PDB_ID>  (516) 
nan

>  <Standardized_SMILES>  (516) 
Nc1c(F)c(NCCNc2ccccn2)cc2c1c(=O)c(C(=O)O)cn2C1CC1

>  <Name>  (516) 
nan

>  <Pocket>  (516) 
nan

>  <ATP_Site>  (516) 
nan

>  <Peripheral>  (516) 
nan

>  <Num_H_Atoms_ProtBoundConf>  (516) 
nan

>  <Num_Resolved_Atoms>  (516) 
nan

>  <Num_Not_Resolved_Atoms>  (516) 
nan

$$$$
CHEMBL1834125
     RDKit          3D

  0  0  0  0  0  0  0  0  0  0999 V3000
M  V30 BEGIN CTAB
M  V30 COUNTS 60 64 0 0 0
M  V30 BEGIN ATOM
M  V30 1 C 3.255995 -2.365111 0.475330 0
M  V30 2 O 2.222447 -2.322183 -0.517217 0
M  V30 3 C 0.919947 -2.425301 -0.057198 0
M  V30 4 C 0.360048 -1.209309 0.272388 0
M  V30 5 N 0.959930 0.085226 0.190046 0
M  V30 6 C 0.931451 0.988587 -0.949259 0
M  V30 7 C 1.662071 2.262566 -0.690648 0
M  V30 8 N 1.034658 2.926892 0.436923 0
M  V30 9 C -0.234629 3.552258 0.441570 0
M  V30 10 C -1.034717 3.644358 -0.667843 0
M  V30 11 C -2.265758 4.266223 -0.692125 0
M  V30 12 C -2.755718 4.845734 0.459588 0
M  V30 13 C -1.971622 4.768685 1.591117 0
M  V30 14 C -2.471804 5.351659 2.736723 0
M  V30 15 C -1.778324 5.337722 3.928245 0
M  V30 16 C -0.546014 4.708615 3.930644 0
M  V30 17 C -0.082549 4.140257 2.770493 0
M  V30 18 C -0.748504 4.136831 1.567314 0
M  V30 19 C -0.951225 -1.151708 0.753396 0
M  V30 20 F -1.609625 -0.019908 1.109976 0
M  V30 21 C -1.671169 -2.341442 0.890068 0
M  V30 22 N -3.018586 -2.355095 1.377139 0
M  V30 23 C -1.125242 -3.565030 0.564265 0
M  V30 24 C -1.825797 -4.741621 0.690676 0
M  V30 25 O -3.005528 -4.684350 1.125004 0
M  V30 26 C -1.201665 -5.911331 0.337127 0
M  V30 27 C -1.942232 -7.158829 0.470592 0
M  V30 28 O -3.115449 -7.106632 0.902199 0
M  V30 29 O -1.420403 -8.396476 0.146807 0
M  V30 30 C 0.092384 -5.845624 -0.125539 0
M  V30 31 N 0.798307 -4.699566 -0.257143 0
M  V30 32 C 2.149161 -4.873083 -0.777471 0
M  V30 33 C 2.188185 -5.893279 -1.963341 0
M  V30 34 C 2.419156 -4.462633 -2.164768 0
M  V30 35 C 0.168277 -3.566638 0.095317 0
M  V30 36 H 3.513018 -1.350571 0.850755 0
M  V30 37 H 2.947434 -2.956556 1.357485 0
M  V30 38 H 4.177385 -2.801121 0.059123 0
M  V30 39 H 1.447470 0.339489 1.068483 0
M  V30 40 H -0.097535 1.049620 -1.271432 0
M  V30 41 H 1.485767 0.486614 -1.796448 0
M  V30 42 H 1.631511 2.927981 -1.599818 0
M  V30 43 H 2.718636 2.025506 -0.551430 0
M  V30 44 H 1.648317 2.885980 1.264567 0
M  V30 45 H -0.759470 3.247639 -1.613501 0
M  V30 46 H -2.895042 4.337784 -1.566209 0
M  V30 47 H -3.712779 5.341697 0.484400 0
M  V30 48 H -3.435735 5.841700 2.727681 0
M  V30 49 H -2.192161 5.798011 4.798912 0
M  V30 50 H -0.014807 4.704900 4.867765 0
M  V30 51 H 0.883659 3.677899 2.882034 0
M  V30 52 H -3.654652 -2.067907 0.603658 0
M  V30 53 H -2.955677 -2.653452 2.376131 0
M  V30 54 H -1.992888 -9.164088 -0.204784 0
M  V30 55 H 0.500481 -6.836475 -0.380931 0
M  V30 56 H 2.943917 -5.142374 -0.042905 0
M  V30 57 H 3.062431 -6.543749 -2.055112 0
M  V30 58 H 1.234805 -6.389424 -2.227333 0
M  V30 59 H 1.639479 -3.901007 -2.691170 0
M  V30 60 H 3.447653 -4.123525 -2.475449 0
M  V30 END ATOM
M  V30 BEGIN BOND
M  V30 1 1 1 2
M  V30 2 1 2 3
M  V30 3 2 3 4
M  V30 4 1 4 5
M  V30 5 1 5 6
M  V30 6 1 6 7
M  V30 7 1 7 8
M  V30 8 1 8 9
M  V30 9 2 9 10
M  V30 10 1 10 11
M  V30 11 2 11 12
M  V30 12 1 12 13
M  V30 13 2 13 14
M  V30 14 1 14 15
M  V30 15 2 15 16
M  V30 16 1 16 17
M  V30 17 2 17 18
M  V30 18 1 4 19
M  V30 19 1 19 20
M  V30 20 2 19 21
M  V30 21 1 21 22
M  V30 22 1 21 23
M  V30 23 1 23 24
M  V30 24 2 24 25
M  V30 25 1 24 26
M  V30 26 1 26 27
M  V30 27 2 27 28
M  V30 28 1 27 29
M  V30 29 2 26 30
M  V30 30 1 30 31
M  V30 31 1 31 32
M  V30 32 1 32 33
M  V30 33 1 33 34
M  V30 34 1 31 35
M  V30 35 1 35 3
M  V30 36 1 18 9
M  V30 37 2 35 23
M  V30 38 1 18 13
M  V30 39 1 34 32
M  V30 40 1 1 36
M  V30 41 1 1 37
M  V30 42 1 1 38
M  V30 43 1 5 39
M  V30 44 1 6 40
M  V30 45 1 6 41
M  V30 46 1 7 42
M  V30 47 1 7 43
M  V30 48 1 8 44
M  V30 49 1 10 45
M  V30 50 1 11 46
M  V30 51 1 12 47
M  V30 52 1 14 48
M  V30 53 1 15 49
M  V30 54 1 16 50
M  V30 55 1 17 51
M  V30 56 1 22 52
M  V30 57 1 22 53
M  V30 58 1 29 54
M  V30 59 1 30 55
M  V30 60 1 32 56
M  V30 61 1 33 57
M  V30 62 1 33 58
M  V30 63 1 34 59
M  V30 64 1 34 60
M  V30 END BOND
M  V30 END CTAB
M  END
>  <Dataset>  (517) 
ChEMBL_Kinases

>  <Ligand_Instance>  (517) 
nan

>  <PDB_ID>  (517) 
nan

>  <Standardized_SMILES>  (517) 
COc1c(NCCNc2cccc3ccccc23)c(F)c(N)c2c(=O)c(C(=O)O)cn(C3CC3)c12

>  <Name>  (517) 
nan

>  <Pocket>  (517) 
nan

>  <ATP_Site>  (517) 
nan

>  <Peripheral>  (517) 
nan

>  <Num_H_Atoms_ProtBoundConf>  (517) 
nan

>  <Num_Resolved_Atoms>  (517) 
nan

>  <Num_Not_Resolved_Atoms>  (517) 
nan

$$$$
CHEMBL1834123
     RDKit          3D

  0  0  0  0  0  0  0  0  0  0999 V3000
M  V30 BEGIN CTAB
M  V30 COUNTS 55 58 0 0 0
M  V30 BEGIN ATOM
M  V30 1 C 1.565298 -2.562110 2.655542 0
M  V30 2 O 1.366144 -1.675558 1.544788 0
M  V30 3 C 0.064411 -1.247482 1.368788 0
M  V30 4 C -0.319833 -0.094051 2.017478 0
M  V30 5 N 0.481845 0.773136 2.799231 0
M  V30 6 C 1.805646 0.960570 3.220128 0
M  V30 7 C 2.837796 1.235577 2.159397 0
M  V30 8 C 2.611232 2.474574 1.345888 0
M  V30 9 C 1.373224 2.521925 0.569765 0
M  V30 10 C 1.440907 1.942219 -0.705863 0
M  V30 11 C 0.402741 1.895883 -1.610904 0
M  V30 12 C -0.804659 2.454310 -1.261066 0
M  V30 13 C -0.913222 3.027359 -0.031821 0
M  V30 14 C 0.132241 3.061363 0.850872 0
M  V30 15 C -1.657090 0.286694 1.815138 0
M  V30 16 F -2.215471 1.411504 2.391825 0
M  V30 17 C -2.549390 -0.407935 1.034401 0
M  V30 18 N -3.894853 0.001194 0.849130 0
M  V30 19 C -2.067986 -1.542217 0.427468 0
M  V30 20 C -2.933405 -2.246631 -0.369324 0
M  V30 21 O -4.134347 -1.850875 -0.513490 0
M  V30 22 C -2.579519 -3.376016 -1.035960 0
M  V30 23 C -3.479264 -4.137498 -1.884007 0
M  V30 24 O -3.211163 -5.182340 -2.521508 0
M  V30 25 O -4.794595 -3.685575 -2.028203 0
M  V30 26 C -1.270608 -3.773862 -0.856159 0
M  V30 27 N -0.416686 -3.065546 -0.060317 0
M  V30 28 C 0.920963 -3.634054 -0.032021 0
M  V30 29 C 2.006404 -2.893992 -0.740912 0
M  V30 30 C 1.432608 -4.069827 -1.442111 0
M  V30 31 C -0.782380 -1.956299 0.590492 0
M  V30 32 H 0.638657 -3.191812 2.791496 0
M  V30 33 H 1.728696 -2.075971 3.605041 0
M  V30 34 H 2.383154 -3.296716 2.442047 0
M  V30 35 H -0.074589 1.554687 3.253862 0
M  V30 36 H 2.161193 0.165989 3.928177 0
M  V30 37 H 1.870149 1.887775 3.887661 0
M  V30 38 H 3.799900 1.408081 2.759696 0
M  V30 39 H 3.024641 0.376871 1.494037 0
M  V30 40 H 2.629784 3.391575 2.000409 0
M  V30 41 H 3.481249 2.575058 0.627225 0
M  V30 42 H 2.351201 1.479582 -1.064914 0
M  V30 43 H 0.494911 1.442093 -2.579296 0
M  V30 44 H -1.690733 2.484031 -1.875087 0
M  V30 45 H -1.821803 3.492667 0.334743 0
M  V30 46 H 0.103048 3.506373 1.848273 0
M  V30 47 H -3.999286 0.988713 0.484089 0
M  V30 48 H -3.973813 0.993634 0.482949 0
M  V30 49 H -5.347374 -3.890744 -2.852070 0
M  V30 50 H -0.968227 -4.684335 -1.388337 0
M  V30 51 H 1.119727 -4.472715 0.668788 0
M  V30 52 H 1.766564 -1.917309 -1.164493 0
M  V30 53 H 3.043844 -2.935738 -0.340409 0
M  V30 54 H 0.714752 -3.936285 -2.263412 0
M  V30 55 H 2.092448 -4.930882 -1.519887 0
M  V30 END ATOM
M  V30 BEGIN BOND
M  V30 1 1 1 2
M  V30 2 1 2 3
M  V30 3 2 3 4
M  V30 4 1 4 5
M  V30 5 1 5 6
M  V30 6 1 6 7
M  V30 7 1 7 8
M  V30 8 1 8 9
M  V30 9 2 9 10
M  V30 10 1 10 11
M  V30 11 2 11 12
M  V30 12 1 12 13
M  V30 13 2 13 14
M  V30 14 1 4 15
M  V30 15 1 15 16
M  V30 16 2 15 17
M  V30 17 1 17 18
M  V30 18 1 17 19
M  V30 19 1 19 20
M  V30 20 2 20 21
M  V30 21 1 20 22
M  V30 22 1 22 23
M  V30 23 2 23 24
M  V30 24 1 23 25
M  V30 25 2 22 26
M  V30 26 1 26 27
M  V30 27 1 27 28
M  V30 28 1 28 29
M  V30 29 1 29 30
M  V30 30 1 27 31
M  V30 31 1 31 3
M  V30 32 1 14 9
M  V30 33 2 31 19
M  V30 34 1 30 28
M  V30 35 1 1 32
M  V30 36 1 1 33
M  V30 37 1 1 34
M  V30 38 1 5 35
M  V30 39 1 6 36
M  V30 40 1 6 37
M  V30 41 1 7 38
M  V30 42 1 7 39
M  V30 43 1 8 40
M  V30 44 1 8 41
M  V30 45 1 10 42
M  V30 46 1 11 43
M  V30 47 1 12 44
M  V30 48 1 13 45
M  V30 49 1 14 46
M  V30 50 1 18 47
M  V30 51 1 18 48
M  V30 52 1 25 49
M  V30 53 1 26 50
M  V30 54 1 28 51
M  V30 55 1 29 52
M  V30 56 1 29 53
M  V30 57 1 30 54
M  V30 58 1 30 55
M  V30 END BOND
M  V30 END CTAB
M  END
>  <Dataset>  (518) 
ChEMBL_Kinases

>  <Ligand_Instance>  (518) 
nan

>  <PDB_ID>  (518) 
nan

>  <Standardized_SMILES>  (518) 
COc1c(NCCCc2ccccc2)c(F)c(N)c2c(=O)c(C(=O)O)cn(C3CC3)c12

>  <Name>  (518) 
nan

>  <Pocket>  (518) 
nan

>  <ATP_Site>  (518) 
nan

>  <Peripheral>  (518) 
nan

>  <Num_H_Atoms_ProtBoundConf>  (518) 
nan

>  <Num_Resolved_Atoms>  (518) 
nan

>  <Num_Not_Resolved_Atoms>  (518) 
nan

$$$$
CHEMBL1834121
     RDKit          3D

  0  0  0  0  0  0  0  0  0  0999 V3000
M  V30 BEGIN CTAB
M  V30 COUNTS 51 53 0 0 0
M  V30 BEGIN ATOM
M  V30 1 C 0.179344 -0.347958 3.166566 0
M  V30 2 C 1.465096 0.350924 3.625248 0
M  V30 3 C 1.178655 1.836107 3.689327 0
M  V30 4 O 2.396041 0.154565 2.610613 0
M  V30 5 C 3.509031 -0.520368 2.996972 0
M  V30 6 C 4.454565 -0.685473 1.842135 0
M  V30 7 C 3.873155 -1.449810 0.699784 0
M  V30 8 N 2.756836 -0.914247 0.027254 0
M  V30 9 C 1.450086 -0.387989 -0.132058 0
M  V30 10 C 1.062569 0.950584 -0.108847 0
M  V30 11 F 2.073040 1.831669 0.052352 0
M  V30 12 C -0.259377 1.294847 -0.243797 0
M  V30 13 N -0.622136 2.653327 -0.216303 0
M  V30 14 C -1.133979 0.253795 -0.397840 0
M  V30 15 C -2.464692 0.624606 -0.531549 0
M  V30 16 O -2.829851 1.832857 -0.511644 0
M  V30 17 C -3.462937 -0.310416 -0.693896 0
M  V30 18 C -4.876966 0.037778 -0.838329 0
M  V30 19 O -5.792682 -0.809743 -0.986752 0
M  V30 20 O -5.272012 1.368412 -0.815589 0
M  V30 21 C -3.131345 -1.651692 -0.724445 0
M  V30 22 N -1.825412 -2.030257 -0.593942 0
M  V30 23 C -1.411055 -3.397867 -0.616412 0
M  V30 24 C -0.993728 -4.126774 -1.828245 0
M  V30 25 C -2.388387 -4.321901 -1.358249 0
M  V30 26 C -0.892336 -1.085441 -0.438541 0
M  V30 27 C 0.472122 -1.382836 -0.296250 0
M  V30 28 F 0.789297 -2.723467 -0.328681 0
M  V30 29 H -0.481238 -0.575341 4.022899 0
M  V30 30 H 0.421934 -1.301934 2.636415 0
M  V30 31 H -0.404291 0.268975 2.464721 0
M  V30 32 H 1.787128 -0.079182 4.591118 0
M  V30 33 H 2.144094 2.392846 3.547150 0
M  V30 34 H 0.545637 2.077067 2.798851 0
M  V30 35 H 0.673665 2.148462 4.620901 0
M  V30 36 H 3.257532 -1.575704 3.327102 0
M  V30 37 H 4.017319 -0.058560 3.883667 0
M  V30 38 H 4.718764 0.343565 1.470267 0
M  V30 39 H 5.399742 -1.142984 2.217369 0
M  V30 40 H 4.719406 -1.589024 -0.028438 0
M  V30 41 H 3.657325 -2.525144 1.008015 0
M  V30 42 H 2.922677 -0.797329 -1.027213 0
M  V30 43 H -0.966505 3.327538 0.486757 0
M  V30 44 H -0.508639 3.090559 -1.173443 0
M  V30 45 H -6.008804 1.732160 -1.437255 0
M  V30 46 H -3.897503 -2.403659 -0.850831 0
M  V30 47 H -1.116508 -3.776043 0.397665 0
M  V30 48 H -0.304546 -4.982103 -1.660841 0
M  V30 49 H -0.789219 -3.587432 -2.765219 0
M  V30 50 H -2.691822 -5.250690 -0.837828 0
M  V30 51 H -3.151386 -3.905979 -2.016053 0
M  V30 END ATOM
M  V30 BEGIN BOND
M  V30 1 1 1 2
M  V30 2 1 2 3
M  V30 3 1 2 4
M  V30 4 1 4 5
M  V30 5 1 5 6
M  V30 6 1 6 7
M  V30 7 1 7 8
M  V30 8 1 8 9
M  V30 9 2 9 10
M  V30 10 1 10 11
M  V30 11 1 10 12
M  V30 12 1 12 13
M  V30 13 2 12 14
M  V30 14 1 14 15
M  V30 15 2 15 16
M  V30 16 1 15 17
M  V30 17 1 17 18
M  V30 18 2 18 19
M  V30 19 1 18 20
M  V30 20 2 17 21
M  V30 21 1 21 22
M  V30 22 1 22 23
M  V30 23 1 23 24
M  V30 24 1 24 25
M  V30 25 1 22 26
M  V30 26 2 26 27
M  V30 27 1 27 28
M  V30 28 1 27 9
M  V30 29 1 26 14
M  V30 30 1 25 23
M  V30 31 1 1 29
M  V30 32 1 1 30
M  V30 33 1 1 31
M  V30 34 1 2 32
M  V30 35 1 3 33
M  V30 36 1 3 34
M  V30 37 1 3 35
M  V30 38 1 5 36
M  V30 39 1 5 37
M  V30 40 1 6 38
M  V30 41 1 6 39
M  V30 42 1 7 40
M  V30 43 1 7 41
M  V30 44 1 8 42
M  V30 45 1 13 43
M  V30 46 1 13 44
M  V30 47 1 20 45
M  V30 48 1 21 46
M  V30 49 1 23 47
M  V30 50 1 24 48
M  V30 51 1 24 49
M  V30 52 1 25 50
M  V30 53 1 25 51
M  V30 END BOND
M  V30 END CTAB
M  END
>  <Dataset>  (519) 
ChEMBL_Kinases

>  <Ligand_Instance>  (519) 
nan

>  <PDB_ID>  (519) 
nan

>  <Standardized_SMILES>  (519) 
CC(C)OCCCNc1c(F)c(N)c2c(=O)c(C(=O)O)cn(C3CC3)c2c1F

>  <Name>  (519) 
nan

>  <Pocket>  (519) 
nan

>  <ATP_Site>  (519) 
nan

>  <Peripheral>  (519) 
nan

>  <Num_H_Atoms_ProtBoundConf>  (519) 
nan

>  <Num_Resolved_Atoms>  (519) 
nan

>  <Num_Not_Resolved_Atoms>  (519) 
nan

$$$$
CHEMBL1834120
     RDKit          3D

  0  0  0  0  0  0  0  0  0  0999 V3000
M  V30 BEGIN CTAB
M  V30 COUNTS 49 52 0 0 0
M  V30 BEGIN ATOM
M  V30 1 N -0.726161 -3.223601 3.472020 0
M  V30 2 C -0.318705 -2.719596 2.224101 0
M  V30 3 C 1.030631 -2.550384 1.911449 0
M  V30 4 F 1.906343 -2.909360 2.899420 0
M  V30 5 C 1.478810 -2.061636 0.705923 0
M  V30 6 N 2.839719 -1.902967 0.425203 0
M  V30 7 C 3.914595 -0.948814 0.518161 0
M  V30 8 C 4.170665 -0.521857 1.937403 0
M  V30 9 N 3.012108 0.090616 2.510823 0
M  V30 10 C 2.396232 1.266142 2.004864 0
M  V30 11 C 1.266811 1.825105 2.592523 0
M  V30 12 C 0.643277 2.963616 2.131366 0
M  V30 13 C 1.141581 3.611360 1.025489 0
M  V30 14 C 2.261103 3.050233 0.449645 0
M  V30 15 N 2.825472 1.948635 0.934384 0
M  V30 16 C 0.509522 -1.725932 -0.234277 0
M  V30 17 F 0.904448 -1.242959 -1.429956 0
M  V30 18 C -0.852751 -1.860278 -0.011612 0
M  V30 19 C -1.194430 -2.358962 1.228664 0
M  V30 20 C -2.542174 -2.516382 1.511017 0
M  V30 21 O -2.931194 -2.960608 2.608443 0
M  V30 22 C -3.512573 -2.187242 0.587116 0
M  V30 23 C -4.916654 -2.349762 0.877695 0
M  V30 24 O -5.804550 -2.041095 0.012694 0
M  V30 25 O -5.310626 -2.848080 2.113196 0
M  V30 26 C -3.080561 -1.695543 -0.627383 0
M  V30 27 N -1.767863 -1.527766 -0.939194 0
M  V30 28 C -1.309667 -1.012869 -2.209944 0
M  V30 29 C -1.045110 0.439350 -2.305138 0
M  V30 30 C -2.262705 -0.086108 -2.964540 0
M  V30 31 H -0.968116 -2.384236 4.042956 0
M  V30 32 H -0.950520 -2.335485 3.985018 0
M  V30 33 H 2.953402 -2.881750 0.025392 0
M  V30 34 H 4.803514 -1.442784 0.065000 0
M  V30 35 H 3.617886 -0.053381 -0.060418 0
M  V30 36 H 5.003534 0.230890 1.887904 0
M  V30 37 H 4.550592 -1.327772 2.572520 0
M  V30 38 H 2.577540 -0.337985 3.354862 0
M  V30 39 H 0.839942 1.343729 3.470335 0
M  V30 40 H -0.235268 3.376686 2.609131 0
M  V30 41 H 0.740590 4.502874 0.578092 0
M  V30 42 H 2.785856 3.408958 -0.408842 0
M  V30 43 H -6.282417 -2.858231 2.414651 0
M  V30 44 H -3.828634 -1.432298 -1.363779 0
M  V30 45 H -0.838594 -1.753977 -2.881172 0
M  V30 46 H -1.197822 1.036933 -1.386580 0
M  V30 47 H -0.207471 0.834760 -2.946523 0
M  V30 48 H -3.270103 0.098467 -2.591054 0
M  V30 49 H -2.226604 -0.076107 -4.081444 0
M  V30 END ATOM
M  V30 BEGIN BOND
M  V30 1 1 1 2
M  V30 2 2 2 3
M  V30 3 1 3 4
M  V30 4 1 3 5
M  V30 5 1 5 6
M  V30 6 1 6 7
M  V30 7 1 7 8
M  V30 8 1 8 9
M  V30 9 1 9 10
M  V30 10 2 10 11
M  V30 11 1 11 12
M  V30 12 2 12 13
M  V30 13 1 13 14
M  V30 14 2 14 15
M  V30 15 2 5 16
M  V30 16 1 16 17
M  V30 17 1 16 18
M  V30 18 2 18 19
M  V30 19 1 19 20
M  V30 20 2 20 21
M  V30 21 1 20 22
M  V30 22 1 22 23
M  V30 23 2 23 24
M  V30 24 1 23 25
M  V30 25 2 22 26
M  V30 26 1 26 27
M  V30 27 1 27 28
M  V30 28 1 28 29
M  V30 29 1 29 30
M  V30 30 1 19 2
M  V30 31 1 30 28
M  V30 32 1 15 10
M  V30 33 1 27 18
M  V30 34 1 1 31
M  V30 35 1 1 32
M  V30 36 1 6 33
M  V30 37 1 7 34
M  V30 38 1 7 35
M  V30 39 1 8 36
M  V30 40 1 8 37
M  V30 41 1 9 38
M  V30 42 1 11 39
M  V30 43 1 12 40
M  V30 44 1 13 41
M  V30 45 1 14 42
M  V30 46 1 25 43
M  V30 47 1 26 44
M  V30 48 1 28 45
M  V30 49 1 29 46
M  V30 50 1 29 47
M  V30 51 1 30 48
M  V30 52 1 30 49
M  V30 END BOND
M  V30 END CTAB
M  END
>  <Dataset>  (520) 
ChEMBL_Kinases

>  <Ligand_Instance>  (520) 
nan

>  <PDB_ID>  (520) 
nan

>  <Standardized_SMILES>  (520) 
Nc1c(F)c(NCCNc2ccccn2)c(F)c2c1c(=O)c(C(=O)O)cn2C1CC1

>  <Name>  (520) 
nan

>  <Pocket>  (520) 
nan

>  <ATP_Site>  (520) 
nan

>  <Peripheral>  (520) 
nan

>  <Num_H_Atoms_ProtBoundConf>  (520) 
nan

>  <Num_Resolved_Atoms>  (520) 
nan

>  <Num_Not_Resolved_Atoms>  (520) 
nan

$$$$
CHEMBL1834119
     RDKit          3D

  0  0  0  0  0  0  0  0  0  0999 V3000
M  V30 BEGIN CTAB
M  V30 COUNTS 47 50 0 0 0
M  V30 BEGIN ATOM
M  V30 1 N 2.116232 -4.450340 0.264024 0
M  V30 2 C 1.491443 -3.188443 0.558770 0
M  V30 3 C 2.260065 -2.069215 0.352235 0
M  V30 4 F 3.525301 -2.026727 -0.092900 0
M  V30 5 C 1.706161 -0.834570 0.620320 0
M  V30 6 N 2.324466 0.460211 0.477185 0
M  V30 7 C 2.077750 0.960857 -0.842553 0
M  V30 8 C 2.692676 2.322127 -1.084403 0
M  V30 9 C 2.118783 3.303203 -0.107751 0
M  V30 10 C 0.983366 3.980765 -0.484343 0
M  V30 11 C 0.394893 4.900003 0.358607 0
M  V30 12 N 0.959117 5.118253 1.559912 0
M  V30 13 C 2.067734 4.470077 1.952087 0
M  V30 14 C 2.692618 3.530895 1.124473 0
M  V30 15 C 0.396156 -0.704007 1.091401 0
M  V30 16 F -0.228916 0.447182 1.379797 0
M  V30 17 C -0.371862 -1.852036 1.296040 0
M  V30 18 C 0.196098 -3.080241 1.023355 0
M  V30 19 C -0.469024 -4.277449 1.188702 0
M  V30 20 O 0.003760 -5.409655 0.955299 0
M  V30 21 C -1.768431 -4.219999 1.651743 0
M  V30 22 C -2.588447 -5.407891 1.872410 0
M  V30 23 O -3.790637 -5.471322 2.294002 0
M  V30 24 O -2.096777 -6.682111 1.623988 0
M  V30 25 C -2.321179 -2.983317 1.919544 0
M  V30 26 N -1.655188 -1.802399 1.752938 0
M  V30 27 C -2.246770 -0.533371 2.036425 0
M  V30 28 C -2.923424 0.313568 1.033109 0
M  V30 29 C -3.775289 -0.534139 1.889897 0
M  V30 30 H 2.779180 -5.057228 0.830327 0
M  V30 31 H 1.801658 -4.746225 -0.705729 0
M  V30 32 H 2.798307 0.723603 1.353938 0
M  V30 33 H 2.412393 0.288830 -1.637501 0
M  V30 34 H 0.972850 1.086974 -0.945482 0
M  V30 35 H 2.432082 2.608907 -2.125654 0
M  V30 36 H 3.774174 2.302803 -0.924556 0
M  V30 37 H 0.529852 3.801961 -1.456131 0
M  V30 38 H -0.500699 5.405235 0.008167 0
M  V30 39 H 2.484475 4.676758 2.922483 0
M  V30 40 H 3.583095 2.999742 1.420252 0
M  V30 41 H -2.635886 -7.379838 1.087594 0
M  V30 42 H -3.356071 -2.949140 2.287650 0
M  V30 43 H -1.889796 -0.072538 2.996651 0
M  V30 44 H -2.946406 1.411338 1.282378 0
M  V30 45 H -2.767596 0.133583 -0.033950 0
M  V30 46 H -4.276996 -1.366826 1.387643 0
M  V30 47 H -4.375208 -0.092118 2.709202 0
M  V30 END ATOM
M  V30 BEGIN BOND
M  V30 1 1 1 2
M  V30 2 2 2 3
M  V30 3 1 3 4
M  V30 4 1 3 5
M  V30 5 1 5 6
M  V30 6 1 6 7
M  V30 7 1 7 8
M  V30 8 1 8 9
M  V30 9 2 9 10
M  V30 10 1 10 11
M  V30 11 2 11 12
M  V30 12 1 12 13
M  V30 13 2 13 14
M  V30 14 2 5 15
M  V30 15 1 15 16
M  V30 16 1 15 17
M  V30 17 2 17 18
M  V30 18 1 18 19
M  V30 19 2 19 20
M  V30 20 1 19 21
M  V30 21 1 21 22
M  V30 22 2 22 23
M  V30 23 1 22 24
M  V30 24 2 21 25
M  V30 25 1 25 26
M  V30 26 1 26 27
M  V30 27 1 27 28
M  V30 28 1 28 29
M  V30 29 1 18 2
M  V30 30 1 29 27
M  V30 31 1 14 9
M  V30 32 1 26 17
M  V30 33 1 1 30
M  V30 34 1 1 31
M  V30 35 1 6 32
M  V30 36 1 7 33
M  V30 37 1 7 34
M  V30 38 1 8 35
M  V30 39 1 8 36
M  V30 40 1 10 37
M  V30 41 1 11 38
M  V30 42 1 13 39
M  V30 43 1 14 40
M  V30 44 1 24 41
M  V30 45 1 25 42
M  V30 46 1 27 43
M  V30 47 1 28 44
M  V30 48 1 28 45
M  V30 49 1 29 46
M  V30 50 1 29 47
M  V30 END BOND
M  V30 END CTAB
M  END
>  <Dataset>  (521) 
ChEMBL_Kinases

>  <Ligand_Instance>  (521) 
nan

>  <PDB_ID>  (521) 
nan

>  <Standardized_SMILES>  (521) 
Nc1c(F)c(NCCc2ccncc2)c(F)c2c1c(=O)c(C(=O)O)cn2C1CC1

>  <Name>  (521) 
nan

>  <Pocket>  (521) 
nan

>  <ATP_Site>  (521) 
nan

>  <Peripheral>  (521) 
nan

>  <Num_H_Atoms_ProtBoundConf>  (521) 
nan

>  <Num_Resolved_Atoms>  (521) 
nan

>  <Num_Not_Resolved_Atoms>  (521) 
nan

$$$$
CHEMBL1834118
     RDKit          3D

  0  0  0  0  0  0  0  0  0  0999 V3000
M  V30 BEGIN CTAB
M  V30 COUNTS 56 60 0 0 0
M  V30 BEGIN ATOM
M  V30 1 N 3.476437 -4.653948 1.762229 0
M  V30 2 C 2.490850 -3.708177 1.399021 0
M  V30 3 C 2.443038 -2.403255 1.838485 0
M  V30 4 F 3.465437 -2.107951 2.678685 0
M  V30 5 C 1.434516 -1.517467 1.437006 0
M  V30 6 N 1.611174 -0.253652 2.024348 0
M  V30 7 C 2.287050 0.994021 1.743668 0
M  V30 8 C 1.845404 1.685949 0.500243 0
M  V30 9 N 0.471737 2.066520 0.440391 0
M  V30 10 C -0.202112 3.063745 1.179659 0
M  V30 11 C 0.411274 3.890293 2.093270 0
M  V30 12 C -0.203695 4.886912 2.820605 0
M  V30 13 C -1.552802 5.099846 2.638857 0
M  V30 14 C -2.213679 4.298802 1.734452 0
M  V30 15 C -3.561417 4.525717 1.565934 0
M  V30 16 C -4.324419 3.787724 0.690682 0
M  V30 17 C -3.680319 2.797821 -0.022112 0
M  V30 18 C -2.330868 2.596487 0.169881 0
M  V30 19 C -1.546113 3.319603 1.037699 0
M  V30 20 C 0.473853 -2.000266 0.573250 0
M  V30 21 F -0.449449 -1.094251 0.244843 0
M  V30 22 C 0.506116 -3.303462 0.123195 0
M  V30 23 C 1.507047 -4.160928 0.529364 0
M  V30 24 C 1.510488 -5.472880 0.055456 0
M  V30 25 O 2.424252 -6.258909 0.425072 0
M  V30 26 C 0.497135 -5.842360 -0.805123 0
M  V30 27 C 0.519698 -7.217296 -1.288189 0
M  V30 28 O 1.407082 -8.005032 -0.938086 0
M  V30 29 O -0.426097 -7.746193 -2.158229 0
M  V30 30 C -0.492584 -4.963381 -1.195443 0
M  V30 31 N -0.463969 -3.696351 -0.714867 0
M  V30 32 C -1.513628 -2.798160 -1.141223 0
M  V30 33 C -2.211115 -3.029472 -2.434690 0
M  V30 34 C -1.209897 -1.907020 -2.264099 0
M  V30 35 H 4.388737 -4.514041 1.303988 0
M  V30 36 H 3.265796 -5.428879 2.449086 0
M  V30 37 H 1.040266 -0.378052 2.914393 0
M  V30 38 H 2.181161 1.640880 2.606110 0
M  V30 39 H 3.399878 0.825668 1.622210 0
M  V30 40 H 2.522940 2.599696 0.417524 0
M  V30 41 H 2.145655 1.073307 -0.363270 0
M  V30 42 H -0.056695 1.506776 -0.255964 0
M  V30 43 H 1.459445 3.822063 2.305458 0
M  V30 44 H 0.296572 5.522226 3.531292 0
M  V30 45 H -2.084495 5.861218 3.177368 0
M  V30 46 H -4.064126 5.304266 2.127612 0
M  V30 47 H -5.372190 4.001453 0.593245 0
M  V30 48 H -4.292523 2.229770 -0.702661 0
M  V30 49 H -1.945122 1.797388 -0.441821 0
M  V30 50 H -0.159450 -8.270059 -2.983824 0
M  V30 51 H -1.256442 -5.321138 -1.872927 0
M  V30 52 H -2.185811 -2.504493 -0.298147 0
M  V30 53 H -3.258156 -2.683801 -2.538112 0
M  V30 54 H -1.970847 -3.863846 -3.109008 0
M  V30 55 H -1.582513 -0.857858 -2.317175 0
M  V30 56 H -0.249003 -2.041438 -2.786767 0
M  V30 END ATOM
M  V30 BEGIN BOND
M  V30 1 1 1 2
M  V30 2 2 2 3
M  V30 3 1 3 4
M  V30 4 1 3 5
M  V30 5 1 5 6
M  V30 6 1 6 7
M  V30 7 1 7 8
M  V30 8 1 8 9
M  V30 9 1 9 10
M  V30 10 2 10 11
M  V30 11 1 11 12
M  V30 12 2 12 13
M  V30 13 1 13 14
M  V30 14 2 14 15
M  V30 15 1 15 16
M  V30 16 2 16 17
M  V30 17 1 17 18
M  V30 18 2 18 19
M  V30 19 2 5 20
M  V30 20 1 20 21
M  V30 21 1 20 22
M  V30 22 2 22 23
M  V30 23 1 23 24
M  V30 24 2 24 25
M  V30 25 1 24 26
M  V30 26 1 26 27
M  V30 27 2 27 28
M  V30 28 1 27 29
M  V30 29 2 26 30
M  V30 30 1 30 31
M  V30 31 1 31 32
M  V30 32 1 32 33
M  V30 33 1 33 34
M  V30 34 1 23 2
M  V30 35 1 34 32
M  V30 36 1 19 10
M  V30 37 1 31 22
M  V30 38 1 19 14
M  V30 39 1 1 35
M  V30 40 1 1 36
M  V30 41 1 6 37
M  V30 42 1 7 38
M  V30 43 1 7 39
M  V30 44 1 8 40
M  V30 45 1 8 41
M  V30 46 1 9 42
M  V30 47 1 11 43
M  V30 48 1 12 44
M  V30 49 1 13 45
M  V30 50 1 15 46
M  V30 51 1 16 47
M  V30 52 1 17 48
M  V30 53 1 18 49
M  V30 54 1 29 50
M  V30 55 1 30 51
M  V30 56 1 32 52
M  V30 57 1 33 53
M  V30 58 1 33 54
M  V30 59 1 34 55
M  V30 60 1 34 56
M  V30 END BOND
M  V30 END CTAB
M  END
>  <Dataset>  (522) 
ChEMBL_Kinases

>  <Ligand_Instance>  (522) 
nan

>  <PDB_ID>  (522) 
nan

>  <Standardized_SMILES>  (522) 
Nc1c(F)c(NCCNc2cccc3ccccc23)c(F)c2c1c(=O)c(C(=O)O)cn2C1CC1

>  <Name>  (522) 
nan

>  <Pocket>  (522) 
nan

>  <ATP_Site>  (522) 
nan

>  <Peripheral>  (522) 
nan

>  <Num_H_Atoms_ProtBoundConf>  (522) 
nan

>  <Num_Resolved_Atoms>  (522) 
nan

>  <Num_Not_Resolved_Atoms>  (522) 
nan

$$$$
CHEMBL1834117
     RDKit          3D

  0  0  0  0  0  0  0  0  0  0999 V3000
M  V30 BEGIN CTAB
M  V30 COUNTS 48 51 0 0 0
M  V30 BEGIN ATOM
M  V30 1 N -1.621289 -3.866169 3.634030 0
M  V30 2 C -1.050377 -2.858726 2.808405 0
M  V30 3 C 0.012416 -2.148167 3.270776 0
M  V30 4 F 0.488325 -2.434657 4.515934 0
M  V30 5 C 0.657703 -1.133666 2.550813 0
M  V30 6 N 1.762827 -0.437545 3.042193 0
M  V30 7 C 2.518258 0.644826 2.513269 0
M  V30 8 C 1.728082 1.916206 2.633299 0
M  V30 9 C 2.507469 3.106980 2.058478 0
M  V30 10 N 2.789320 2.864374 0.657650 0
M  V30 11 C 2.021176 3.204194 -0.399452 0
M  V30 12 C 2.603244 2.815469 -1.594852 0
M  V30 13 N 3.751893 2.226471 -1.244137 0
M  V30 14 C 3.839837 2.266934 0.084419 0
M  V30 15 C 0.094924 -0.929816 1.308282 0
M  V30 16 F 0.593130 -0.018590 0.474126 0
M  V30 17 C -0.982033 -1.618970 0.787517 0
M  V30 18 C -1.559684 -2.603140 1.563689 0
M  V30 19 C -2.637909 -3.364424 1.167314 0
M  V30 20 O -3.138724 -4.263431 1.918706 0
M  V30 21 C -3.167168 -3.122427 -0.083246 0
M  V30 22 C -4.307734 -3.879740 -0.584258 0
M  V30 23 O -4.859260 -3.726403 -1.718167 0
M  V30 24 O -4.861504 -4.860865 0.225308 0
M  V30 25 C -2.566687 -2.132791 -0.832908 0
M  V30 26 N -1.504261 -1.389558 -0.430793 0
M  V30 27 C -0.917997 -0.363577 -1.269143 0
M  V30 28 C -1.087891 -0.560305 -2.782295 0
M  V30 29 C 0.248225 -0.663640 -2.133002 0
M  V30 30 H -1.426334 -4.890225 3.576957 0
M  V30 31 H -2.305285 -3.872254 4.425798 0
M  V30 32 H 2.091955 -0.793666 3.993671 0
M  V30 33 H 3.444370 0.799457 3.104418 0
M  V30 34 H 2.886583 0.472905 1.478586 0
M  V30 35 H 1.581958 2.187535 3.728135 0
M  V30 36 H 0.711593 1.900807 2.229218 0
M  V30 37 H 3.437357 3.243206 2.647286 0
M  V30 38 H 1.857242 3.980713 2.208090 0
M  V30 39 H 1.060939 3.718649 -0.356777 0
M  V30 40 H 2.161355 2.985732 -2.586603 0
M  V30 41 H 4.674172 1.861281 0.676262 0
M  V30 42 H -5.531792 -5.538443 -0.117725 0
M  V30 43 H -3.012687 -1.974408 -1.805109 0
M  V30 44 H -1.133987 0.696196 -0.952446 0
M  V30 45 H -1.230888 0.340861 -3.411526 0
M  V30 46 H -1.613856 -1.431292 -3.168937 0
M  V30 47 H 0.997768 0.133764 -2.323651 0
M  V30 48 H 0.739256 -1.656881 -1.992876 0
M  V30 END ATOM
M  V30 BEGIN BOND
M  V30 1 1 1 2
M  V30 2 2 2 3
M  V30 3 1 3 4
M  V30 4 1 3 5
M  V30 5 1 5 6
M  V30 6 1 6 7
M  V30 7 1 7 8
M  V30 8 1 8 9
M  V30 9 1 9 10
M  V30 10 1 10 11
M  V30 11 2 11 12
M  V30 12 1 12 13
M  V30 13 2 13 14
M  V30 14 2 5 15
M  V30 15 1 15 16
M  V30 16 1 15 17
M  V30 17 2 17 18
M  V30 18 1 18 19
M  V30 19 2 19 20
M  V30 20 1 19 21
M  V30 21 1 21 22
M  V30 22 2 22 23
M  V30 23 1 22 24
M  V30 24 2 21 25
M  V30 25 1 25 26
M  V30 26 1 26 27
M  V30 27 1 27 28
M  V30 28 1 28 29
M  V30 29 1 18 2
M  V30 30 1 29 27
M  V30 31 1 14 10
M  V30 32 1 26 17
M  V30 33 1 1 30
M  V30 34 1 1 31
M  V30 35 1 6 32
M  V30 36 1 7 33
M  V30 37 1 7 34
M  V30 38 1 8 35
M  V30 39 1 8 36
M  V30 40 1 9 37
M  V30 41 1 9 38
M  V30 42 1 11 39
M  V30 43 1 12 40
M  V30 44 1 14 41
M  V30 45 1 24 42
M  V30 46 1 25 43
M  V30 47 1 27 44
M  V30 48 1 28 45
M  V30 49 1 28 46
M  V30 50 1 29 47
M  V30 51 1 29 48
M  V30 END BOND
M  V30 END CTAB
M  END
>  <Dataset>  (523) 
ChEMBL_Kinases

>  <Ligand_Instance>  (523) 
nan

>  <PDB_ID>  (523) 
nan

>  <Standardized_SMILES>  (523) 
Nc1c(F)c(NCCCn2ccnc2)c(F)c2c1c(=O)c(C(=O)O)cn2C1CC1

>  <Name>  (523) 
nan

>  <Pocket>  (523) 
nan

>  <ATP_Site>  (523) 
nan

>  <Peripheral>  (523) 
nan

>  <Num_H_Atoms_ProtBoundConf>  (523) 
nan

>  <Num_Resolved_Atoms>  (523) 
nan

>  <Num_Not_Resolved_Atoms>  (523) 
nan

$$$$
CHEMBL1834324
     RDKit          3D

  0  0  0  0  0  0  0  0  0  0999 V3000
M  V30 BEGIN CTAB
M  V30 COUNTS 56 59 0 0 0
M  V30 BEGIN ATOM
M  V30 1 C -1.672531 -0.008299 4.832623 0
M  V30 2 C -1.549852 -1.254353 3.986232 0
M  V30 3 C -2.851607 -1.436555 3.264857 0
M  V30 4 C -0.359438 -1.135088 3.046950 0 CFG=2
M  V30 5 C -0.480178 0.021828 2.127320 0
M  V30 6 O -0.753140 -0.309442 0.797103 0
M  V30 7 C -0.397530 -1.597569 0.343893 0
M  V30 8 C -0.501357 -1.568882 -1.072938 0
M  V30 9 N -0.872691 -0.451852 -1.885961 0
M  V30 10 C -0.009168 0.556804 -2.459232 0
M  V30 11 C -0.905048 1.573587 -3.137103 0
M  V30 12 N -0.169742 2.650194 -3.750779 0
M  V30 13 C 0.669250 3.572542 -3.044138 0
M  V30 14 C 1.361063 4.602012 -3.610955 0
M  V30 15 C 2.130522 5.432391 -2.852333 0
M  V30 16 C 2.215850 5.232365 -1.486817 0
M  V30 17 C 1.501714 4.187256 -0.958112 0
M  V30 18 N 0.733342 3.352878 -1.712816 0
M  V30 19 C -0.220391 -2.702841 -1.788442 0
M  V30 20 F -0.275235 -2.838269 -3.133148 0
M  V30 21 C 0.142779 -3.754888 -1.006175 0
M  V30 22 N 0.464884 -5.010084 -1.667716 0
M  V30 23 C 0.265974 -3.858856 0.289752 0
M  V30 24 C 0.624397 -4.971339 1.067622 0
M  V30 25 O 0.895960 -6.024988 0.472497 0
M  V30 26 C 0.625358 -4.727414 2.438658 0
M  V30 27 C 0.979572 -5.814321 3.325624 0
M  V30 28 O 1.284438 -6.911723 2.736247 0
M  V30 29 O 1.321472 -6.869192 4.134916 0
M  V30 30 C 0.316048 -3.532348 3.030651 0
M  V30 31 N -0.050313 -2.357220 2.399621 0
M  V30 32 C 0.002138 -2.788068 1.051767 0
M  V30 33 H -2.461874 0.642263 4.441546 0
M  V30 34 H -0.688813 0.504411 4.944564 0
M  V30 35 H -1.953250 -0.322791 5.853996 0
M  V30 36 H -1.417158 -2.114998 4.669209 0
M  V30 37 H -3.544612 -2.125964 3.828368 0
M  V30 38 H -2.754971 -1.804530 2.220545 0
M  V30 39 H -3.422604 -0.470595 3.177968 0
M  V30 40 H 0.507443 -0.906234 3.728804 0
M  V30 41 H -1.323204 0.706398 2.434569 0
M  V30 42 H 0.423076 0.683212 2.170285 0
M  V30 43 H -1.909514 -0.492549 -1.995968 0
M  V30 44 H 0.687272 0.113911 -3.195527 0
M  V30 45 H 0.508315 1.041847 -1.607560 0
M  V30 46 H -1.521149 1.039934 -3.881623 0
M  V30 47 H -1.636327 2.013347 -2.420222 0
M  V30 48 H -0.217406 2.812913 -4.789995 0
M  V30 49 H 1.288036 4.746151 -4.675824 0
M  V30 50 H 2.696381 6.272081 -3.225219 0
M  V30 51 H 2.781074 5.811116 -0.756193 0
M  V30 52 H 1.530631 3.982887 0.115453 0
M  V30 53 H 0.232009 -5.998760 -1.937974 0
M  V30 54 H 0.410387 -5.992781 -2.019878 0
M  V30 55 H 1.593545 -6.724289 5.122375 0
M  V30 56 H 0.349676 -3.481111 4.141478 0
M  V30 END ATOM
M  V30 BEGIN BOND
M  V30 1 1 1 2
M  V30 2 1 2 3
M  V30 3 1 2 4
M  V30 4 1 4 5
M  V30 5 1 5 6
M  V30 6 1 6 7
M  V30 7 1 7 8
M  V30 8 1 8 9
M  V30 9 1 9 10
M  V30 10 1 10 11
M  V30 11 1 11 12
M  V30 12 1 12 13
M  V30 13 2 13 14
M  V30 14 1 14 15
M  V30 15 2 15 16
M  V30 16 1 16 17
M  V30 17 2 17 18
M  V30 18 2 8 19
M  V30 19 1 19 20
M  V30 20 1 19 21
M  V30 21 1 21 22
M  V30 22 2 21 23
M  V30 23 1 23 24
M  V30 24 2 24 25
M  V30 25 1 24 26
M  V30 26 1 26 27
M  V30 27 2 27 28
M  V30 28 1 27 29
M  V30 29 2 26 30
M  V30 30 1 30 31
M  V30 31 1 31 32
M  V30 32 1 31 4
M  V30 33 2 32 7
M  V30 34 1 18 13
M  V30 35 1 32 23
M  V30 36 1 1 33
M  V30 37 1 1 34
M  V30 38 1 1 35
M  V30 39 1 2 36
M  V30 40 1 3 37
M  V30 41 1 3 38
M  V30 42 1 3 39
M  V30 43 1 4 40 CFG=1
M  V30 44 1 5 41
M  V30 45 1 5 42
M  V30 46 1 9 43
M  V30 47 1 10 44
M  V30 48 1 10 45
M  V30 49 1 11 46
M  V30 50 1 11 47
M  V30 51 1 12 48
M  V30 52 1 14 49
M  V30 53 1 15 50
M  V30 54 1 16 51
M  V30 55 1 17 52
M  V30 56 1 22 53
M  V30 57 1 22 54
M  V30 58 1 29 55
M  V30 59 1 30 56
M  V30 END BOND
M  V30 END CTAB
M  END
>  <Dataset>  (524) 
ChEMBL_Kinases

>  <Ligand_Instance>  (524) 
nan

>  <PDB_ID>  (524) 
nan

>  <Standardized_SMILES>  (524) 
CC(C)[C@@H]1COc2c(NCCNc3ccccn3)c(F)c(N)c3c(=O)c(C(=O)O)cn1c23

>  <Name>  (524) 
nan

>  <Pocket>  (524) 
nan

>  <ATP_Site>  (524) 
nan

>  <Peripheral>  (524) 
nan

>  <Num_H_Atoms_ProtBoundConf>  (524) 
nan

>  <Num_Resolved_Atoms>  (524) 
nan

>  <Num_Not_Resolved_Atoms>  (524) 
nan

$$$$
CHEMBL1835627
     RDKit          3D

  0  0  0  0  0  0  0  0  0  0999 V3000
M  V30 BEGIN CTAB
M  V30 COUNTS 53 57 0 0 0
M  V30 BEGIN ATOM
M  V30 1 C 0.904666 -1.753220 3.339241 0
M  V30 2 C 2.117585 -1.075203 2.795690 0
M  V30 3 C 3.228227 -1.030672 3.605241 0
M  V30 4 C 4.404674 -0.437624 3.241521 0
M  V30 5 C 5.618982 -0.375595 4.108778 0
M  V30 6 C 4.579703 0.169476 2.034226 0
M  V30 7 C 3.518397 0.172879 1.158358 0
M  V30 8 N 3.146693 0.601656 -0.104565 0
M  V30 9 C 2.778375 1.028542 -1.360704 0
M  V30 10 S 3.435459 1.746923 -2.657179 0
M  V30 11 N 1.382834 0.616936 -1.307138 0
M  V30 12 C 0.369079 1.301163 -0.708727 0
M  V30 13 C -0.814485 0.593464 -0.785246 0
M  V30 14 C -2.075272 0.924884 -0.162051 0
M  V30 15 C -1.968159 1.763228 0.958156 0
M  V30 16 C -2.986267 2.174107 1.751150 0
M  V30 17 C -4.224991 1.717093 1.412997 0
M  V30 18 N -5.448254 1.899952 1.955037 0
M  V30 19 C -6.365104 1.221260 1.247527 0
M  V30 20 N -5.679583 0.625161 0.269167 0
M  V30 21 N -4.383154 0.920585 0.360411 0
M  V30 22 C -3.346006 0.532281 -0.413257 0
M  V30 23 C -0.493316 -0.550764 -1.454659 0
M  V30 24 C -1.235068 -1.721898 -1.891986 0
M  V30 25 C -2.062121 -1.889774 -3.018444 0
M  V30 26 C -2.662715 -3.128719 -3.228631 0
M  V30 27 C -2.459466 -4.171124 -2.361344 0
M  V30 28 C -1.650180 -3.987840 -1.260421 0
M  V30 29 C -1.401990 -5.085169 -0.280199 0
M  V30 30 N -1.082815 -2.781114 -1.086854 0
M  V30 31 N 0.823433 -0.488922 -1.742800 0
M  V30 32 C 2.311006 -0.448199 1.552210 0
M  V30 33 H 0.941107 -2.837854 3.057043 0
M  V30 34 H 0.862448 -1.587586 4.412209 0
M  V30 35 H -0.021344 -1.258684 2.920294 0
M  V30 36 H 3.310079 -1.447816 4.599002 0
M  V30 37 H 5.707104 -1.323411 4.685013 0
M  V30 38 H 5.411751 0.410269 4.881412 0
M  V30 39 H 6.553381 -0.255098 3.554440 0
M  V30 40 H 5.391209 0.677310 1.569458 0
M  V30 41 H 4.122956 0.975565 -0.317165 0
M  V30 42 H 0.480109 2.279262 -0.229612 0
M  V30 43 H -0.976649 2.166159 1.255302 0
M  V30 44 H -2.804709 2.842673 2.604368 0
M  V30 45 H -7.351498 1.354411 1.669991 0
M  V30 46 H -3.467181 -0.114803 -1.251073 0
M  V30 47 H -2.141953 -0.972853 -3.630313 0
M  V30 48 H -3.265960 -3.136891 -4.131832 0
M  V30 49 H -2.932619 -5.133413 -2.568372 0
M  V30 50 H -1.836185 -4.853528 0.707568 0
M  V30 51 H -0.289813 -5.200586 -0.090439 0
M  V30 52 H -1.721824 -6.063943 -0.666664 0
M  V30 53 H 1.335493 -0.616919 1.071470 0
M  V30 END ATOM
M  V30 BEGIN BOND
M  V30 1 1 1 2
M  V30 2 2 2 3
M  V30 3 1 3 4
M  V30 4 1 4 5
M  V30 5 2 4 6
M  V30 6 1 6 7
M  V30 7 1 7 8
M  V30 8 1 8 9
M  V30 9 2 9 10
M  V30 10 1 9 11
M  V30 11 1 11 12
M  V30 12 2 12 13
M  V30 13 1 13 14
M  V30 14 1 14 15
M  V30 15 2 15 16
M  V30 16 1 16 17
M  V30 17 2 17 18
M  V30 18 1 18 19
M  V30 19 2 19 20
M  V30 20 1 20 21
M  V30 21 1 21 22
M  V30 22 1 13 23
M  V30 23 1 23 24
M  V30 24 2 24 25
M  V30 25 1 25 26
M  V30 26 2 26 27
M  V30 27 1 27 28
M  V30 28 1 28 29
M  V30 29 2 28 30
M  V30 30 2 23 31
M  V30 31 2 7 32
M  V30 32 1 32 2
M  V30 33 1 31 11
M  V30 34 2 22 14
M  V30 35 1 30 24
M  V30 36 1 21 17
M  V30 37 1 1 33
M  V30 38 1 1 34
M  V30 39 1 1 35
M  V30 40 1 3 36
M  V30 41 1 5 37
M  V30 42 1 5 38
M  V30 43 1 5 39
M  V30 44 1 6 40
M  V30 45 1 8 41
M  V30 46 1 12 42
M  V30 47 1 15 43
M  V30 48 1 16 44
M  V30 49 1 19 45
M  V30 50 1 22 46
M  V30 51 1 25 47
M  V30 52 1 26 48
M  V30 53 1 27 49
M  V30 54 1 29 50
M  V30 55 1 29 51
M  V30 56 1 29 52
M  V30 57 1 32 53
M  V30 END BOND
M  V30 END CTAB
M  END
>  <Dataset>  (525) 
ChEMBL_Kinases

>  <Ligand_Instance>  (525) 
nan

>  <PDB_ID>  (525) 
nan

>  <Standardized_SMILES>  (525) 
Cc1cc(C)cc(NC(=S)n2cc(-c3ccc4ncnn4c3)c(-c3cccc(C)n3)n2)c1

>  <Name>  (525) 
nan

>  <Pocket>  (525) 
nan

>  <ATP_Site>  (525) 
nan

>  <Peripheral>  (525) 
nan

>  <Num_H_Atoms_ProtBoundConf>  (525) 
nan

>  <Num_Resolved_Atoms>  (525) 
nan

>  <Num_Not_Resolved_Atoms>  (525) 
nan

$$$$
CHEMBL1835626
     RDKit          3D

  0  0  0  0  0  0  0  0  0  0999 V3000
M  V30 BEGIN CTAB
M  V30 COUNTS 53 57 0 0 0
M  V30 BEGIN ATOM
M  V30 1 C 0.467988 -1.814737 5.367199 0
M  V30 2 C 1.578664 -1.751723 4.368783 0
M  V30 3 C 2.870538 -2.048526 4.843168 0
M  V30 4 C 3.871996 -1.985104 3.907654 0
M  V30 5 C 3.651923 -1.649435 2.564578 0
M  V30 6 C 2.366364 -1.371243 2.178992 0
M  V30 7 C 1.874476 -0.982872 0.865805 0
M  V30 8 N 2.020725 0.292786 0.479939 0
M  V30 9 N 1.483073 0.396685 -0.715123 0
M  V30 10 C 1.294964 1.439633 -1.552939 0
M  V30 11 S 2.670238 1.423630 -2.503922 0
M  V30 12 N 1.108909 2.485823 -2.395264 0
M  V30 13 C -0.147442 2.733158 -1.710367 0
M  V30 14 C -0.320166 3.636639 -0.644236 0
M  V30 15 C -1.504237 3.917711 0.064193 0
M  V30 16 C -2.568754 3.204086 -0.374752 0
M  V30 17 C -3.866111 3.453887 0.349376 0
M  V30 18 C -2.594956 2.289153 -1.387157 0
M  V30 19 C -3.770394 1.515305 -1.839540 0
M  V30 20 C -1.367303 2.114628 -1.993604 0
M  V30 21 C 0.991922 -0.790094 -1.114928 0
M  V30 22 C 1.222857 -1.716896 -0.119221 0
M  V30 23 C 0.889422 -3.137832 -0.025365 0
M  V30 24 C 1.678012 -4.240867 0.058541 0
M  V30 25 C 1.055158 -5.486342 0.140363 0
M  V30 26 C -0.319853 -5.556937 0.133028 0
M  V30 27 N -1.087087 -6.642941 0.202144 0
M  V30 28 C -2.386791 -6.232031 0.165558 0
M  V30 29 N -2.371552 -4.905063 0.072048 0
M  V30 30 N -1.109247 -4.466482 0.051084 0
M  V30 31 C -0.504081 -3.242136 -0.029562 0
M  V30 32 N 1.360683 -1.428097 3.085001 0
M  V30 33 H 0.822082 -2.269322 6.309131 0
M  V30 34 H -0.041888 -0.853843 5.514360 0
M  V30 35 H -0.293150 -2.505859 4.949175 0
M  V30 36 H 3.088411 -2.312625 5.869643 0
M  V30 37 H 4.925205 -2.195433 4.147544 0
M  V30 38 H 4.387651 -1.576680 1.780707 0
M  V30 39 H 0.840787 3.271672 -2.936974 0
M  V30 40 H 0.582213 4.180109 -0.336237 0
M  V30 41 H -1.447384 4.644626 0.850721 0
M  V30 42 H -3.670288 3.793419 1.372682 0
M  V30 43 H -4.423516 4.237049 -0.177781 0
M  V30 44 H -4.478258 2.529343 0.431445 0
M  V30 45 H -3.874643 0.618474 -1.156578 0
M  V30 46 H -3.673447 1.173899 -2.888955 0
M  V30 47 H -4.703687 2.105215 -1.686929 0
M  V30 48 H -1.327683 1.388587 -2.816292 0
M  V30 49 H 0.478648 -1.165745 -2.009971 0
M  V30 50 H 2.738804 -4.000564 0.050381 0
M  V30 51 H 1.725360 -6.327581 0.202147 0
M  V30 52 H -3.358878 -6.748350 0.200815 0
M  V30 53 H -1.250209 -2.454138 -0.092907 0
M  V30 END ATOM
M  V30 BEGIN BOND
M  V30 1 1 1 2
M  V30 2 2 2 3
M  V30 3 1 3 4
M  V30 4 2 4 5
M  V30 5 1 5 6
M  V30 6 1 6 7
M  V30 7 2 7 8
M  V30 8 1 8 9
M  V30 9 1 9 10
M  V30 10 2 10 11
M  V30 11 1 10 12
M  V30 12 1 12 13
M  V30 13 2 13 14
M  V30 14 1 14 15
M  V30 15 2 15 16
M  V30 16 1 16 17
M  V30 17 1 16 18
M  V30 18 1 18 19
M  V30 19 2 18 20
M  V30 20 1 9 21
M  V30 21 2 21 22
M  V30 22 1 22 23
M  V30 23 1 23 24
M  V30 24 2 24 25
M  V30 25 1 25 26
M  V30 26 2 26 27
M  V30 27 1 27 28
M  V30 28 2 28 29
M  V30 29 1 29 30
M  V30 30 1 30 31
M  V30 31 2 6 32
M  V30 32 1 32 2
M  V30 33 1 22 7
M  V30 34 2 31 23
M  V30 35 1 20 13
M  V30 36 1 30 26
M  V30 37 1 1 33
M  V30 38 1 1 34
M  V30 39 1 1 35
M  V30 40 1 3 36
M  V30 41 1 4 37
M  V30 42 1 5 38
M  V30 43 1 12 39
M  V30 44 1 14 40
M  V30 45 1 15 41
M  V30 46 1 17 42
M  V30 47 1 17 43
M  V30 48 1 17 44
M  V30 49 1 19 45
M  V30 50 1 19 46
M  V30 51 1 19 47
M  V30 52 1 20 48
M  V30 53 1 21 49
M  V30 54 1 24 50
M  V30 55 1 25 51
M  V30 56 1 28 52
M  V30 57 1 31 53
M  V30 END BOND
M  V30 END CTAB
M  END
>  <Dataset>  (526) 
ChEMBL_Kinases

>  <Ligand_Instance>  (526) 
nan

>  <PDB_ID>  (526) 
nan

>  <Standardized_SMILES>  (526) 
Cc1cccc(-c2nn(C(=S)Nc3ccc(C)c(C)c3)cc2-c2ccc3ncnn3c2)n1

>  <Name>  (526) 
nan

>  <Pocket>  (526) 
nan

>  <ATP_Site>  (526) 
nan

>  <Peripheral>  (526) 
nan

>  <Num_H_Atoms_ProtBoundConf>  (526) 
nan

>  <Num_Resolved_Atoms>  (526) 
nan

>  <Num_Not_Resolved_Atoms>  (526) 
nan

$$$$
CHEMBL1835625
     RDKit          3D

  0  0  0  0  0  0  0  0  0  0999 V3000
M  V30 BEGIN CTAB
M  V30 COUNTS 47 51 0 0 0
M  V30 BEGIN ATOM
M  V30 1 C 0.231722 -3.738957 3.024694 0
M  V30 2 C 0.776096 -2.360593 2.891114 0
M  V30 3 C 2.057107 -2.122833 3.198591 0
M  V30 4 C 2.663993 -0.893880 3.117791 0
M  V30 5 C 1.835012 0.147924 2.654699 0
M  V30 6 C 0.531209 -0.062695 2.328808 0
M  V30 7 C -0.371126 0.952950 1.677792 0
M  V30 8 N 0.222802 2.075461 1.248628 0
M  V30 9 N -0.555619 2.812503 0.492625 0
M  V30 10 C 0.420294 3.916374 -0.047525 0
M  V30 11 S 0.764449 5.436307 0.054191 0
M  V30 12 N 1.118831 2.828094 -0.718134 0
M  V30 13 C 1.866485 1.724690 -1.421326 0
M  V30 14 C 3.060707 1.929665 -0.803669 0
M  V30 15 C 3.726609 0.746171 -0.677315 0
M  V30 16 Cl 5.308238 0.503347 0.166764 0
M  V30 17 C 3.236417 -0.498926 -1.134280 0
M  V30 18 C 1.998249 -0.538076 -1.769636 0
M  V30 19 Cl 1.234070 -2.057923 -2.301747 0
M  V30 20 C 1.193926 0.650321 -1.969219 0
M  V30 21 C -1.745490 2.227608 0.377732 0
M  V30 22 C -1.587767 1.101749 1.096217 0
M  V30 23 C -2.341823 -0.182547 1.110566 0
M  V30 24 C -2.599400 -0.451027 -0.296324 0
M  V30 25 C -2.991940 -1.685324 -0.633406 0
M  V30 26 C -3.131737 -2.577097 0.375040 0
M  V30 27 N -3.400349 -3.896971 0.277295 0
M  V30 28 C -3.305227 -4.413279 1.493706 0
M  V30 29 N -2.998056 -3.447119 2.333255 0
M  V30 30 N -2.884699 -2.261080 1.666338 0
M  V30 31 C -2.477135 -1.046356 2.128286 0
M  V30 32 N 0.166908 -1.307845 2.499216 0
M  V30 33 H -0.550357 -3.779286 3.775163 0
M  V30 34 H -0.166558 -4.038629 2.032801 0
M  V30 35 H 1.038280 -4.446703 3.378915 0
M  V30 36 H 2.709089 -2.969600 3.528723 0
M  V30 37 H 3.682689 -0.721382 3.344044 0
M  V30 38 H 2.271864 1.156155 2.577245 0
M  V30 39 H 0.182761 2.447884 -0.906848 0
M  V30 40 H 3.526752 2.789567 -0.466960 0
M  V30 41 H 3.699898 -1.457451 -1.009881 0
M  V30 42 H 0.232682 0.741389 -2.452852 0
M  V30 43 H -2.481943 2.695254 -0.188353 0
M  V30 44 H -2.527800 0.283462 -1.064628 0
M  V30 45 H -3.236509 -1.923871 -1.707332 0
M  V30 46 H -3.500660 -5.479240 1.693178 0
M  V30 47 H -2.312857 -0.752459 3.147613 0
M  V30 END ATOM
M  V30 BEGIN BOND
M  V30 1 1 1 2
M  V30 2 2 2 3
M  V30 3 1 3 4
M  V30 4 2 4 5
M  V30 5 1 5 6
M  V30 6 1 6 7
M  V30 7 2 7 8
M  V30 8 1 8 9
M  V30 9 1 9 10
M  V30 10 2 10 11
M  V30 11 1 10 12
M  V30 12 1 12 13
M  V30 13 2 13 14
M  V30 14 1 14 15
M  V30 15 1 15 16
M  V30 16 2 15 17
M  V30 17 1 17 18
M  V30 18 1 18 19
M  V30 19 2 18 20
M  V30 20 1 9 21
M  V30 21 2 21 22
M  V30 22 1 22 23
M  V30 23 1 23 24
M  V30 24 2 24 25
M  V30 25 1 25 26
M  V30 26 2 26 27
M  V30 27 1 27 28
M  V30 28 2 28 29
M  V30 29 1 29 30
M  V30 30 1 30 31
M  V30 31 2 6 32
M  V30 32 1 32 2
M  V30 33 1 22 7
M  V30 34 2 31 23
M  V30 35 1 20 13
M  V30 36 1 30 26
M  V30 37 1 1 33
M  V30 38 1 1 34
M  V30 39 1 1 35
M  V30 40 1 3 36
M  V30 41 1 4 37
M  V30 42 1 5 38
M  V30 43 1 12 39
M  V30 44 1 14 40
M  V30 45 1 17 41
M  V30 46 1 20 42
M  V30 47 1 21 43
M  V30 48 1 24 44
M  V30 49 1 25 45
M  V30 50 1 28 46
M  V30 51 1 31 47
M  V30 END BOND
M  V30 END CTAB
M  END
>  <Dataset>  (527) 
ChEMBL_Kinases

>  <Ligand_Instance>  (527) 
nan

>  <PDB_ID>  (527) 
nan

>  <Standardized_SMILES>  (527) 
Cc1cccc(-c2nn(C(=S)Nc3cc(Cl)cc(Cl)c3)cc2-c2ccc3ncnn3c2)n1

>  <Name>  (527) 
nan

>  <Pocket>  (527) 
nan

>  <ATP_Site>  (527) 
nan

>  <Peripheral>  (527) 
nan

>  <Num_H_Atoms_ProtBoundConf>  (527) 
nan

>  <Num_Resolved_Atoms>  (527) 
nan

>  <Num_Not_Resolved_Atoms>  (527) 
nan

$$$$
CHEMBL1835624
     RDKit          3D

  0  0  0  0  0  0  0  0  0  0999 V3000
M  V30 BEGIN CTAB
M  V30 COUNTS 47 51 0 0 0
M  V30 BEGIN ATOM
M  V30 1 C -3.108498 -2.262910 3.377208 0
M  V30 2 C -2.458389 -0.904146 3.328606 0
M  V30 3 C -2.845318 0.047023 4.251255 0
M  V30 4 C -2.185114 1.250078 4.110005 0
M  V30 5 C -1.235039 1.459617 3.134986 0
M  V30 6 C -0.912702 0.428424 2.245251 0
M  V30 7 C 0.079432 0.558554 1.182565 0
M  V30 8 N 1.389238 0.837140 1.257476 0
M  V30 9 N 1.954641 0.866541 0.050424 0
M  V30 10 C 3.304126 1.119491 -0.326711 0
M  V30 11 S 3.333269 2.471007 -1.209062 0
M  V30 12 N 4.067496 0.101436 0.215578 0
M  V30 13 C 4.863583 -0.907881 0.746972 0
M  V30 14 C 6.201483 -1.214387 0.733062 0
M  V30 15 C 6.652729 -2.326640 1.386968 0
M  V30 16 C 5.711253 -3.087264 2.034333 0
M  V30 17 Cl 6.421926 -4.475612 2.826934 0
M  V30 18 C 4.357776 -2.873826 2.111658 0
M  V30 19 Cl 3.397331 -4.016829 3.013032 0
M  V30 20 C 3.937924 -1.720679 1.425953 0
M  V30 21 C 0.938415 0.592561 -0.800581 0
M  V30 22 C -0.279368 0.387210 -0.138827 0
M  V30 23 C -1.491596 0.084656 -0.851560 0
M  V30 24 C -1.572864 -1.100920 -1.593238 0
M  V30 25 C -2.769043 -1.318494 -2.256209 0
M  V30 26 C -3.799668 -0.407458 -2.173738 0
M  V30 27 N -5.013194 -0.461890 -2.749331 0
M  V30 28 C -5.660951 0.673478 -2.364200 0
M  V30 29 N -4.832464 1.390933 -1.566511 0
M  V30 30 N -3.679297 0.723519 -1.447058 0
M  V30 31 C -2.538178 0.992931 -0.777787 0
M  V30 32 N -1.539297 -0.755505 2.358061 0
M  V30 33 H -3.134980 -2.721466 2.366409 0
M  V30 34 H -2.608941 -2.908493 4.129201 0
M  V30 35 H -4.140192 -2.097512 3.751597 0
M  V30 36 H -3.595010 -0.158694 5.001034 0
M  V30 37 H -2.423722 2.062650 4.793439 0
M  V30 38 H -0.707888 2.418335 3.021679 0
M  V30 39 H 4.819665 0.644239 -0.257107 0
M  V30 40 H 6.765616 -0.489402 0.169516 0
M  V30 41 H 7.703632 -2.485664 1.322568 0
M  V30 42 H 2.840802 -1.643215 1.550973 0
M  V30 43 H 1.095374 0.545263 -1.890601 0
M  V30 44 H -0.752192 -1.807102 -1.647702 0
M  V30 45 H -2.849838 -2.239179 -2.840179 0
M  V30 46 H -6.675862 0.875298 -2.698855 0
M  V30 47 H -2.436016 1.910513 -0.185893 0
M  V30 END ATOM
M  V30 BEGIN BOND
M  V30 1 1 1 2
M  V30 2 2 2 3
M  V30 3 1 3 4
M  V30 4 2 4 5
M  V30 5 1 5 6
M  V30 6 1 6 7
M  V30 7 2 7 8
M  V30 8 1 8 9
M  V30 9 1 9 10
M  V30 10 2 10 11
M  V30 11 1 10 12
M  V30 12 1 12 13
M  V30 13 2 13 14
M  V30 14 1 14 15
M  V30 15 2 15 16
M  V30 16 1 16 17
M  V30 17 1 16 18
M  V30 18 1 18 19
M  V30 19 2 18 20
M  V30 20 1 9 21
M  V30 21 2 21 22
M  V30 22 1 22 23
M  V30 23 1 23 24
M  V30 24 2 24 25
M  V30 25 1 25 26
M  V30 26 2 26 27
M  V30 27 1 27 28
M  V30 28 2 28 29
M  V30 29 1 29 30
M  V30 30 1 30 31
M  V30 31 2 6 32
M  V30 32 1 32 2
M  V30 33 1 22 7
M  V30 34 2 31 23
M  V30 35 1 20 13
M  V30 36 1 30 26
M  V30 37 1 1 33
M  V30 38 1 1 34
M  V30 39 1 1 35
M  V30 40 1 3 36
M  V30 41 1 4 37
M  V30 42 1 5 38
M  V30 43 1 12 39
M  V30 44 1 14 40
M  V30 45 1 15 41
M  V30 46 1 20 42
M  V30 47 1 21 43
M  V30 48 1 24 44
M  V30 49 1 25 45
M  V30 50 1 28 46
M  V30 51 1 31 47
M  V30 END BOND
M  V30 END CTAB
M  END
>  <Dataset>  (528) 
ChEMBL_Kinases

>  <Ligand_Instance>  (528) 
nan

>  <PDB_ID>  (528) 
nan

>  <Standardized_SMILES>  (528) 
Cc1cccc(-c2nn(C(=S)Nc3ccc(Cl)c(Cl)c3)cc2-c2ccc3ncnn3c2)n1

>  <Name>  (528) 
nan

>  <Pocket>  (528) 
nan

>  <ATP_Site>  (528) 
nan

>  <Peripheral>  (528) 
nan

>  <Num_H_Atoms_ProtBoundConf>  (528) 
nan

>  <Num_Resolved_Atoms>  (528) 
nan

>  <Num_Not_Resolved_Atoms>  (528) 
nan

$$$$
CHEMBL1835623
     RDKit          3D

  0  0  0  0  0  0  0  0  0  0999 V3000
M  V30 BEGIN CTAB
M  V30 COUNTS 47 51 0 0 0
M  V30 BEGIN ATOM
M  V30 1 C 3.168403 -4.168674 -2.950096 0
M  V30 2 C 1.812990 -3.587133 -3.172662 0
M  V30 3 C 1.057670 -4.091194 -4.194922 0
M  V30 4 C -0.202785 -3.604956 -4.461908 0
M  V30 5 C -0.687791 -2.588759 -3.665804 0
M  V30 6 C 0.073297 -2.079827 -2.634785 0
M  V30 7 C -0.234503 -1.019027 -1.682996 0
M  V30 8 N -0.443474 -0.994211 -0.333172 0
M  V30 9 N -0.695066 0.245790 0.051022 0
M  V30 10 C -0.921729 0.262712 1.478380 0
M  V30 11 S 0.427077 0.998979 2.021298 0
M  V30 12 N -2.110691 -0.284975 2.084526 0
M  V30 13 C -2.460064 -0.332337 3.458347 0
M  V30 14 C -3.662343 -0.939774 3.777377 0
M  V30 15 C -4.103780 -1.040912 5.073614 0
M  V30 16 F -5.286062 -1.646209 5.309220 0
M  V30 17 C -3.302224 -0.511674 6.062191 0
M  V30 18 C -2.109618 0.090385 5.742812 0
M  V30 19 F -1.412831 0.570379 6.788799 0
M  V30 20 C -1.662300 0.192457 4.423570 0
M  V30 21 C -0.659050 1.060296 -1.019413 0
M  V30 22 C -0.366174 0.273928 -2.141797 0
M  V30 23 C -0.288157 0.993193 -3.405191 0
M  V30 24 C -1.124324 0.869173 -4.494094 0
M  V30 25 C -0.947781 1.608389 -5.642954 0
M  V30 26 C 0.088397 2.510229 -5.739979 0
M  V30 27 N 0.539076 3.369361 -6.683773 0
M  V30 28 C 1.633580 4.011934 -6.186274 0
M  V30 29 N 1.863842 3.560067 -4.947449 0
M  V30 30 N 0.918063 2.645126 -4.682236 0
M  V30 31 C 0.746407 1.924487 -3.561686 0
M  V30 32 N 1.305232 -2.598821 -2.421281 0
M  V30 33 H 3.847943 -3.994165 -3.814564 0
M  V30 34 H 3.602434 -3.612378 -2.095152 0
M  V30 35 H 3.112746 -5.258707 -2.768254 0
M  V30 36 H 1.361868 -4.898841 -4.878417 0
M  V30 37 H -0.885535 -3.931641 -5.245294 0
M  V30 38 H -1.653121 -2.110191 -3.751124 0
M  V30 39 H -2.742320 -0.677844 1.354205 0
M  V30 40 H -4.286363 -1.354761 2.983513 0
M  V30 41 H -3.693325 -0.616134 7.064055 0
M  V30 42 H -0.722778 0.673563 4.233257 0
M  V30 43 H -0.862649 2.092688 -0.736871 0
M  V30 44 H -1.919134 0.168989 -4.397557 0
M  V30 45 H -1.624864 1.482588 -6.476034 0
M  V30 46 H 2.004329 4.711391 -6.947542 0
M  V30 47 H 1.435650 2.062380 -2.733495 0
M  V30 END ATOM
M  V30 BEGIN BOND
M  V30 1 1 1 2
M  V30 2 2 2 3
M  V30 3 1 3 4
M  V30 4 2 4 5
M  V30 5 1 5 6
M  V30 6 1 6 7
M  V30 7 2 7 8
M  V30 8 1 8 9
M  V30 9 1 9 10
M  V30 10 2 10 11
M  V30 11 1 10 12
M  V30 12 1 12 13
M  V30 13 2 13 14
M  V30 14 1 14 15
M  V30 15 1 15 16
M  V30 16 2 15 17
M  V30 17 1 17 18
M  V30 18 1 18 19
M  V30 19 2 18 20
M  V30 20 1 9 21
M  V30 21 2 21 22
M  V30 22 1 22 23
M  V30 23 1 23 24
M  V30 24 2 24 25
M  V30 25 1 25 26
M  V30 26 2 26 27
M  V30 27 1 27 28
M  V30 28 2 28 29
M  V30 29 1 29 30
M  V30 30 1 30 31
M  V30 31 2 6 32
M  V30 32 1 32 2
M  V30 33 1 22 7
M  V30 34 2 31 23
M  V30 35 1 20 13
M  V30 36 1 30 26
M  V30 37 1 1 33
M  V30 38 1 1 34
M  V30 39 1 1 35
M  V30 40 1 3 36
M  V30 41 1 4 37
M  V30 42 1 5 38
M  V30 43 1 12 39
M  V30 44 1 14 40
M  V30 45 1 17 41
M  V30 46 1 20 42
M  V30 47 1 21 43
M  V30 48 1 24 44
M  V30 49 1 25 45
M  V30 50 1 28 46
M  V30 51 1 31 47
M  V30 END BOND
M  V30 END CTAB
M  END
>  <Dataset>  (529) 
ChEMBL_Kinases

>  <Ligand_Instance>  (529) 
nan

>  <PDB_ID>  (529) 
nan

>  <Standardized_SMILES>  (529) 
Cc1cccc(-c2nn(C(=S)Nc3cc(F)cc(F)c3)cc2-c2ccc3ncnn3c2)n1

>  <Name>  (529) 
nan

>  <Pocket>  (529) 
nan

>  <ATP_Site>  (529) 
nan

>  <Peripheral>  (529) 
nan

>  <Num_H_Atoms_ProtBoundConf>  (529) 
nan

>  <Num_Resolved_Atoms>  (529) 
nan

>  <Num_Not_Resolved_Atoms>  (529) 
nan

$$$$
CHEMBL1835622
     RDKit          3D

  0  0  0  0  0  0  0  0  0  0999 V3000
M  V30 BEGIN CTAB
M  V30 COUNTS 47 51 0 0 0
M  V30 BEGIN ATOM
M  V30 1 C 0.689247 -4.549354 2.972289 0
M  V30 2 C 0.759179 -3.116106 3.375737 0
M  V30 3 C 1.025425 -2.769221 4.687866 0
M  V30 4 C 1.100089 -1.432906 5.100360 0
M  V30 5 C 0.888448 -0.476324 4.102051 0
M  V30 6 C 0.625820 -0.854735 2.807249 0
M  V30 7 C 0.420275 0.212686 1.835948 0
M  V30 8 N 1.236443 1.184563 1.394013 0
M  V30 9 N 0.627523 1.948676 0.494184 0
M  V30 10 C 1.202673 3.081455 -0.188688 0
M  V30 11 S 0.671017 4.364731 0.629416 0
M  V30 12 N 1.939165 2.556188 -1.220792 0
M  V30 13 C 2.673831 2.032481 -2.250314 0
M  V30 14 C 2.519266 0.639458 -2.149328 0
M  V30 15 C 3.147163 -0.224395 -3.058605 0
M  V30 16 C 3.900144 0.461480 -4.017262 0
M  V30 17 F 4.552652 -0.267980 -4.950225 0
M  V30 18 C 4.073363 1.814025 -4.147023 0
M  V30 19 F 4.814126 2.381910 -5.098625 0
M  V30 20 C 3.436444 2.607534 -3.230850 0
M  V30 21 C -0.633281 1.441320 0.356726 0
M  V30 22 C -0.801472 0.347144 1.185853 0
M  V30 23 C -2.028167 -0.449405 1.296478 0
M  V30 24 C -2.525947 -1.056066 0.160005 0
M  V30 25 C -3.667378 -1.821867 0.174834 0
M  V30 26 C -4.308962 -1.966287 1.383258 0
M  V30 27 N -5.423398 -2.639968 1.710082 0
M  V30 28 C -5.637626 -2.466160 3.044748 0
M  V30 29 N -4.621239 -1.679491 3.469522 0
M  V30 30 N -3.813295 -1.370698 2.479291 0
M  V30 31 C -2.701623 -0.613413 2.512284 0
M  V30 32 N 0.558344 -2.150920 2.431279 0
M  V30 33 H 0.343341 -5.134393 3.839709 0
M  V30 34 H -0.068315 -4.607366 2.149195 0
M  V30 35 H 1.692566 -4.879783 2.632522 0
M  V30 36 H 1.184277 -3.557989 5.439344 0
M  V30 37 H 1.307692 -1.147235 6.122049 0
M  V30 38 H 0.951458 0.553424 4.450937 0
M  V30 39 H 2.097952 3.600815 -1.351599 0
M  V30 40 H 1.952092 0.032280 -1.435897 0
M  V30 41 H 3.126165 -1.300485 -3.112399 0
M  V30 42 H 3.475100 3.680097 -3.200324 0
M  V30 43 H -1.404927 1.834024 -0.308660 0
M  V30 44 H -1.992619 -0.922776 -0.784325 0
M  V30 45 H -4.047006 -2.296806 -0.743098 0
M  V30 46 H -6.407880 -2.822402 3.731159 0
M  V30 47 H -2.318054 -0.144031 3.401223 0
M  V30 END ATOM
M  V30 BEGIN BOND
M  V30 1 1 1 2
M  V30 2 2 2 3
M  V30 3 1 3 4
M  V30 4 2 4 5
M  V30 5 1 5 6
M  V30 6 1 6 7
M  V30 7 2 7 8
M  V30 8 1 8 9
M  V30 9 1 9 10
M  V30 10 2 10 11
M  V30 11 1 10 12
M  V30 12 1 12 13
M  V30 13 2 13 14
M  V30 14 1 14 15
M  V30 15 2 15 16
M  V30 16 1 16 17
M  V30 17 1 16 18
M  V30 18 1 18 19
M  V30 19 2 18 20
M  V30 20 1 9 21
M  V30 21 2 21 22
M  V30 22 1 22 23
M  V30 23 1 23 24
M  V30 24 2 24 25
M  V30 25 1 25 26
M  V30 26 2 26 27
M  V30 27 1 27 28
M  V30 28 2 28 29
M  V30 29 1 29 30
M  V30 30 1 30 31
M  V30 31 2 6 32
M  V30 32 1 32 2
M  V30 33 1 22 7
M  V30 34 2 31 23
M  V30 35 1 20 13
M  V30 36 1 30 26
M  V30 37 1 1 33
M  V30 38 1 1 34
M  V30 39 1 1 35
M  V30 40 1 3 36
M  V30 41 1 4 37
M  V30 42 1 5 38
M  V30 43 1 12 39
M  V30 44 1 14 40
M  V30 45 1 15 41
M  V30 46 1 20 42
M  V30 47 1 21 43
M  V30 48 1 24 44
M  V30 49 1 25 45
M  V30 50 1 28 46
M  V30 51 1 31 47
M  V30 END BOND
M  V30 END CTAB
M  END
>  <Dataset>  (530) 
ChEMBL_Kinases

>  <Ligand_Instance>  (530) 
nan

>  <PDB_ID>  (530) 
nan

>  <Standardized_SMILES>  (530) 
Cc1cccc(-c2nn(C(=S)Nc3ccc(F)c(F)c3)cc2-c2ccc3ncnn3c2)n1

>  <Name>  (530) 
nan

>  <Pocket>  (530) 
nan

>  <ATP_Site>  (530) 
nan

>  <Peripheral>  (530) 
nan

>  <Num_H_Atoms_ProtBoundConf>  (530) 
nan

>  <Num_Resolved_Atoms>  (530) 
nan

>  <Num_Not_Resolved_Atoms>  (530) 
nan

$$$$
CHEMBL1835621
     RDKit          3D

  0  0  0  0  0  0  0  0  0  0999 V3000
M  V30 BEGIN CTAB
M  V30 COUNTS 51 55 0 0 0
M  V30 BEGIN ATOM
M  V30 1 C 3.694331 -3.559391 3.832919 0
M  V30 2 C 2.810227 -3.781302 2.659271 0
M  V30 3 C 2.654083 -5.069050 2.197477 0
M  V30 4 C 1.821794 -5.210192 1.119498 0
M  V30 5 C 1.127520 -4.222823 0.447518 0
M  V30 6 C 1.358784 -2.949950 1.000952 0
M  V30 7 C 0.668135 -1.829778 0.361912 0
M  V30 8 N 1.454573 -0.962578 -0.276496 0
M  V30 9 N 0.761834 -0.009794 -0.812533 0
M  V30 10 C 1.036117 1.128105 -1.530562 0
M  V30 11 S 1.428995 0.369411 -2.984669 0
M  V30 12 N 1.322071 2.180433 -2.313993 0
M  V30 13 C 1.144492 3.260485 -1.358886 0
M  V30 14 C 2.264686 3.501360 -0.534447 0
M  V30 15 C 2.174570 4.533281 0.420835 0
M  V30 16 C 1.039786 5.292897 0.562043 0
M  V30 17 C -0.050512 5.050034 -0.248799 0
M  V30 18 C -0.003837 4.049193 -1.197644 0
M  V30 19 O -0.948457 3.633365 -2.100241 0
M  V30 20 C -2.227895 4.134993 -2.298890 0
M  V30 21 F -2.134075 5.479241 -2.655175 0
M  V30 22 F -3.081253 4.032941 -1.241671 0
M  V30 23 F -2.764628 3.420667 -3.379358 0
M  V30 24 C -0.551806 -0.201857 -0.549949 0
M  V30 25 C -0.656234 -1.371271 0.209788 0
M  V30 26 C -1.646286 -2.223583 0.855839 0
M  V30 27 C -2.712562 -2.832965 0.226042 0
M  V30 28 C -3.644163 -3.644784 0.820167 0
M  V30 29 C -3.448185 -3.837281 2.182982 0
M  V30 30 N -4.171683 -4.578768 3.084522 0
M  V30 31 C -3.559709 -4.438384 4.297315 0
M  V30 32 N -2.491731 -3.632803 4.138349 0
M  V30 33 N -2.430681 -3.271410 2.848341 0
M  V30 34 C -1.519793 -2.467357 2.225592 0
M  V30 35 N 2.167013 -2.772881 2.056103 0
M  V30 36 H 4.402822 -2.737501 3.596710 0
M  V30 37 H 3.122971 -3.291492 4.745983 0
M  V30 38 H 4.289763 -4.466399 4.063869 0
M  V30 39 H 3.146402 -5.941870 2.636568 0
M  V30 40 H 1.695295 -6.234255 0.748367 0
M  V30 41 H 0.491638 -4.447469 -0.396391 0
M  V30 42 H 1.557344 2.838573 -3.017694 0
M  V30 43 H 3.184528 2.938307 -0.595949 0
M  V30 44 H 2.975284 4.786959 1.089328 0
M  V30 45 H 0.890508 6.090982 1.261083 0
M  V30 46 H -0.990898 5.573811 -0.235889 0
M  V30 47 H -1.551864 0.230759 -0.718889 0
M  V30 48 H -2.759487 -2.607032 -0.831558 0
M  V30 49 H -4.453822 -4.087740 0.256003 0
M  V30 50 H -3.916733 -4.921767 5.217081 0
M  V30 51 H -0.721571 -2.048779 2.841887 0
M  V30 END ATOM
M  V30 BEGIN BOND
M  V30 1 1 1 2
M  V30 2 2 2 3
M  V30 3 1 3 4
M  V30 4 2 4 5
M  V30 5 1 5 6
M  V30 6 1 6 7
M  V30 7 2 7 8
M  V30 8 1 8 9
M  V30 9 1 9 10
M  V30 10 2 10 11
M  V30 11 1 10 12
M  V30 12 1 12 13
M  V30 13 2 13 14
M  V30 14 1 14 15
M  V30 15 2 15 16
M  V30 16 1 16 17
M  V30 17 2 17 18
M  V30 18 1 18 19
M  V30 19 1 19 20
M  V30 20 1 20 21
M  V30 21 1 20 22
M  V30 22 1 20 23
M  V30 23 1 9 24
M  V30 24 2 24 25
M  V30 25 1 25 26
M  V30 26 1 26 27
M  V30 27 2 27 28
M  V30 28 1 28 29
M  V30 29 2 29 30
M  V30 30 1 30 31
M  V30 31 2 31 32
M  V30 32 1 32 33
M  V30 33 1 33 34
M  V30 34 2 6 35
M  V30 35 1 35 2
M  V30 36 1 25 7
M  V30 37 2 34 26
M  V30 38 1 18 13
M  V30 39 1 33 29
M  V30 40 1 1 36
M  V30 41 1 1 37
M  V30 42 1 1 38
M  V30 43 1 3 39
M  V30 44 1 4 40
M  V30 45 1 5 41
M  V30 46 1 12 42
M  V30 47 1 14 43
M  V30 48 1 15 44
M  V30 49 1 16 45
M  V30 50 1 17 46
M  V30 51 1 24 47
M  V30 52 1 27 48
M  V30 53 1 28 49
M  V30 54 1 31 50
M  V30 55 1 34 51
M  V30 END BOND
M  V30 END CTAB
M  END
>  <Dataset>  (531) 
ChEMBL_Kinases

>  <Ligand_Instance>  (531) 
nan

>  <PDB_ID>  (531) 
nan

>  <Standardized_SMILES>  (531) 
Cc1cccc(-c2nn(C(=S)Nc3ccccc3OC(F)(F)F)cc2-c2ccc3ncnn3c2)n1

>  <Name>  (531) 
nan

>  <Pocket>  (531) 
nan

>  <ATP_Site>  (531) 
nan

>  <Peripheral>  (531) 
nan

>  <Num_H_Atoms_ProtBoundConf>  (531) 
nan

>  <Num_Resolved_Atoms>  (531) 
nan

>  <Num_Not_Resolved_Atoms>  (531) 
nan

$$$$
CHEMBL1835620
     RDKit          3D

  0  0  0  0  0  0  0  0  0  0999 V3000
M  V30 BEGIN CTAB
M  V30 COUNTS 51 55 0 0 0
M  V30 BEGIN ATOM
M  V30 1 C 1.135104 -0.522789 3.798622 0
M  V30 2 O 2.084221 -0.436343 2.812291 0
M  V30 3 C 3.419065 -0.768404 2.791011 0
M  V30 4 C 4.115266 -1.282681 3.865830 0
M  V30 5 C 5.459275 -1.573887 3.716013 0
M  V30 6 C 6.155122 -1.384464 2.523772 0
M  V30 7 C 5.485880 -0.888210 1.486162 0
M  V30 8 C 4.172211 -0.587554 1.618797 0
M  V30 9 N 3.482240 -0.078356 0.519699 0
M  V30 10 C 2.768100 0.452092 -0.631842 0
M  V30 11 S 3.350198 0.593660 -2.144109 0
M  V30 12 N 1.347873 0.948365 -0.607408 0
M  V30 13 C 0.109476 1.384963 -0.586440 0
M  V30 14 C -0.993357 0.591563 -0.445767 0
M  V30 15 C -2.286010 1.211475 -0.370423 0
M  V30 16 C -2.411009 1.614155 0.969957 0
M  V30 17 C -3.560099 2.295491 1.418269 0
M  V30 18 C -4.526216 2.530869 0.438281 0
M  V30 19 N -5.746316 3.134396 0.478145 0
M  V30 20 C -6.257045 3.083846 -0.764486 0
M  V30 21 N -5.369451 2.451810 -1.586810 0
M  V30 22 N -4.335838 2.126815 -0.813069 0
M  V30 23 C -3.270291 1.469790 -1.290732 0
M  V30 24 C -0.346945 -0.574890 -0.367242 0
M  V30 25 C -1.021672 -1.900122 -0.211997 0
M  V30 26 C -1.974501 -2.312441 0.665784 0
M  V30 27 C -2.299641 -3.660216 0.558406 0
M  V30 28 C -1.728059 -4.552165 -0.362435 0
M  V30 29 C -0.759839 -4.047969 -1.230277 0
M  V30 30 C -0.083697 -4.908862 -2.219135 0
M  V30 31 N -0.437774 -2.755532 -1.132661 0
M  V30 32 N 0.980380 -0.340838 -0.460371 0
M  V30 33 H 1.418541 -1.236190 4.629216 0
M  V30 34 H 0.907359 0.508302 4.176880 0
M  V30 35 H 0.158989 -0.956725 3.412695 0
M  V30 36 H 3.538531 -1.411732 4.791948 0
M  V30 37 H 5.987368 -1.973936 4.549986 0
M  V30 38 H 7.236183 -1.638185 2.453945 0
M  V30 39 H 6.003852 -0.735545 0.554716 0
M  V30 40 H 2.558838 0.253346 0.779657 0
M  V30 41 H 0.422876 2.444989 -0.723247 0
M  V30 42 H -1.727437 1.493041 1.796534 0
M  V30 43 H -3.757684 2.633229 2.445522 0
M  V30 44 H -7.190294 3.449251 -1.198519 0
M  V30 45 H -2.955960 1.099729 -2.240229 0
M  V30 46 H -2.345725 -1.556948 1.330604 0
M  V30 47 H -3.032229 -4.026186 1.225047 0
M  V30 48 H -2.039402 -5.582763 -0.361518 0
M  V30 49 H -0.452493 -5.928300 -2.141879 0
M  V30 50 H 1.020165 -4.824527 -1.959109 0
M  V30 51 H -0.160424 -4.451123 -3.233424 0
M  V30 END ATOM
M  V30 BEGIN BOND
M  V30 1 1 1 2
M  V30 2 1 2 3
M  V30 3 2 3 4
M  V30 4 1 4 5
M  V30 5 2 5 6
M  V30 6 1 6 7
M  V30 7 2 7 8
M  V30 8 1 8 9
M  V30 9 1 9 10
M  V30 10 2 10 11
M  V30 11 1 10 12
M  V30 12 1 12 13
M  V30 13 2 13 14
M  V30 14 1 14 15
M  V30 15 1 15 16
M  V30 16 2 16 17
M  V30 17 1 17 18
M  V30 18 2 18 19
M  V30 19 1 19 20
M  V30 20 2 20 21
M  V30 21 1 21 22
M  V30 22 1 22 23
M  V30 23 1 14 24
M  V30 24 1 24 25
M  V30 25 2 25 26
M  V30 26 1 26 27
M  V30 27 2 27 28
M  V30 28 1 28 29
M  V30 29 1 29 30
M  V30 30 2 29 31
M  V30 31 2 24 32
M  V30 32 1 8 3
M  V30 33 1 32 12
M  V30 34 2 23 15
M  V30 35 1 31 25
M  V30 36 1 22 18
M  V30 37 1 1 33
M  V30 38 1 1 34
M  V30 39 1 1 35
M  V30 40 1 4 36
M  V30 41 1 5 37
M  V30 42 1 6 38
M  V30 43 1 7 39
M  V30 44 1 9 40
M  V30 45 1 13 41
M  V30 46 1 16 42
M  V30 47 1 17 43
M  V30 48 1 20 44
M  V30 49 1 23 45
M  V30 50 1 26 46
M  V30 51 1 27 47
M  V30 52 1 28 48
M  V30 53 1 30 49
M  V30 54 1 30 50
M  V30 55 1 30 51
M  V30 END BOND
M  V30 END CTAB
M  END
>  <Dataset>  (532) 
ChEMBL_Kinases

>  <Ligand_Instance>  (532) 
nan

>  <PDB_ID>  (532) 
nan

>  <Standardized_SMILES>  (532) 
COc1ccccc1NC(=S)n1cc(-c2ccc3ncnn3c2)c(-c2cccc(C)n2)n1

>  <Name>  (532) 
nan

>  <Pocket>  (532) 
nan

>  <ATP_Site>  (532) 
nan

>  <Peripheral>  (532) 
nan

>  <Num_H_Atoms_ProtBoundConf>  (532) 
nan

>  <Num_Resolved_Atoms>  (532) 
nan

>  <Num_Not_Resolved_Atoms>  (532) 
nan

$$$$
CHEMBL1835536
     RDKit          3D

  0  0  0  0  0  0  0  0  0  0999 V3000
M  V30 BEGIN CTAB
M  V30 COUNTS 50 54 0 0 0
M  V30 BEGIN ATOM
M  V30 1 C 1.367555 -2.969475 4.654770 0
M  V30 2 C 1.583019 -3.069834 3.182934 0
M  V30 3 C 2.165810 -4.247737 2.751840 0
M  V30 4 C 2.391660 -4.396542 1.399328 0
M  V30 5 C 2.057331 -3.419090 0.487735 0
M  V30 6 C 1.480431 -2.266300 0.966541 0
M  V30 7 C 1.013373 -1.054131 0.269852 0
M  V30 8 N 1.363757 0.232477 0.263240 0
M  V30 9 N 0.588927 0.913936 -0.564643 0
M  V30 10 C 0.872930 2.234276 -0.589104 0
M  V30 11 S 1.302150 2.505345 -2.171221 0
M  V30 12 N 1.161915 3.577595 -0.614156 0
M  V30 13 C 0.850140 3.668781 0.783377 0
M  V30 14 C 1.757193 3.450091 1.809766 0
M  V30 15 C 1.633636 3.495005 3.178620 0
M  V30 16 C 0.332780 3.827215 3.576664 0
M  V30 17 C -0.693141 4.077382 2.692069 0
M  V30 18 C -0.409636 3.992546 1.323902 0
M  V30 19 C -1.489753 4.261038 0.305579 0
M  V30 20 C -0.330765 0.159320 -1.176350 0
M  V30 21 C -0.035411 -1.091365 -0.623237 0
M  V30 22 C -0.849413 -2.245403 -1.051637 0
M  V30 23 C -1.620167 -2.919514 -0.131545 0
M  V30 24 C -2.415720 -4.002995 -0.392223 0
M  V30 25 C -2.419825 -4.428136 -1.705722 0
M  V30 26 N -3.062138 -5.445022 -2.351841 0
M  V30 27 C -2.712811 -5.416915 -3.631856 0
M  V30 28 N -1.853121 -4.396996 -3.826558 0
M  V30 29 N -1.673641 -3.793973 -2.654316 0
M  V30 30 C -0.894620 -2.722743 -2.366473 0
M  V30 31 N 1.252995 -2.110362 2.303387 0
M  V30 32 H 1.282843 -1.908649 4.990689 0
M  V30 33 H 0.432135 -3.502379 4.917767 0
M  V30 34 H 2.268197 -3.362608 5.151917 0
M  V30 35 H 2.448738 -5.048021 3.421448 0
M  V30 36 H 2.845567 -5.281269 0.937985 0
M  V30 37 H 2.162739 -3.372244 -0.574206 0
M  V30 38 H 1.354402 4.552517 -0.558557 0
M  V30 39 H 2.768426 3.189585 1.467279 0
M  V30 40 H 2.450633 3.295472 3.841690 0
M  V30 41 H 0.128939 3.888471 4.634802 0
M  V30 42 H -1.689655 4.332151 2.985700 0
M  V30 43 H -2.352458 4.771709 0.777653 0
M  V30 44 H -1.070739 4.980917 -0.438492 0
M  V30 45 H -1.783481 3.369971 -0.252841 0
M  V30 46 H -1.059951 0.511000 -1.886537 0
M  V30 47 H -1.605971 -2.570613 0.896335 0
M  V30 48 H -3.033967 -4.565207 0.280936 0
M  V30 49 H -3.052736 -6.102794 -4.423389 0
M  V30 50 H -0.307575 -2.217923 -3.099640 0
M  V30 END ATOM
M  V30 BEGIN BOND
M  V30 1 1 1 2
M  V30 2 2 2 3
M  V30 3 1 3 4
M  V30 4 2 4 5
M  V30 5 1 5 6
M  V30 6 1 6 7
M  V30 7 2 7 8
M  V30 8 1 8 9
M  V30 9 1 9 10
M  V30 10 2 10 11
M  V30 11 1 10 12
M  V30 12 1 12 13
M  V30 13 2 13 14
M  V30 14 1 14 15
M  V30 15 2 15 16
M  V30 16 1 16 17
M  V30 17 2 17 18
M  V30 18 1 18 19
M  V30 19 1 9 20
M  V30 20 2 20 21
M  V30 21 1 21 22
M  V30 22 1 22 23
M  V30 23 2 23 24
M  V30 24 1 24 25
M  V30 25 2 25 26
M  V30 26 1 26 27
M  V30 27 2 27 28
M  V30 28 1 28 29
M  V30 29 1 29 30
M  V30 30 2 6 31
M  V30 31 1 31 2
M  V30 32 1 21 7
M  V30 33 2 30 22
M  V30 34 1 18 13
M  V30 35 1 29 25
M  V30 36 1 1 32
M  V30 37 1 1 33
M  V30 38 1 1 34
M  V30 39 1 3 35
M  V30 40 1 4 36
M  V30 41 1 5 37
M  V30 42 1 12 38
M  V30 43 1 14 39
M  V30 44 1 15 40
M  V30 45 1 16 41
M  V30 46 1 17 42
M  V30 47 1 19 43
M  V30 48 1 19 44
M  V30 49 1 19 45
M  V30 50 1 20 46
M  V30 51 1 23 47
M  V30 52 1 24 48
M  V30 53 1 27 49
M  V30 54 1 30 50
M  V30 END BOND
M  V30 END CTAB
M  END
>  <Dataset>  (533) 
ChEMBL_Kinases

>  <Ligand_Instance>  (533) 
nan

>  <PDB_ID>  (533) 
nan

>  <Standardized_SMILES>  (533) 
Cc1cccc(-c2nn(C(=S)Nc3ccccc3C)cc2-c2ccc3ncnn3c2)n1

>  <Name>  (533) 
nan

>  <Pocket>  (533) 
nan

>  <ATP_Site>  (533) 
nan

>  <Peripheral>  (533) 
nan

>  <Num_H_Atoms_ProtBoundConf>  (533) 
nan

>  <Num_Resolved_Atoms>  (533) 
nan

>  <Num_Not_Resolved_Atoms>  (533) 
nan

$$$$
CHEMBL1835535
     RDKit          3D

  0  0  0  0  0  0  0  0  0  0999 V3000
M  V30 BEGIN CTAB
M  V30 COUNTS 47 51 0 0 0
M  V30 BEGIN ATOM
M  V30 1 C -1.451215 -4.109228 4.111403 0
M  V30 2 C -0.939868 -3.973368 2.721776 0
M  V30 3 C -0.758508 -5.069274 1.870878 0
M  V30 4 C -0.287536 -4.869502 0.598965 0
M  V30 5 C 0.011851 -3.614161 0.134969 0
M  V30 6 C -0.175097 -2.548886 0.992227 0
M  V30 7 C 0.145715 -1.213698 0.501757 0
M  V30 8 N 1.292847 -0.495839 0.579843 0
M  V30 9 N 1.148408 0.688861 -0.007356 0
M  V30 10 C 2.409449 1.380580 0.121602 0
M  V30 11 S 3.677618 1.448271 -0.907951 0
M  V30 12 N 2.548157 2.116451 1.357122 0
M  V30 13 C 3.694845 2.850473 1.689158 0
M  V30 14 C 4.496128 2.048072 2.512147 0
M  V30 15 C 5.730660 2.484340 3.007211 0
M  V30 16 C 6.183860 3.755116 2.675578 0
M  V30 17 C 5.395774 4.539306 1.868580 0
M  V30 18 C 4.186507 4.097561 1.390851 0
M  V30 19 Cl 3.055254 4.968653 0.349617 0
M  V30 20 C -0.089501 0.806628 -0.495089 0
M  V30 21 C -0.724296 -0.373432 -0.184158 0
M  V30 22 C -2.108565 -0.596613 -0.579588 0
M  V30 23 C -2.194171 -1.608163 -1.547196 0
M  V30 24 C -3.376853 -2.028165 -2.093790 0
M  V30 25 C -4.542799 -1.398107 -1.644189 0
M  V30 26 N -5.836361 -1.549852 -1.949751 0
M  V30 27 C -6.563709 -0.664563 -1.202949 0
M  V30 28 N -5.643489 0.006166 -0.453033 0
M  V30 29 N -4.419462 -0.435772 -0.718440 0
M  V30 30 C -3.273936 -0.004455 -0.166863 0
M  V30 31 N -0.639852 -2.724497 2.254034 0
M  V30 32 H -1.207310 -5.079888 4.549174 0
M  V30 33 H -2.562125 -4.070947 4.048154 0
M  V30 34 H -1.124794 -3.270537 4.729232 0
M  V30 35 H -1.010931 -6.032056 2.291484 0
M  V30 36 H -0.167103 -5.760556 -0.015699 0
M  V30 37 H 0.385718 -3.503710 -0.893273 0
M  V30 38 H 1.821949 2.168707 2.102895 0
M  V30 39 H 4.317040 1.031423 2.882070 0
M  V30 40 H 6.401351 1.934946 3.638967 0
M  V30 41 H 7.105584 4.225816 2.978196 0
M  V30 42 H 5.572151 5.549683 1.499600 0
M  V30 43 H -0.293890 1.738397 -0.989371 0
M  V30 44 H -1.342552 -2.165444 -1.969545 0
M  V30 45 H -3.492657 -2.795028 -2.832251 0
M  V30 46 H -7.638661 -0.573676 -1.249770 0
M  V30 47 H -3.125537 0.745693 0.564373 0
M  V30 END ATOM
M  V30 BEGIN BOND
M  V30 1 1 1 2
M  V30 2 2 2 3
M  V30 3 1 3 4
M  V30 4 2 4 5
M  V30 5 1 5 6
M  V30 6 1 6 7
M  V30 7 2 7 8
M  V30 8 1 8 9
M  V30 9 1 9 10
M  V30 10 2 10 11
M  V30 11 1 10 12
M  V30 12 1 12 13
M  V30 13 2 13 14
M  V30 14 1 14 15
M  V30 15 2 15 16
M  V30 16 1 16 17
M  V30 17 2 17 18
M  V30 18 1 18 19
M  V30 19 1 9 20
M  V30 20 2 20 21
M  V30 21 1 21 22
M  V30 22 1 22 23
M  V30 23 2 23 24
M  V30 24 1 24 25
M  V30 25 2 25 26
M  V30 26 1 26 27
M  V30 27 2 27 28
M  V30 28 1 28 29
M  V30 29 1 29 30
M  V30 30 2 6 31
M  V30 31 1 31 2
M  V30 32 1 21 7
M  V30 33 2 30 22
M  V30 34 1 18 13
M  V30 35 1 29 25
M  V30 36 1 1 32
M  V30 37 1 1 33
M  V30 38 1 1 34
M  V30 39 1 3 35
M  V30 40 1 4 36
M  V30 41 1 5 37
M  V30 42 1 12 38
M  V30 43 1 14 39
M  V30 44 1 15 40
M  V30 45 1 16 41
M  V30 46 1 17 42
M  V30 47 1 20 43
M  V30 48 1 23 44
M  V30 49 1 24 45
M  V30 50 1 27 46
M  V30 51 1 30 47
M  V30 END BOND
M  V30 END CTAB
M  END
>  <Dataset>  (534) 
ChEMBL_Kinases

>  <Ligand_Instance>  (534) 
nan

>  <PDB_ID>  (534) 
nan

>  <Standardized_SMILES>  (534) 
Cc1cccc(-c2nn(C(=S)Nc3ccccc3Cl)cc2-c2ccc3ncnn3c2)n1

>  <Name>  (534) 
nan

>  <Pocket>  (534) 
nan

>  <ATP_Site>  (534) 
nan

>  <Peripheral>  (534) 
nan

>  <Num_H_Atoms_ProtBoundConf>  (534) 
nan

>  <Num_Resolved_Atoms>  (534) 
nan

>  <Num_Not_Resolved_Atoms>  (534) 
nan

$$$$
CHEMBL1835534
     RDKit          3D

  0  0  0  0  0  0  0  0  0  0999 V3000
M  V30 BEGIN CTAB
M  V30 COUNTS 47 51 0 0 0
M  V30 BEGIN ATOM
M  V30 1 C -0.348658 -4.053779 -3.470395 0
M  V30 2 C -0.227890 -3.800840 -1.988147 0
M  V30 3 C -0.288922 -4.876463 -1.154432 0
M  V30 4 C -0.171711 -4.562104 0.179778 0
M  V30 5 C -0.007160 -3.277446 0.643018 0
M  V30 6 C 0.047699 -2.226609 -0.245205 0
M  V30 7 C 0.208690 -0.791644 -0.015868 0
M  V30 8 N 1.195497 0.063915 -0.321115 0
M  V30 9 N 0.855761 1.268153 0.103669 0
M  V30 10 C 1.798806 2.246199 -0.098132 0
M  V30 11 S 1.292002 2.950552 -1.534983 0
M  V30 12 N 2.711341 3.235575 -0.348341 0
M  V30 13 C 3.390629 2.876504 0.867964 0
M  V30 14 C 3.138686 3.415180 2.132808 0
M  V30 15 C 3.754783 3.115442 3.337091 0
M  V30 16 C 4.735005 2.164008 3.251328 0
M  V30 17 C 5.121187 1.523631 2.096111 0
M  V30 18 C 4.412515 1.928266 0.962097 0
M  V30 19 F 4.766292 1.313874 -0.212078 0
M  V30 20 C -0.339876 1.338915 0.707918 0
M  V30 21 C -0.741500 0.012488 0.624550 0
M  V30 22 C -2.057738 -0.336940 1.210902 0
M  V30 23 C -3.273250 0.051435 0.633933 0
M  V30 24 C -4.411335 -0.331051 1.288152 0
M  V30 25 C -4.451712 -1.055019 2.448349 0
M  V30 26 N -5.450852 -1.523869 3.235822 0
M  V30 27 C -4.868554 -2.184556 4.272374 0
M  V30 28 N -3.537981 -2.108933 4.101912 0
M  V30 29 N -3.255181 -1.417541 2.984579 0
M  V30 30 C -2.094311 -1.064159 2.376384 0
M  V30 31 N -0.065687 -2.512259 -1.570994 0
M  V30 32 H -0.284794 -5.117796 -3.688887 0
M  V30 33 H 0.489359 -3.492376 -3.916128 0
M  V30 34 H -1.330146 -3.589730 -3.777115 0
M  V30 35 H -0.417143 -5.893676 -1.490862 0
M  V30 36 H -0.203437 -5.335680 0.961223 0
M  V30 37 H 0.094443 -2.953186 1.666966 0
M  V30 38 H 3.421390 3.916191 -0.428462 0
M  V30 39 H 2.346577 4.175064 2.167471 0
M  V30 40 H 3.437530 3.628155 4.228524 0
M  V30 41 H 5.256451 1.882844 4.157689 0
M  V30 42 H 5.876860 0.785592 2.010457 0
M  V30 43 H -0.806585 2.206051 1.122978 0
M  V30 44 H -3.227182 0.622242 -0.282481 0
M  V30 45 H -5.364337 -0.043077 0.862615 0
M  V30 46 H -5.305553 -2.711585 5.132647 0
M  V30 47 H -1.229921 -1.404225 2.895912 0
M  V30 END ATOM
M  V30 BEGIN BOND
M  V30 1 1 1 2
M  V30 2 2 2 3
M  V30 3 1 3 4
M  V30 4 2 4 5
M  V30 5 1 5 6
M  V30 6 1 6 7
M  V30 7 2 7 8
M  V30 8 1 8 9
M  V30 9 1 9 10
M  V30 10 2 10 11
M  V30 11 1 10 12
M  V30 12 1 12 13
M  V30 13 2 13 14
M  V30 14 1 14 15
M  V30 15 2 15 16
M  V30 16 1 16 17
M  V30 17 2 17 18
M  V30 18 1 18 19
M  V30 19 1 9 20
M  V30 20 2 20 21
M  V30 21 1 21 22
M  V30 22 1 22 23
M  V30 23 2 23 24
M  V30 24 1 24 25
M  V30 25 2 25 26
M  V30 26 1 26 27
M  V30 27 2 27 28
M  V30 28 1 28 29
M  V30 29 1 29 30
M  V30 30 2 6 31
M  V30 31 1 31 2
M  V30 32 1 21 7
M  V30 33 2 30 22
M  V30 34 1 18 13
M  V30 35 1 29 25
M  V30 36 1 1 32
M  V30 37 1 1 33
M  V30 38 1 1 34
M  V30 39 1 3 35
M  V30 40 1 4 36
M  V30 41 1 5 37
M  V30 42 1 12 38
M  V30 43 1 14 39
M  V30 44 1 15 40
M  V30 45 1 16 41
M  V30 46 1 17 42
M  V30 47 1 20 43
M  V30 48 1 23 44
M  V30 49 1 24 45
M  V30 50 1 27 46
M  V30 51 1 30 47
M  V30 END BOND
M  V30 END CTAB
M  END
>  <Dataset>  (535) 
ChEMBL_Kinases

>  <Ligand_Instance>  (535) 
nan

>  <PDB_ID>  (535) 
nan

>  <Standardized_SMILES>  (535) 
Cc1cccc(-c2nn(C(=S)Nc3ccccc3F)cc2-c2ccc3ncnn3c2)n1

>  <Name>  (535) 
nan

>  <Pocket>  (535) 
nan

>  <ATP_Site>  (535) 
nan

>  <Peripheral>  (535) 
nan

>  <Num_H_Atoms_ProtBoundConf>  (535) 
nan

>  <Num_Resolved_Atoms>  (535) 
nan

>  <Num_Not_Resolved_Atoms>  (535) 
nan

$$$$
CHEMBL1835533
     RDKit          3D

  0  0  0  0  0  0  0  0  0  0999 V3000
M  V30 BEGIN CTAB
M  V30 COUNTS 51 55 0 0 0
M  V30 BEGIN ATOM
M  V30 1 C 0.122896 -5.837652 2.977924 0
M  V30 2 C -1.021416 -5.114652 2.334692 0
M  V30 3 C -2.193109 -5.839295 2.121703 0
M  V30 4 C -3.230977 -5.165835 1.530584 0
M  V30 5 C -3.224948 -3.864126 1.132845 0
M  V30 6 C -1.996289 -3.203057 1.385549 0
M  V30 7 C -1.579140 -1.833348 1.113386 0
M  V30 8 N -1.294371 -0.803671 1.928746 0
M  V30 9 N -0.943348 0.240952 1.173273 0
M  V30 10 C -0.531904 1.549538 1.648320 0
M  V30 11 S -1.359962 2.808735 2.244596 0
M  V30 12 N 0.861509 1.648082 1.528353 0
M  V30 13 C 1.707385 2.752557 1.880733 0
M  V30 14 C 2.227570 2.665687 3.147952 0
M  V30 15 C 3.058731 3.671663 3.570702 0
M  V30 16 C 3.302001 4.695816 2.674946 0
M  V30 17 C 4.160175 5.813867 2.936171 0
M  V30 18 N 4.816976 5.776296 4.187361 0
M  V30 19 O 4.819221 6.874498 2.898138 0
M  V30 20 C 2.752513 4.736589 1.411164 0
M  V30 21 C 1.910358 3.740427 0.949477 0
M  V30 22 C -1.004777 -0.110574 -0.149519 0
M  V30 23 C -1.418707 -1.457121 -0.185003 0
M  V30 24 C -1.534953 -1.945570 -1.544195 0
M  V30 25 C -2.806617 -1.955582 -2.074001 0
M  V30 26 C -2.965281 -2.388686 -3.369663 0
M  V30 27 C -1.893147 -2.824689 -4.182629 0
M  V30 28 N -1.639420 -3.288963 -5.405532 0
M  V30 29 C -0.314760 -3.532057 -5.566053 0
M  V30 30 N 0.288657 -3.206023 -4.390557 0
M  V30 31 N -0.677213 -2.776113 -3.554118 0
M  V30 32 C -0.452022 -2.364696 -2.298531 0
M  V30 33 N -0.930906 -3.829869 1.973396 0
M  V30 34 H 1.026820 -5.718522 2.336344 0
M  V30 35 H 0.310909 -5.494949 4.018985 0
M  V30 36 H -0.108410 -6.915083 3.032235 0
M  V30 37 H -2.389910 -6.865650 2.361703 0
M  V30 38 H -4.239764 -5.525694 1.262403 0
M  V30 39 H -3.773600 -3.072327 0.694905 0
M  V30 40 H 1.585377 0.967088 1.162315 0
M  V30 41 H 2.077896 1.902234 3.886840 0
M  V30 42 H 3.551787 3.770894 4.525649 0
M  V30 43 H 5.337789 5.679950 5.095578 0
M  V30 44 H 5.488362 5.078842 4.603135 0
M  V30 45 H 2.949315 5.544926 0.713099 0
M  V30 46 H 1.423037 3.649039 0.008559 0
M  V30 47 H -0.742629 0.651422 -0.915514 0
M  V30 48 H -3.744110 -1.675785 -1.644295 0
M  V30 49 H -3.827306 -2.503493 -4.056543 0
M  V30 50 H -0.177403 -3.903180 -6.569329 0
M  V30 51 H 0.484815 -2.329549 -1.821619 0
M  V30 END ATOM
M  V30 BEGIN BOND
M  V30 1 1 1 2
M  V30 2 2 2 3
M  V30 3 1 3 4
M  V30 4 2 4 5
M  V30 5 1 5 6
M  V30 6 1 6 7
M  V30 7 2 7 8
M  V30 8 1 8 9
M  V30 9 1 9 10
M  V30 10 2 10 11
M  V30 11 1 10 12
M  V30 12 1 12 13
M  V30 13 2 13 14
M  V30 14 1 14 15
M  V30 15 2 15 16
M  V30 16 1 16 17
M  V30 17 1 17 18
M  V30 18 2 17 19
M  V30 19 1 16 20
M  V30 20 2 20 21
M  V30 21 1 9 22
M  V30 22 2 22 23
M  V30 23 1 23 24
M  V30 24 1 24 25
M  V30 25 2 25 26
M  V30 26 1 26 27
M  V30 27 2 27 28
M  V30 28 1 28 29
M  V30 29 2 29 30
M  V30 30 1 30 31
M  V30 31 1 31 32
M  V30 32 2 6 33
M  V30 33 1 33 2
M  V30 34 1 23 7
M  V30 35 2 32 24
M  V30 36 1 21 13
M  V30 37 1 31 27
M  V30 38 1 1 34
M  V30 39 1 1 35
M  V30 40 1 1 36
M  V30 41 1 3 37
M  V30 42 1 4 38
M  V30 43 1 5 39
M  V30 44 1 12 40
M  V30 45 1 14 41
M  V30 46 1 15 42
M  V30 47 1 18 43
M  V30 48 1 18 44
M  V30 49 1 20 45
M  V30 50 1 21 46
M  V30 51 1 22 47
M  V30 52 1 25 48
M  V30 53 1 26 49
M  V30 54 1 29 50
M  V30 55 1 32 51
M  V30 END BOND
M  V30 END CTAB
M  END
>  <Dataset>  (536) 
ChEMBL_Kinases

>  <Ligand_Instance>  (536) 
nan

>  <PDB_ID>  (536) 
nan

>  <Standardized_SMILES>  (536) 
Cc1cccc(-c2nn(C(=S)Nc3ccc(C(N)=O)cc3)cc2-c2ccc3ncnn3c2)n1

>  <Name>  (536) 
nan

>  <Pocket>  (536) 
nan

>  <ATP_Site>  (536) 
nan

>  <Peripheral>  (536) 
nan

>  <Num_H_Atoms_ProtBoundConf>  (536) 
nan

>  <Num_Resolved_Atoms>  (536) 
nan

>  <Num_Not_Resolved_Atoms>  (536) 
nan

$$$$
CHEMBL1835532
     RDKit          3D

  0  0  0  0  0  0  0  0  0  0999 V3000
M  V30 BEGIN CTAB
M  V30 COUNTS 48 52 0 0 0
M  V30 BEGIN ATOM
M  V30 1 C -5.535839 -1.397609 2.025737 0
M  V30 2 C -4.133662 -1.855388 2.284514 0
M  V30 3 C -4.039590 -3.065651 3.001347 0
M  V30 4 C -2.863610 -3.686660 3.359606 0
M  V30 5 C -1.682565 -3.050358 2.972217 0
M  V30 6 C -1.822833 -1.878194 2.278564 0
M  V30 7 C -0.572662 -1.215205 1.872004 0
M  V30 8 N 0.179543 -0.824242 2.892825 0
M  V30 9 N 1.288182 -0.250544 2.431023 0
M  V30 10 C 2.510406 0.383190 2.552178 0
M  V30 11 S 2.735504 -0.449391 4.005419 0
M  V30 12 N 3.691807 0.657477 3.204056 0
M  V30 13 C 4.020076 1.542233 2.091049 0
M  V30 14 C 4.676380 1.170681 0.956105 0
M  V30 15 C 5.010161 1.993320 -0.135449 0
M  V30 16 C 4.620758 3.310963 -0.023530 0
M  V30 17 C 4.932561 4.168588 -1.127313 0
M  V30 18 N 5.202591 4.857811 -2.026285 0
M  V30 19 C 3.939915 3.851700 1.078172 0
M  V30 20 C 3.685729 2.897508 2.075288 0
M  V30 21 C 1.210702 -0.294231 1.041230 0
M  V30 22 C 0.006178 -0.916371 0.670190 0
M  V30 23 C -0.687133 -1.264843 -0.601454 0
M  V30 24 C -0.971422 -0.141759 -1.343564 0
M  V30 25 C -1.618265 -0.401256 -2.570516 0
M  V30 26 C -1.888990 -1.724227 -2.884703 0
M  V30 27 N -2.502965 -2.166796 -4.021678 0
M  V30 28 C -2.546080 -3.532614 -3.881587 0
M  V30 29 N -1.985995 -3.885411 -2.720925 0
M  V30 30 N -1.561815 -2.775551 -2.069390 0
M  V30 31 C -0.939158 -2.589030 -0.878114 0
M  V30 32 N -2.964649 -1.245781 1.915764 0
M  V30 33 H -6.181152 -2.285962 1.942017 0
M  V30 34 H -5.880632 -0.712546 2.831850 0
M  V30 35 H -5.544012 -0.851980 1.066910 0
M  V30 36 H -4.930357 -3.609375 3.336538 0
M  V30 37 H -2.816188 -4.601008 3.900804 0
M  V30 38 H -0.737127 -3.479737 3.223683 0
M  V30 39 H 4.578612 0.943141 3.565720 0
M  V30 40 H 4.993177 0.126203 0.853064 0
M  V30 41 H 5.535376 1.569908 -0.978822 0
M  V30 42 H 3.635124 4.864063 1.180995 0
M  V30 43 H 3.159194 3.304577 2.939807 0
M  V30 44 H 1.708888 -0.039204 0.078688 0
M  V30 45 H -0.748584 0.869618 -1.065864 0
M  V30 46 H -1.889572 0.405941 -3.237117 0
M  V30 47 H -2.848465 -4.488082 -4.321090 0
M  V30 48 H -0.683513 -3.405129 -0.245239 0
M  V30 END ATOM
M  V30 BEGIN BOND
M  V30 1 1 1 2
M  V30 2 2 2 3
M  V30 3 1 3 4
M  V30 4 2 4 5
M  V30 5 1 5 6
M  V30 6 1 6 7
M  V30 7 2 7 8
M  V30 8 1 8 9
M  V30 9 1 9 10
M  V30 10 2 10 11
M  V30 11 1 10 12
M  V30 12 1 12 13
M  V30 13 2 13 14
M  V30 14 1 14 15
M  V30 15 2 15 16
M  V30 16 1 16 17
M  V30 17 3 17 18
M  V30 18 1 16 19
M  V30 19 2 19 20
M  V30 20 1 9 21
M  V30 21 2 21 22
M  V30 22 1 22 23
M  V30 23 1 23 24
M  V30 24 2 24 25
M  V30 25 1 25 26
M  V30 26 2 26 27
M  V30 27 1 27 28
M  V30 28 2 28 29
M  V30 29 1 29 30
M  V30 30 1 30 31
M  V30 31 2 6 32
M  V30 32 1 32 2
M  V30 33 1 22 7
M  V30 34 2 31 23
M  V30 35 1 20 13
M  V30 36 1 30 26
M  V30 37 1 1 33
M  V30 38 1 1 34
M  V30 39 1 1 35
M  V30 40 1 3 36
M  V30 41 1 4 37
M  V30 42 1 5 38
M  V30 43 1 12 39
M  V30 44 1 14 40
M  V30 45 1 15 41
M  V30 46 1 19 42
M  V30 47 1 20 43
M  V30 48 1 21 44
M  V30 49 1 24 45
M  V30 50 1 25 46
M  V30 51 1 28 47
M  V30 52 1 31 48
M  V30 END BOND
M  V30 END CTAB
M  END
>  <Dataset>  (537) 
ChEMBL_Kinases

>  <Ligand_Instance>  (537) 
nan

>  <PDB_ID>  (537) 
nan

>  <Standardized_SMILES>  (537) 
Cc1cccc(-c2nn(C(=S)Nc3ccc(C#N)cc3)cc2-c2ccc3ncnn3c2)n1

>  <Name>  (537) 
nan

>  <Pocket>  (537) 
nan

>  <ATP_Site>  (537) 
nan

>  <Peripheral>  (537) 
nan

>  <Num_H_Atoms_ProtBoundConf>  (537) 
nan

>  <Num_Resolved_Atoms>  (537) 
nan

>  <Num_Not_Resolved_Atoms>  (537) 
nan

$$$$
CHEMBL1835531
     RDKit          3D

  0  0  0  0  0  0  0  0  0  0999 V3000
M  V30 BEGIN CTAB
M  V30 COUNTS 51 55 0 0 0
M  V30 BEGIN ATOM
M  V30 1 C -0.723615 -3.822377 5.152727 0
M  V30 2 C 0.316889 -3.744562 4.097324 0
M  V30 3 C 1.325805 -4.694719 4.007397 0
M  V30 4 C 2.301188 -4.612550 3.012518 0
M  V30 5 C 2.200820 -3.538090 2.132556 0
M  V30 6 C 1.178978 -2.589153 2.236386 0
M  V30 7 C 1.312217 -1.577022 1.199220 0
M  V30 8 N 2.027208 -0.456650 1.373592 0
M  V30 9 N 1.986472 0.272387 0.274331 0
M  V30 10 C 2.570680 1.459833 0.133898 0
M  V30 11 S 4.205310 1.119305 -0.017726 0
M  V30 12 N 3.182516 2.703080 -0.013153 0
M  V30 13 C 1.890909 3.323287 0.079823 0
M  V30 14 C 1.260098 3.753706 1.258711 0
M  V30 15 C 0.022753 4.358314 1.401327 0
M  V30 16 C -0.658751 4.553396 0.229191 0
M  V30 17 O -1.907911 5.152271 0.260839 0
M  V30 18 C -3.077081 4.342674 0.399249 0
M  V30 19 F -3.015693 3.629714 1.594157 0
M  V30 20 F -4.218555 5.151817 0.397795 0
M  V30 21 F -3.174029 3.417206 -0.626768 0
M  V30 22 C -0.204741 4.199980 -1.016143 0
M  V30 23 C 1.060255 3.597401 -1.019274 0
M  V30 24 C 1.253132 -0.301039 -0.696191 0
M  V30 25 C 0.824066 -1.472711 -0.111847 0
M  V30 26 C -0.027966 -2.506021 -0.691385 0
M  V30 27 C 0.303614 -3.827188 -0.860023 0
M  V30 28 C -0.598635 -4.718410 -1.427618 0
M  V30 29 C -1.817407 -4.216222 -1.803946 0
M  V30 30 N -2.901543 -4.746292 -2.362158 0
M  V30 31 C -3.872317 -3.855565 -2.549232 0
M  V30 32 N -3.388108 -2.654802 -2.080428 0
M  V30 33 N -2.139028 -2.898810 -1.632664 0
M  V30 34 C -1.273504 -1.995281 -1.077008 0
M  V30 35 N 0.271678 -2.728112 3.218062 0
M  V30 36 H -1.706704 -4.163838 4.762339 0
M  V30 37 H -0.403454 -4.613374 5.891747 0
M  V30 38 H -0.835240 -2.888132 5.715355 0
M  V30 39 H 1.378165 -5.524632 4.710243 0
M  V30 40 H 3.069333 -5.370718 2.975364 0
M  V30 41 H 3.007924 -3.563985 1.393518 0
M  V30 42 H 3.510302 3.635840 -0.109964 0
M  V30 43 H 1.839958 3.579370 2.175482 0
M  V30 44 H -0.313204 4.624644 2.388983 0
M  V30 45 H -0.714994 4.337009 -1.949976 0
M  V30 46 H 1.448860 3.304516 -1.993161 0
M  V30 47 H 1.033988 0.039516 -1.696722 0
M  V30 48 H 1.281303 -4.153332 -0.541604 0
M  V30 49 H -0.385450 -5.763236 -1.580194 0
M  V30 50 H -4.874739 -3.715049 -2.923336 0
M  V30 51 H -1.584050 -0.970099 -0.966953 0
M  V30 END ATOM
M  V30 BEGIN BOND
M  V30 1 1 1 2
M  V30 2 2 2 3
M  V30 3 1 3 4
M  V30 4 2 4 5
M  V30 5 1 5 6
M  V30 6 1 6 7
M  V30 7 2 7 8
M  V30 8 1 8 9
M  V30 9 1 9 10
M  V30 10 2 10 11
M  V30 11 1 10 12
M  V30 12 1 12 13
M  V30 13 2 13 14
M  V30 14 1 14 15
M  V30 15 2 15 16
M  V30 16 1 16 17
M  V30 17 1 17 18
M  V30 18 1 18 19
M  V30 19 1 18 20
M  V30 20 1 18 21
M  V30 21 1 16 22
M  V30 22 2 22 23
M  V30 23 1 9 24
M  V30 24 2 24 25
M  V30 25 1 25 26
M  V30 26 1 26 27
M  V30 27 2 27 28
M  V30 28 1 28 29
M  V30 29 2 29 30
M  V30 30 1 30 31
M  V30 31 2 31 32
M  V30 32 1 32 33
M  V30 33 1 33 34
M  V30 34 2 6 35
M  V30 35 1 35 2
M  V30 36 1 25 7
M  V30 37 2 34 26
M  V30 38 1 23 13
M  V30 39 1 33 29
M  V30 40 1 1 36
M  V30 41 1 1 37
M  V30 42 1 1 38
M  V30 43 1 3 39
M  V30 44 1 4 40
M  V30 45 1 5 41
M  V30 46 1 12 42
M  V30 47 1 14 43
M  V30 48 1 15 44
M  V30 49 1 22 45
M  V30 50 1 23 46
M  V30 51 1 24 47
M  V30 52 1 27 48
M  V30 53 1 28 49
M  V30 54 1 31 50
M  V30 55 1 34 51
M  V30 END BOND
M  V30 END CTAB
M  END
>  <Dataset>  (538) 
ChEMBL_Kinases

>  <Ligand_Instance>  (538) 
nan

>  <PDB_ID>  (538) 
nan

>  <Standardized_SMILES>  (538) 
Cc1cccc(-c2nn(C(=S)Nc3ccc(OC(F)(F)F)cc3)cc2-c2ccc3ncnn3c2)n1

>  <Name>  (538) 
nan

>  <Pocket>  (538) 
nan

>  <ATP_Site>  (538) 
nan

>  <Peripheral>  (538) 
nan

>  <Num_H_Atoms_ProtBoundConf>  (538) 
nan

>  <Num_Resolved_Atoms>  (538) 
nan

>  <Num_Not_Resolved_Atoms>  (538) 
nan

$$$$
CHEMBL1835530
     RDKit          3D

  0  0  0  0  0  0  0  0  0  0999 V3000
M  V30 BEGIN CTAB
M  V30 COUNTS 51 55 0 0 0
M  V30 BEGIN ATOM
M  V30 1 C 6.770297 -2.633122 5.353443 0
M  V30 2 O 6.559383 -2.964019 4.022637 0
M  V30 3 C 5.696427 -2.409147 3.117059 0
M  V30 4 C 4.912283 -1.367494 3.548350 0
M  V30 5 C 4.021682 -0.769163 2.680615 0
M  V30 6 C 3.998727 -1.301207 1.383799 0
M  V30 7 N 3.203517 -0.804533 0.342941 0
M  V30 8 C 2.499683 -0.272523 -0.737921 0
M  V30 9 S 3.332355 0.491278 -1.922391 0
M  V30 10 N 1.121217 -0.232601 -1.092389 0
M  V30 11 C 0.456114 0.404222 -0.060887 0
M  V30 12 C -0.917518 0.453964 -0.387294 0
M  V30 13 C -1.901940 1.095234 0.535940 0
M  V30 14 C -2.541195 2.301463 0.372386 0
M  V30 15 C -3.403306 2.701726 1.366939 0
M  V30 16 C -3.575403 1.881425 2.457308 0
M  V30 17 N -4.329846 2.004175 3.562065 0
M  V30 18 C -4.172544 0.948939 4.359966 0
M  V30 19 N -3.294883 0.113508 3.766329 0
M  V30 20 N -2.936606 0.690650 2.606826 0
M  V30 21 C -2.076485 0.257313 1.647999 0
M  V30 22 C -1.004899 -0.160535 -1.608737 0
M  V30 23 C -2.292479 -0.295651 -2.234717 0
M  V30 24 C -3.136023 0.700064 -2.668616 0
M  V30 25 C -4.364504 0.379370 -3.244155 0
M  V30 26 C -4.678214 -0.968569 -3.351879 0
M  V30 27 C -3.824675 -1.962613 -2.914544 0
M  V30 28 C -4.181921 -3.424037 -3.046742 0
M  V30 29 N -2.631060 -1.606251 -2.355968 0
M  V30 30 N 0.244160 -0.560066 -1.998637 0
M  V30 31 C 4.778270 -2.344397 0.939797 0
M  V30 32 C 5.668130 -2.925728 1.846420 0
M  V30 33 H 6.388204 -3.417018 6.062359 0
M  V30 34 H 7.864454 -2.595197 5.551047 0
M  V30 35 H 6.250751 -1.719362 5.620379 0
M  V30 36 H 4.844839 -0.886030 4.511012 0
M  V30 37 H 3.313563 0.054562 2.798289 0
M  V30 38 H 2.322912 -1.223597 0.785093 0
M  V30 39 H 0.779660 0.851783 0.906953 0
M  V30 40 H -2.295876 2.833162 -0.532476 0
M  V30 41 H -3.907567 3.649034 1.243439 0
M  V30 42 H -4.654008 0.781371 5.310626 0
M  V30 43 H -1.605242 -0.694458 1.826199 0
M  V30 44 H -2.789814 1.693214 -2.540133 0
M  V30 45 H -5.023345 1.162459 -3.582373 0
M  V30 46 H -5.631382 -1.288055 -3.796264 0
M  V30 47 H -4.764780 -3.699197 -2.171603 0
M  V30 48 H -3.227059 -3.981274 -3.101321 0
M  V30 49 H -4.734218 -3.537395 -4.005889 0
M  V30 50 H 4.793434 -2.782603 -0.043200 0
M  V30 51 H 6.324433 -3.749780 1.596578 0
M  V30 END ATOM
M  V30 BEGIN BOND
M  V30 1 1 1 2
M  V30 2 1 2 3
M  V30 3 2 3 4
M  V30 4 1 4 5
M  V30 5 2 5 6
M  V30 6 1 6 7
M  V30 7 1 7 8
M  V30 8 2 8 9
M  V30 9 1 8 10
M  V30 10 1 10 11
M  V30 11 2 11 12
M  V30 12 1 12 13
M  V30 13 1 13 14
M  V30 14 2 14 15
M  V30 15 1 15 16
M  V30 16 2 16 17
M  V30 17 1 17 18
M  V30 18 2 18 19
M  V30 19 1 19 20
M  V30 20 1 20 21
M  V30 21 1 12 22
M  V30 22 1 22 23
M  V30 23 2 23 24
M  V30 24 1 24 25
M  V30 25 2 25 26
M  V30 26 1 26 27
M  V30 27 1 27 28
M  V30 28 2 27 29
M  V30 29 2 22 30
M  V30 30 1 6 31
M  V30 31 2 31 32
M  V30 32 1 32 3
M  V30 33 1 30 10
M  V30 34 2 21 13
M  V30 35 1 29 23
M  V30 36 1 20 16
M  V30 37 1 1 33
M  V30 38 1 1 34
M  V30 39 1 1 35
M  V30 40 1 4 36
M  V30 41 1 5 37
M  V30 42 1 7 38
M  V30 43 1 11 39
M  V30 44 1 14 40
M  V30 45 1 15 41
M  V30 46 1 18 42
M  V30 47 1 21 43
M  V30 48 1 24 44
M  V30 49 1 25 45
M  V30 50 1 26 46
M  V30 51 1 28 47
M  V30 52 1 28 48
M  V30 53 1 28 49
M  V30 54 1 31 50
M  V30 55 1 32 51
M  V30 END BOND
M  V30 END CTAB
M  END
>  <Dataset>  (539) 
ChEMBL_Kinases

>  <Ligand_Instance>  (539) 
nan

>  <PDB_ID>  (539) 
nan

>  <Standardized_SMILES>  (539) 
COc1ccc(NC(=S)n2cc(-c3ccc4ncnn4c3)c(-c3cccc(C)n3)n2)cc1

>  <Name>  (539) 
nan

>  <Pocket>  (539) 
nan

>  <ATP_Site>  (539) 
nan

>  <Peripheral>  (539) 
nan

>  <Num_H_Atoms_ProtBoundConf>  (539) 
nan

>  <Num_Resolved_Atoms>  (539) 
nan

>  <Num_Not_Resolved_Atoms>  (539) 
nan

$$$$
CHEMBL1835065
     RDKit          3D

  0  0  0  0  0  0  0  0  0  0999 V3000
M  V30 BEGIN CTAB
M  V30 COUNTS 47 49 0 0 0
M  V30 BEGIN ATOM
M  V30 1 C -1.201732 -5.417690 3.893218 0
M  V30 2 C -0.833676 -4.440540 2.827616 0
M  V30 3 C 0.266879 -4.679361 2.023522 0
M  V30 4 C 0.637773 -3.800867 1.029508 0
M  V30 5 C -0.079341 -2.637730 0.793822 0
M  V30 6 C -1.179764 -2.403305 1.601184 0
M  V30 7 N -1.949382 -1.205284 1.386886 0
M  V30 8 C -1.521691 -0.338504 0.352897 0
M  V30 9 N -0.648104 0.651029 0.553580 0
M  V30 10 C -0.282951 1.437701 -0.467251 0
M  V30 11 N 0.653209 2.505755 -0.276626 0
M  V30 12 C 1.259959 2.810808 0.980205 0 CFG=2
M  V30 13 C 2.191106 4.025326 0.815813 0
M  V30 14 C 3.621080 3.551594 0.644170 0
M  V30 15 O 3.760723 2.400179 -0.082174 0
M  V30 16 C 3.056664 1.307060 0.368581 0
M  V30 17 C 2.178253 1.734281 1.513749 0 CFG=2
M  V30 18 N 1.510155 0.660836 2.188344 0
M  V30 19 N -0.819535 1.194306 -1.669457 0
M  V30 20 C -1.702398 0.216619 -1.938423 0
M  V30 21 C -2.070467 -0.584245 -0.885991 0
M  V30 22 C -3.018316 -1.676731 -1.047096 0
M  V30 23 N -3.566424 -1.910413 -2.318421 0
M  V30 24 O -3.359803 -2.411441 -0.095122 0
M  V30 25 C -1.549061 -3.289014 2.599155 0
M  V30 26 H -2.277481 -5.388652 4.116995 0
M  V30 27 H -0.988888 -6.434373 3.491993 0
M  V30 28 H -0.573599 -5.295725 4.803205 0
M  V30 29 H 0.842193 -5.575962 2.185083 0
M  V30 30 H 1.492517 -3.995266 0.411649 0
M  V30 31 H 0.208222 -1.943828 0.013488 0
M  V30 32 H -2.778426 -1.022014 1.988892 0
M  V30 33 H 0.895253 3.091072 -1.131997 0
M  V30 34 H 0.479969 3.004709 1.730999 0
M  V30 35 H 2.160573 4.646142 1.719349 0
M  V30 36 H 1.897836 4.556254 -0.105790 0
M  V30 37 H 4.132789 4.357502 0.038159 0
M  V30 38 H 4.187458 3.565715 1.613263 0
M  V30 39 H 3.704553 0.446113 0.631241 0
M  V30 40 H 2.394809 1.003524 -0.495111 0
M  V30 41 H 2.819042 2.229954 2.297442 0
M  V30 42 H 2.197326 -0.133705 2.240662 0
M  V30 43 H 1.318250 0.933197 3.178124 0
M  V30 44 H -2.113583 0.050909 -2.921506 0
M  V30 45 H -4.391104 -2.550226 -2.459763 0
M  V30 46 H -3.960349 -2.074679 -3.254754 0
M  V30 47 H -2.410428 -3.115304 3.238284 0
M  V30 END ATOM
M  V30 BEGIN BOND
M  V30 1 1 1 2
M  V30 2 2 2 3
M  V30 3 1 3 4
M  V30 4 2 4 5
M  V30 5 1 5 6
M  V30 6 1 6 7
M  V30 7 1 7 8
M  V30 8 2 8 9
M  V30 9 1 9 10
M  V30 10 1 10 11
M  V30 11 1 11 12
M  V30 12 1 12 13
M  V30 13 1 13 14
M  V30 14 1 14 15
M  V30 15 1 15 16
M  V30 16 1 16 17
M  V30 17 1 17 18
M  V30 18 2 10 19
M  V30 19 1 19 20
M  V30 20 2 20 21
M  V30 21 1 21 22
M  V30 22 1 22 23
M  V30 23 2 22 24
M  V30 24 2 6 25
M  V30 25 1 25 2
M  V30 26 1 21 8
M  V30 27 1 17 12
M  V30 28 1 1 26
M  V30 29 1 1 27
M  V30 30 1 1 28
M  V30 31 1 3 29
M  V30 32 1 4 30
M  V30 33 1 5 31
M  V30 34 1 7 32
M  V30 35 1 11 33
M  V30 36 1 12 34 CFG=1
M  V30 37 1 13 35
M  V30 38 1 13 36
M  V30 39 1 14 37
M  V30 40 1 14 38
M  V30 41 1 16 39
M  V30 42 1 16 40
M  V30 43 1 17 41 CFG=1
M  V30 44 1 18 42
M  V30 45 1 18 43
M  V30 46 1 20 44
M  V30 47 1 23 45
M  V30 48 1 23 46
M  V30 49 1 25 47
M  V30 END BOND
M  V30 END CTAB
M  END
>  <Dataset>  (540) 
ChEMBL_Kinases

>  <Ligand_Instance>  (540) 
nan

>  <PDB_ID>  (540) 
nan

>  <Standardized_SMILES>  (540) 
Cc1cccc(Nc2nc(N[C@@H]3CCOC[C@@H]3N)ncc2C(N)=O)c1

>  <Name>  (540) 
nan

>  <Pocket>  (540) 
nan

>  <ATP_Site>  (540) 
nan

>  <Peripheral>  (540) 
nan

>  <Num_H_Atoms_ProtBoundConf>  (540) 
nan

>  <Num_Resolved_Atoms>  (540) 
nan

>  <Num_Not_Resolved_Atoms>  (540) 
nan

$$$$
CHEMBL1835066
     RDKit          3D

  0  0  0  0  0  0  0  0  0  0999 V3000
M  V30 BEGIN CTAB
M  V30 COUNTS 47 49 0 0 0
M  V30 BEGIN ATOM
M  V30 1 C -0.638863 -5.356820 3.867476 0
M  V30 2 C -0.426659 -4.366599 2.766856 0
M  V30 3 C 0.577592 -4.586297 1.850600 0
M  V30 4 C 0.755849 -3.652212 0.833751 0
M  V30 5 C -0.064702 -2.536872 0.760975 0
M  V30 6 C -1.066676 -2.303243 1.662641 0
M  V30 7 N -1.898820 -1.136847 1.557579 0
M  V30 8 C -1.649203 -0.336978 0.404967 0
M  V30 9 N -0.688716 0.601210 0.344581 0
M  V30 10 C -0.460611 1.353543 -0.739407 0
M  V30 11 N 0.576191 2.331090 -0.740660 0
M  V30 12 C 1.424278 2.585741 0.377297 0 CFG=2
M  V30 13 C 2.463369 3.650403 0.152856 0
M  V30 14 O 2.788016 4.124984 1.445670 0
M  V30 15 C 2.770302 3.125438 2.389465 0
M  V30 16 C 3.208832 1.793139 1.799623 0
M  V30 17 C 2.084189 1.342665 0.876792 0 CFG=2
M  V30 18 N 2.545707 0.501799 -0.189534 0
M  V30 19 N -1.224343 1.170544 -1.828340 0
M  V30 20 C -2.216187 0.231543 -1.825345 0
M  V30 21 C -2.433462 -0.530719 -0.700448 0
M  V30 22 C -3.496609 -1.542085 -0.686959 0
M  V30 23 N -4.343755 -1.769896 -1.784118 0
M  V30 24 O -3.644387 -2.233866 0.372657 0
M  V30 25 C -1.236700 -3.241781 2.674461 0
M  V30 26 H -1.718467 -5.322852 4.182953 0
M  V30 27 H -0.468462 -6.384668 3.441344 0
M  V30 28 H 0.044857 -5.151885 4.710624 0
M  V30 29 H 1.221823 -5.457562 1.904650 0
M  V30 30 H 1.555312 -3.830178 0.106853 0
M  V30 31 H 0.145375 -1.853874 -0.070360 0
M  V30 32 H -2.600347 -0.973141 2.310899 0
M  V30 33 H 0.746969 2.906764 -1.592627 0
M  V30 34 H 0.740157 2.972177 1.190582 0
M  V30 35 H 2.105363 4.467278 -0.477843 0
M  V30 36 H 3.402357 3.192878 -0.248195 0
M  V30 37 H 3.514297 3.395792 3.189585 0
M  V30 38 H 1.819174 2.997166 2.925903 0
M  V30 39 H 3.346093 1.072173 2.618949 0
M  V30 40 H 4.126146 1.973860 1.229089 0
M  V30 41 H 1.364142 0.777969 1.516378 0
M  V30 42 H 3.145211 -0.286835 0.137264 0
M  V30 43 H 2.949441 1.014431 -0.993740 0
M  V30 44 H -2.852752 0.057084 -2.688829 0
M  V30 45 H -5.343069 -1.703740 -1.486508 0
M  V30 46 H -4.328306 -1.985332 -2.802539 0
M  V30 47 H -2.029859 -3.039657 3.373728 0
M  V30 END ATOM
M  V30 BEGIN BOND
M  V30 1 1 1 2
M  V30 2 2 2 3
M  V30 3 1 3 4
M  V30 4 2 4 5
M  V30 5 1 5 6
M  V30 6 1 6 7
M  V30 7 1 7 8
M  V30 8 2 8 9
M  V30 9 1 9 10
M  V30 10 1 10 11
M  V30 11 1 11 12
M  V30 12 1 12 13
M  V30 13 1 13 14
M  V30 14 1 14 15
M  V30 15 1 15 16
M  V30 16 1 16 17
M  V30 17 1 17 18
M  V30 18 2 10 19
M  V30 19 1 19 20
M  V30 20 2 20 21
M  V30 21 1 21 22
M  V30 22 1 22 23
M  V30 23 2 22 24
M  V30 24 2 6 25
M  V30 25 1 25 2
M  V30 26 1 21 8
M  V30 27 1 17 12
M  V30 28 1 1 26
M  V30 29 1 1 27
M  V30 30 1 1 28
M  V30 31 1 3 29
M  V30 32 1 4 30
M  V30 33 1 5 31
M  V30 34 1 7 32
M  V30 35 1 11 33
M  V30 36 1 12 34 CFG=1
M  V30 37 1 13 35
M  V30 38 1 13 36
M  V30 39 1 15 37
M  V30 40 1 15 38
M  V30 41 1 16 39
M  V30 42 1 16 40
M  V30 43 1 17 41 CFG=1
M  V30 44 1 18 42
M  V30 45 1 18 43
M  V30 46 1 20 44
M  V30 47 1 23 45
M  V30 48 1 23 46
M  V30 49 1 25 47
M  V30 END BOND
M  V30 END CTAB
M  END
>  <Dataset>  (541) 
ChEMBL_Kinases

>  <Ligand_Instance>  (541) 
nan

>  <PDB_ID>  (541) 
nan

>  <Standardized_SMILES>  (541) 
Cc1cccc(Nc2nc(N[C@@H]3COCC[C@@H]3N)ncc2C(N)=O)c1

>  <Name>  (541) 
nan

>  <Pocket>  (541) 
nan

>  <ATP_Site>  (541) 
nan

>  <Peripheral>  (541) 
nan

>  <Num_H_Atoms_ProtBoundConf>  (541) 
nan

>  <Num_Resolved_Atoms>  (541) 
nan

>  <Num_Not_Resolved_Atoms>  (541) 
nan

$$$$
CHEMBL1835067
     RDKit          3D

  0  0  0  0  0  0  0  0  0  0999 V3000
M  V30 BEGIN CTAB
M  V30 COUNTS 44 46 0 0 0
M  V30 BEGIN ATOM
M  V30 1 C 0.607646 -6.730479 1.884833 0
M  V30 2 C 0.707882 -5.238768 1.720163 0
M  V30 3 C 1.169886 -4.474520 2.772093 0
M  V30 4 C 1.283028 -3.110251 2.722833 0
M  V30 5 C 0.893539 -2.514686 1.514325 0
M  V30 6 C 0.428263 -3.232112 0.439081 0
M  V30 7 N 0.048279 -2.525797 -0.746864 0
M  V30 8 C -0.066747 -1.128010 -0.619478 0
M  V30 9 N 0.895482 -0.184690 -0.669940 0
M  V30 10 C 0.616812 1.125205 -0.530024 0
M  V30 11 N 1.624569 2.124592 -0.579942 0
M  V30 12 C 1.263697 3.510172 -0.399204 0 CFG=2
M  V30 13 C 2.529708 4.339527 -0.570808 0
M  V30 14 O 3.309710 3.923670 0.489475 0
M  V30 15 C 2.489005 3.684591 1.562517 0
M  V30 16 C 1.050590 3.823515 1.091693 0 CFG=2
M  V30 17 N 0.166042 2.928516 1.745103 0
M  V30 18 N -0.665109 1.479872 -0.335146 0
M  V30 19 C -1.696829 0.619769 -0.269729 0
M  V30 20 C -1.361132 -0.710196 -0.418371 0
M  V30 21 C -2.512926 -1.632528 -0.345209 0
M  V30 22 N -3.843755 -1.207843 -0.133359 0
M  V30 23 O -2.549493 -2.885076 -0.446930 0
M  V30 24 C 0.345599 -4.602122 0.570963 0
M  V30 25 H 0.232332 -6.931671 2.926950 0
M  V30 26 H -0.085776 -7.128590 1.119124 0
M  V30 27 H 1.593796 -7.202844 1.791686 0
M  V30 28 H 1.464459 -4.950783 3.691586 0
M  V30 29 H 1.648029 -2.528648 3.558500 0
M  V30 30 H 0.989616 -1.419569 1.491275 0
M  V30 31 H -0.144341 -2.972817 -1.666853 0
M  V30 32 H 2.601530 1.808852 -0.745259 0
M  V30 33 H 0.444176 3.870377 -1.015105 0
M  V30 34 H 2.219820 5.408153 -0.384276 0
M  V30 35 H 3.019467 4.217451 -1.536039 0
M  V30 36 H 2.587637 2.590742 1.833394 0
M  V30 37 H 2.696130 4.253338 2.471971 0
M  V30 38 H 0.740218 4.878683 1.144731 0
M  V30 39 H 0.546980 2.509003 2.604915 0
M  V30 40 H -0.740299 3.404696 1.941506 0
M  V30 41 H -2.707475 0.974157 -0.111978 0
M  V30 42 H -4.249905 -0.814914 0.766075 0
M  V30 43 H -4.185647 -0.826730 0.782880 0
M  V30 44 H -0.006606 -5.192055 -0.235571 0
M  V30 END ATOM
M  V30 BEGIN BOND
M  V30 1 1 1 2
M  V30 2 2 2 3
M  V30 3 1 3 4
M  V30 4 2 4 5
M  V30 5 1 5 6
M  V30 6 1 6 7
M  V30 7 1 7 8
M  V30 8 2 8 9
M  V30 9 1 9 10
M  V30 10 1 10 11
M  V30 11 1 11 12
M  V30 12 1 12 13
M  V30 13 1 13 14
M  V30 14 1 14 15
M  V30 15 1 15 16
M  V30 16 1 16 17
M  V30 17 2 10 18
M  V30 18 1 18 19
M  V30 19 2 19 20
M  V30 20 1 20 21
M  V30 21 1 21 22
M  V30 22 2 21 23
M  V30 23 2 6 24
M  V30 24 1 24 2
M  V30 25 1 20 8
M  V30 26 1 16 12
M  V30 27 1 1 25
M  V30 28 1 1 26
M  V30 29 1 1 27
M  V30 30 1 3 28
M  V30 31 1 4 29
M  V30 32 1 5 30
M  V30 33 1 7 31
M  V30 34 1 11 32
M  V30 35 1 12 33 CFG=3
M  V30 36 1 13 34
M  V30 37 1 13 35
M  V30 38 1 15 36
M  V30 39 1 15 37
M  V30 40 1 16 38 CFG=3
M  V30 41 1 17 39
M  V30 42 1 17 40
M  V30 43 1 19 41
M  V30 44 1 22 42
M  V30 45 1 22 43
M  V30 46 1 24 44
M  V30 END BOND
M  V30 END CTAB
M  END
>  <Dataset>  (542) 
ChEMBL_Kinases

>  <Ligand_Instance>  (542) 
nan

>  <PDB_ID>  (542) 
nan

>  <Standardized_SMILES>  (542) 
Cc1cccc(Nc2nc(N[C@@H]3COC[C@@H]3N)ncc2C(N)=O)c1

>  <Name>  (542) 
nan

>  <Pocket>  (542) 
nan

>  <ATP_Site>  (542) 
nan

>  <Peripheral>  (542) 
nan

>  <Num_H_Atoms_ProtBoundConf>  (542) 
nan

>  <Num_Resolved_Atoms>  (542) 
nan

>  <Num_Not_Resolved_Atoms>  (542) 
nan

$$$$
CHEMBL1835068
     RDKit          3D

  0  0  0  0  0  0  0  0  0  0999 V3000
M  V30 BEGIN CTAB
M  V30 COUNTS 49 51 0 0 0
M  V30 BEGIN ATOM
M  V30 1 C -0.315977 -4.697448 2.591328 0
M  V30 2 C 0.272216 -4.836966 1.244734 0
M  V30 3 C 0.905181 -5.970164 0.784392 0
M  V30 4 C 1.437120 -6.040123 -0.489960 0
M  V30 5 C 1.330272 -4.935330 -1.331047 0
M  V30 6 C 0.699135 -3.768522 -0.909132 0
M  V30 7 N 0.584273 -2.633888 -1.759921 0
M  V30 8 C -0.067618 -1.421468 -1.331689 0
M  V30 9 N 0.771965 -0.550625 -0.749044 0
M  V30 10 C 0.238028 0.608624 -0.320791 0
M  V30 11 N 0.942825 1.680374 0.322467 0
M  V30 12 C 0.531523 2.951712 0.834522 0 CFG=2
M  V30 13 C 1.703973 3.732605 1.385256 0
M  V30 14 C 2.297901 3.083212 2.609675 0
M  V30 15 C 1.308212 2.655871 3.637776 0
M  V30 16 F 1.922134 1.736063 4.483025 0
M  V30 17 F 0.752392 3.694290 4.358467 0
M  V30 18 C 0.176179 1.900521 2.975374 0
M  V30 19 C -0.456504 2.843100 1.994074 0 CFG=2
M  V30 20 N -1.759747 2.478492 1.550006 0
M  V30 21 N -1.074284 0.850515 -0.483998 0
M  V30 22 C -1.899779 -0.033226 -1.069694 0
M  V30 23 C -1.406239 -1.236248 -1.526856 0
M  V30 24 C -2.236257 -2.246180 -2.172353 0
M  V30 25 N -3.630343 -1.934729 -2.320264 0
M  V30 26 O -1.696819 -3.302249 -2.551393 0
M  V30 27 C 0.196635 -3.782460 0.375183 0
M  V30 28 H 0.442241 -4.298949 3.292463 0
M  V30 29 H -0.716632 -5.682605 2.917310 0
M  V30 30 H -1.181974 -3.996301 2.538439 0
M  V30 31 H 0.972705 -6.814282 1.462704 0
M  V30 32 H 1.931290 -6.940755 -0.833343 0
M  V30 33 H 1.743081 -4.987783 -2.321858 0
M  V30 34 H 0.988410 -2.701144 -2.713655 0
M  V30 35 H 1.960222 1.442786 0.416163 0
M  V30 36 H 0.052488 3.580827 0.059027 0
M  V30 37 H 1.312792 4.732399 1.659146 0
M  V30 38 H 2.523566 3.875054 0.658620 0
M  V30 39 H 2.930811 3.881817 3.095629 0
M  V30 40 H 2.987116 2.273346 2.358281 0
M  V30 41 H -0.525966 1.457560 3.687835 0
M  V30 42 H 0.668939 1.057834 2.434391 0
M  V30 43 H -0.442403 3.855062 2.483333 0
M  V30 44 H -2.395980 3.295412 1.655838 0
M  V30 45 H -2.140344 1.615411 1.993778 0
M  V30 46 H -2.964208 0.188459 -1.190189 0
M  V30 47 H -4.396397 -1.954876 -1.606637 0
M  V30 48 H -4.392261 -1.955057 -1.609286 0
M  V30 49 H -0.290991 -2.857418 0.677472 0
M  V30 END ATOM
M  V30 BEGIN BOND
M  V30 1 1 1 2
M  V30 2 2 2 3
M  V30 3 1 3 4
M  V30 4 2 4 5
M  V30 5 1 5 6
M  V30 6 1 6 7
M  V30 7 1 7 8
M  V30 8 2 8 9
M  V30 9 1 9 10
M  V30 10 1 10 11
M  V30 11 1 11 12
M  V30 12 1 12 13
M  V30 13 1 13 14
M  V30 14 1 14 15
M  V30 15 1 15 16
M  V30 16 1 15 17
M  V30 17 1 15 18
M  V30 18 1 18 19
M  V30 19 1 19 20
M  V30 20 2 10 21
M  V30 21 1 21 22
M  V30 22 2 22 23
M  V30 23 1 23 24
M  V30 24 1 24 25
M  V30 25 2 24 26
M  V30 26 2 6 27
M  V30 27 1 27 2
M  V30 28 1 23 8
M  V30 29 1 19 12
M  V30 30 1 1 28
M  V30 31 1 1 29
M  V30 32 1 1 30
M  V30 33 1 3 31
M  V30 34 1 4 32
M  V30 35 1 5 33
M  V30 36 1 7 34
M  V30 37 1 11 35
M  V30 38 1 12 36 CFG=3
M  V30 39 1 13 37
M  V30 40 1 13 38
M  V30 41 1 14 39
M  V30 42 1 14 40
M  V30 43 1 18 41
M  V30 44 1 18 42
M  V30 45 1 19 43 CFG=1
M  V30 46 1 20 44
M  V30 47 1 20 45
M  V30 48 1 22 46
M  V30 49 1 25 47
M  V30 50 1 25 48
M  V30 51 1 27 49
M  V30 END BOND
M  V30 END CTAB
M  END
>  <Dataset>  (543) 
ChEMBL_Kinases

>  <Ligand_Instance>  (543) 
nan

>  <PDB_ID>  (543) 
nan

>  <Standardized_SMILES>  (543) 
Cc1cccc(Nc2nc(N[C@@H]3CCC(F)(F)C[C@@H]3N)ncc2C(N)=O)c1

>  <Name>  (543) 
nan

>  <Pocket>  (543) 
nan

>  <ATP_Site>  (543) 
nan

>  <Peripheral>  (543) 
nan

>  <Num_H_Atoms_ProtBoundConf>  (543) 
nan

>  <Num_Resolved_Atoms>  (543) 
nan

>  <Num_Not_Resolved_Atoms>  (543) 
nan

$$$$
CHEMBL1835069
     RDKit          3D

  0  0  0  0  0  0  0  0  0  0999 V3000
M  V30 BEGIN CTAB
M  V30 COUNTS 49 51 0 0 0
M  V30 BEGIN ATOM
M  V30 1 C 0.830750 -4.320164 2.394578 0
M  V30 2 C 0.920224 -4.467060 0.930398 0
M  V30 3 C 1.374140 -5.654922 0.346520 0
M  V30 4 C 1.452499 -5.778363 -1.022103 0
M  V30 5 C 1.085709 -4.735193 -1.841847 0
M  V30 6 C 0.620524 -3.512883 -1.338369 0
M  V30 7 N 0.244405 -2.417490 -2.161707 0
M  V30 8 C -0.274229 -1.295661 -1.464822 0
M  V30 9 N 0.450156 -0.329044 -0.873300 0
M  V30 10 C -0.137796 0.705528 -0.225105 0
M  V30 11 N 0.609856 1.732253 0.386090 0
M  V30 12 C 0.038215 2.820008 1.115186 0 CFG=2
M  V30 13 C 1.109775 3.818844 1.495289 0
M  V30 14 C 2.100923 3.341848 2.489615 0
M  V30 15 F 2.611807 4.483591 3.129688 0
M  V30 16 F 3.228049 2.744052 1.921431 0
M  V30 17 C 1.580151 2.470291 3.575730 0
M  V30 18 C 0.542599 1.508660 3.064765 0
M  V30 19 C -0.555816 2.378031 2.438066 0 CFG=2
M  V30 20 N -1.799127 1.704086 2.363007 0
M  V30 21 N -1.475909 0.787579 -0.160919 0
M  V30 22 C -2.262319 -0.134978 -0.725268 0
M  V30 23 C -1.644554 -1.174628 -1.376203 0
M  V30 24 C -2.472617 -2.191482 -2.010805 0
M  V30 25 N -3.888619 -2.102532 -1.954914 0
M  V30 26 O -2.188511 -3.218188 -2.652144 0
M  V30 27 C 0.581796 -3.497070 0.039703 0
M  V30 28 H 1.786972 -3.987019 2.850088 0
M  V30 29 H 0.580454 -5.315018 2.856860 0
M  V30 30 H 0.042797 -3.630356 2.715083 0
M  V30 31 H 1.671315 -6.493920 0.960671 0
M  V30 32 H 1.812428 -6.728579 -1.432137 0
M  V30 33 H 1.154075 -4.853392 -2.918635 0
M  V30 34 H 0.386005 -2.553283 -3.182658 0
M  V30 35 H 1.667586 1.676970 0.287983 0
M  V30 36 H -0.725748 3.352850 0.529198 0
M  V30 37 H 1.634609 4.151573 0.585372 0
M  V30 38 H 0.610339 4.733210 1.913259 0
M  V30 39 H 1.088869 3.048096 4.397261 0
M  V30 40 H 2.423126 1.859893 3.976782 0
M  V30 41 H 0.150207 0.844156 3.842745 0
M  V30 42 H 0.998842 0.930678 2.235213 0
M  V30 43 H -0.640415 3.279605 3.070511 0
M  V30 44 H -1.632124 0.694067 2.599908 0
M  V30 45 H -2.403640 2.033926 3.177888 0
M  V30 46 H -3.332386 -0.008447 -0.635013 0
M  V30 47 H -4.796739 -2.122084 -1.484029 0
M  V30 48 H -4.788505 -2.126211 -1.463553 0
M  V30 49 H 0.222747 -2.559280 0.480245 0
M  V30 END ATOM
M  V30 BEGIN BOND
M  V30 1 1 1 2
M  V30 2 2 2 3
M  V30 3 1 3 4
M  V30 4 2 4 5
M  V30 5 1 5 6
M  V30 6 1 6 7
M  V30 7 1 7 8
M  V30 8 2 8 9
M  V30 9 1 9 10
M  V30 10 1 10 11
M  V30 11 1 11 12
M  V30 12 1 12 13
M  V30 13 1 13 14
M  V30 14 1 14 15
M  V30 15 1 14 16
M  V30 16 1 14 17
M  V30 17 1 17 18
M  V30 18 1 18 19
M  V30 19 1 19 20
M  V30 20 2 10 21
M  V30 21 1 21 22
M  V30 22 2 22 23
M  V30 23 1 23 24
M  V30 24 1 24 25
M  V30 25 2 24 26
M  V30 26 2 6 27
M  V30 27 1 27 2
M  V30 28 1 23 8
M  V30 29 1 19 12
M  V30 30 1 1 28
M  V30 31 1 1 29
M  V30 32 1 1 30
M  V30 33 1 3 31
M  V30 34 1 4 32
M  V30 35 1 5 33
M  V30 36 1 7 34
M  V30 37 1 11 35
M  V30 38 1 12 36 CFG=3
M  V30 39 1 13 37
M  V30 40 1 13 38
M  V30 41 1 17 39
M  V30 42 1 17 40
M  V30 43 1 18 41
M  V30 44 1 18 42
M  V30 45 1 19 43 CFG=1
M  V30 46 1 20 44
M  V30 47 1 20 45
M  V30 48 1 22 46
M  V30 49 1 25 47
M  V30 50 1 25 48
M  V30 51 1 27 49
M  V30 END BOND
M  V30 END CTAB
M  END
>  <Dataset>  (544) 
ChEMBL_Kinases

>  <Ligand_Instance>  (544) 
nan

>  <PDB_ID>  (544) 
nan

>  <Standardized_SMILES>  (544) 
Cc1cccc(Nc2nc(N[C@@H]3CC(F)(F)CC[C@@H]3N)ncc2C(N)=O)c1

>  <Name>  (544) 
nan

>  <Pocket>  (544) 
nan

>  <ATP_Site>  (544) 
nan

>  <Peripheral>  (544) 
nan

>  <Num_H_Atoms_ProtBoundConf>  (544) 
nan

>  <Num_Resolved_Atoms>  (544) 
nan

>  <Num_Not_Resolved_Atoms>  (544) 
nan

$$$$
CHEMBL1835112
     RDKit          3D

  0  0  0  0  0  0  0  0  0  0999 V3000
M  V30 BEGIN CTAB
M  V30 COUNTS 47 51 0 0 0
M  V30 BEGIN ATOM
M  V30 1 C 0.347772 -1.801291 -5.015851 0
M  V30 2 C 0.875546 -2.278826 -3.708760 0
M  V30 3 C 1.528284 -3.503302 -3.615685 0
M  V30 4 C 1.984220 -3.864145 -2.348972 0
M  V30 5 C 1.790303 -3.038868 -1.254904 0
M  V30 6 C 1.124544 -1.814642 -1.408883 0
M  V30 7 C 1.004474 -1.074033 -0.159147 0
M  V30 8 N 1.869497 -0.562271 0.735031 0
M  V30 9 N 1.241037 0.022591 1.719222 0
M  V30 10 C 1.913862 0.642721 2.804025 0
M  V30 11 S 3.373735 0.165625 3.349543 0
M  V30 12 N 1.316614 1.741170 3.481220 0
M  V30 13 C 1.923126 2.424508 4.587866 0
M  V30 14 C 1.498969 1.821851 5.777597 0
M  V30 15 C 1.951249 2.297937 6.999395 0
M  V30 16 C 2.827251 3.372731 7.080871 0
M  V30 17 C 3.213947 3.928657 5.895528 0
M  V30 18 C 2.801885 3.503550 4.656851 0
M  V30 19 C -0.097029 -0.095290 1.487016 0
M  V30 20 C -0.270967 -0.795195 0.287079 0
M  V30 21 C -1.655568 -1.046158 -0.171311 0
M  V30 22 C -2.224031 -0.577943 -1.330931 0
M  V30 23 C -3.523959 -0.875429 -1.654151 0
M  V30 24 C -4.215763 -1.671872 -0.740428 0
M  V30 25 N -5.497652 -2.122900 -0.789093 0
M  V30 26 C -5.703316 -2.859919 0.334144 0
M  V30 27 N -4.562841 -2.848147 1.040776 0
M  V30 28 N -3.650506 -2.132671 0.403794 0
M  V30 29 C -2.366862 -1.827411 0.703307 0
M  V30 30 N 0.698821 -1.496171 -2.636650 0
M  V30 31 H 0.894653 -0.865005 -5.300474 0
M  V30 32 H 0.372339 -2.582604 -5.772214 0
M  V30 33 H -0.702283 -1.451726 -4.786924 0
M  V30 34 H 1.676200 -4.152363 -4.494100 0
M  V30 35 H 2.482821 -4.822912 -2.334117 0
M  V30 36 H 2.216496 -3.490965 -0.347777 0
M  V30 37 H 0.413400 2.243912 3.349795 0
M  V30 38 H 0.830395 0.989154 5.905689 0
M  V30 39 H 1.659707 1.874788 7.967633 0
M  V30 40 H 3.220273 3.795687 7.989940 0
M  V30 41 H 3.897344 4.771173 5.833959 0
M  V30 42 H 3.024559 3.844565 3.665806 0
M  V30 43 H -0.763418 0.337241 2.214715 0
M  V30 44 H -1.571143 0.032114 -1.952430 0
M  V30 45 H -3.955353 -0.504728 -2.561525 0
M  V30 46 H -6.629888 -3.362449 0.599007 0
M  V30 47 H -1.992656 -2.235012 1.636115 0
M  V30 END ATOM
M  V30 BEGIN BOND
M  V30 1 1 1 2
M  V30 2 2 2 3
M  V30 3 1 3 4
M  V30 4 2 4 5
M  V30 5 1 5 6
M  V30 6 1 6 7
M  V30 7 2 7 8
M  V30 8 1 8 9
M  V30 9 1 9 10
M  V30 10 2 10 11
M  V30 11 1 10 12
M  V30 12 1 12 13
M  V30 13 2 13 14
M  V30 14 1 14 15
M  V30 15 2 15 16
M  V30 16 1 16 17
M  V30 17 2 17 18
M  V30 18 1 9 19
M  V30 19 2 19 20
M  V30 20 1 20 21
M  V30 21 1 21 22
M  V30 22 2 22 23
M  V30 23 1 23 24
M  V30 24 2 24 25
M  V30 25 1 25 26
M  V30 26 2 26 27
M  V30 27 1 27 28
M  V30 28 1 28 29
M  V30 29 2 6 30
M  V30 30 1 30 2
M  V30 31 1 20 7
M  V30 32 2 29 21
M  V30 33 1 18 13
M  V30 34 1 28 24
M  V30 35 1 1 31
M  V30 36 1 1 32
M  V30 37 1 1 33
M  V30 38 1 3 34
M  V30 39 1 4 35
M  V30 40 1 5 36
M  V30 41 1 12 37
M  V30 42 1 14 38
M  V30 43 1 15 39
M  V30 44 1 16 40
M  V30 45 1 17 41
M  V30 46 1 18 42
M  V30 47 1 19 43
M  V30 48 1 22 44
M  V30 49 1 23 45
M  V30 50 1 26 46
M  V30 51 1 29 47
M  V30 END BOND
M  V30 END CTAB
M  END
>  <Dataset>  (545) 
ChEMBL_Kinases

>  <Ligand_Instance>  (545) 
nan

>  <PDB_ID>  (545) 
nan

>  <Standardized_SMILES>  (545) 
Cc1cccc(-c2nn(C(=S)Nc3ccccc3)cc2-c2ccc3ncnn3c2)n1

>  <Name>  (545) 
nan

>  <Pocket>  (545) 
nan

>  <ATP_Site>  (545) 
nan

>  <Peripheral>  (545) 
nan

>  <Num_H_Atoms_ProtBoundConf>  (545) 
nan

>  <Num_Resolved_Atoms>  (545) 
nan

>  <Num_Not_Resolved_Atoms>  (545) 
nan

$$$$
CHEMBL1835518
     RDKit          3D

  0  0  0  0  0  0  0  0  0  0999 V3000
M  V30 BEGIN CTAB
M  V30 COUNTS 47 51 0 0 0
M  V30 BEGIN ATOM
M  V30 1 C 0.114429 -4.187108 3.726511 0
M  V30 2 C 0.799387 -3.528486 2.580640 0
M  V30 3 C 1.886793 -4.052464 1.893485 0
M  V30 4 C 2.424578 -3.327412 0.841771 0
M  V30 5 C 1.858260 -2.102694 0.511016 0
M  V30 6 C 0.780484 -1.599036 1.202764 0
M  V30 7 C 0.213696 -0.292587 0.815119 0
M  V30 8 N 0.556865 1.013282 0.788911 0
M  V30 9 N -0.424402 1.754975 0.303525 0
M  V30 10 C 0.070230 3.038469 0.334353 0
M  V30 11 S -1.351833 3.927503 0.283706 0
M  V30 12 N 0.489681 4.330214 0.360408 0
M  V30 13 C 1.884126 3.968139 0.461007 0
M  V30 14 C 2.458658 3.820607 1.726448 0
M  V30 15 C 3.773519 3.479961 2.022579 0
M  V30 16 C 4.581487 3.268605 0.920394 0
M  V30 17 C 4.090081 3.393504 -0.366458 0
M  V30 18 F 4.888158 3.178726 -1.419013 0
M  V30 19 C 2.758213 3.738909 -0.580257 0
M  V30 20 C -1.489237 1.037020 -0.032438 0
M  V30 21 C -1.058384 -0.228298 0.298179 0
M  V30 22 C -2.030764 -1.315562 0.048481 0
M  V30 23 C -2.331764 -1.645359 -1.273435 0
M  V30 24 C -3.248402 -2.675951 -1.513797 0
M  V30 25 C -3.805982 -3.310032 -0.399976 0
M  V30 26 N -4.695767 -4.318210 -0.398518 0
M  V30 27 C -4.967088 -4.633519 0.901216 0
M  V30 28 N -4.230817 -3.805478 1.664515 0
M  V30 29 N -3.513984 -2.988623 0.876953 0
M  V30 30 C -2.624282 -1.989377 1.094060 0
M  V30 31 N 0.284901 -2.328048 2.216797 0
M  V30 32 H 0.566966 -5.182381 3.944270 0
M  V30 33 H -0.960315 -4.287823 3.579947 0
M  V30 34 H 0.231926 -3.542119 4.638534 0
M  V30 35 H 2.236482 -5.024121 2.255271 0
M  V30 36 H 3.269611 -3.789314 0.346109 0
M  V30 37 H 2.329937 -1.576242 -0.334085 0
M  V30 38 H 0.738557 5.287244 0.375261 0
M  V30 39 H 1.790014 3.997751 2.569696 0
M  V30 40 H 4.081896 3.404036 3.036565 0
M  V30 41 H 5.610055 3.002815 1.142281 0
M  V30 42 H 2.327829 3.848250 -1.575261 0
M  V30 43 H -2.333434 1.542298 -0.433913 0
M  V30 44 H -1.899317 -1.154862 -2.125256 0
M  V30 45 H -3.469662 -2.920684 -2.524622 0
M  V30 46 H -5.652005 -5.414702 1.207732 0
M  V30 47 H -2.419294 -1.756087 2.130120 0
M  V30 END ATOM
M  V30 BEGIN BOND
M  V30 1 1 1 2
M  V30 2 2 2 3
M  V30 3 1 3 4
M  V30 4 2 4 5
M  V30 5 1 5 6
M  V30 6 1 6 7
M  V30 7 2 7 8
M  V30 8 1 8 9
M  V30 9 1 9 10
M  V30 10 2 10 11
M  V30 11 1 10 12
M  V30 12 1 12 13
M  V30 13 2 13 14
M  V30 14 1 14 15
M  V30 15 2 15 16
M  V30 16 1 16 17
M  V30 17 1 17 18
M  V30 18 2 17 19
M  V30 19 1 9 20
M  V30 20 2 20 21
M  V30 21 1 21 22
M  V30 22 1 22 23
M  V30 23 2 23 24
M  V30 24 1 24 25
M  V30 25 2 25 26
M  V30 26 1 26 27
M  V30 27 2 27 28
M  V30 28 1 28 29
M  V30 29 1 29 30
M  V30 30 2 6 31
M  V30 31 1 31 2
M  V30 32 1 21 7
M  V30 33 2 30 22
M  V30 34 1 19 13
M  V30 35 1 29 25
M  V30 36 1 1 32
M  V30 37 1 1 33
M  V30 38 1 1 34
M  V30 39 1 3 35
M  V30 40 1 4 36
M  V30 41 1 5 37
M  V30 42 1 12 38
M  V30 43 1 14 39
M  V30 44 1 15 40
M  V30 45 1 16 41
M  V30 46 1 19 42
M  V30 47 1 20 43
M  V30 48 1 23 44
M  V30 49 1 24 45
M  V30 50 1 27 46
M  V30 51 1 30 47
M  V30 END BOND
M  V30 END CTAB
M  END
>  <Dataset>  (546) 
ChEMBL_Kinases

>  <Ligand_Instance>  (546) 
nan

>  <PDB_ID>  (546) 
nan

>  <Standardized_SMILES>  (546) 
Cc1cccc(-c2nn(C(=S)Nc3cccc(F)c3)cc2-c2ccc3ncnn3c2)n1

>  <Name>  (546) 
nan

>  <Pocket>  (546) 
nan

>  <ATP_Site>  (546) 
nan

>  <Peripheral>  (546) 
nan

>  <Num_H_Atoms_ProtBoundConf>  (546) 
nan

>  <Num_Resolved_Atoms>  (546) 
nan

>  <Num_Not_Resolved_Atoms>  (546) 
nan

$$$$
CHEMBL1835519
     RDKit          3D

  0  0  0  0  0  0  0  0  0  0999 V3000
M  V30 BEGIN CTAB
M  V30 COUNTS 47 51 0 0 0
M  V30 BEGIN ATOM
M  V30 1 C -0.871946 -4.322468 5.000984 0
M  V30 2 C -0.449503 -4.176142 3.573015 0
M  V30 3 C -0.350991 -5.274627 2.744058 0
M  V30 4 C 0.049699 -5.052777 1.420424 0
M  V30 5 C 0.313174 -3.769178 1.046562 0
M  V30 6 C 0.211092 -2.664397 1.890542 0
M  V30 7 C 0.537818 -1.380274 1.287496 0
M  V30 8 N 1.446315 -0.417777 1.453479 0
M  V30 9 N 1.262597 0.562298 0.587824 0
M  V30 10 C 2.072310 1.729022 0.516470 0
M  V30 11 S 3.635410 1.363376 0.196319 0
M  V30 12 N 1.738839 3.097584 0.674319 0
M  V30 13 C 2.697764 4.135313 0.566163 0
M  V30 14 C 3.358011 4.527156 1.711350 0
M  V30 15 C 4.291187 5.550496 1.550102 0
M  V30 16 C 4.514051 6.112060 0.309427 0
M  V30 17 C 3.822899 5.682267 -0.814811 0
M  V30 18 Cl 4.154809 6.440662 -2.368672 0
M  V30 19 C 2.887534 4.667231 -0.694285 0
M  V30 20 C 0.204592 0.292313 -0.208182 0
M  V30 21 C -0.269692 -0.948763 0.228405 0
M  V30 22 C -1.435819 -1.585905 -0.408308 0
M  V30 23 C -1.575721 -1.995299 -1.718330 0
M  V30 24 C -2.760876 -2.575985 -2.112020 0
M  V30 25 C -3.791232 -2.744148 -1.206445 0
M  V30 26 N -5.025829 -3.278961 -1.354898 0
M  V30 27 C -5.655466 -3.209770 -0.163446 0
M  V30 28 N -4.806115 -2.632779 0.713237 0
M  V30 29 N -3.673990 -2.348086 0.087335 0
M  V30 30 C -2.497890 -1.773300 0.472688 0
M  V30 31 N -0.181251 -2.940099 3.161475 0
M  V30 32 H -1.637017 -3.568560 5.266005 0
M  V30 33 H -1.328198 -5.309271 5.186776 0
M  V30 34 H -0.015516 -4.164280 5.687732 0
M  V30 35 H -0.576385 -6.266547 3.108902 0
M  V30 36 H 0.131900 -5.901005 0.758867 0
M  V30 37 H 0.622384 -3.671087 -0.005779 0
M  V30 38 H 0.798359 3.478796 0.877903 0
M  V30 39 H 3.138047 4.046053 2.658726 0
M  V30 40 H 4.814904 5.862173 2.457037 0
M  V30 41 H 5.266307 6.910395 0.279741 0
M  V30 42 H 2.341821 4.322628 -1.560075 0
M  V30 43 H -0.122822 0.947993 -0.977979 0
M  V30 44 H -0.710759 -1.810207 -2.316391 0
M  V30 45 H -2.840304 -2.883273 -3.132846 0
M  V30 46 H -6.661301 -3.526471 0.156526 0
M  V30 47 H -2.483115 -1.480653 1.534174 0
M  V30 END ATOM
M  V30 BEGIN BOND
M  V30 1 1 1 2
M  V30 2 2 2 3
M  V30 3 1 3 4
M  V30 4 2 4 5
M  V30 5 1 5 6
M  V30 6 1 6 7
M  V30 7 2 7 8
M  V30 8 1 8 9
M  V30 9 1 9 10
M  V30 10 2 10 11
M  V30 11 1 10 12
M  V30 12 1 12 13
M  V30 13 2 13 14
M  V30 14 1 14 15
M  V30 15 2 15 16
M  V30 16 1 16 17
M  V30 17 1 17 18
M  V30 18 2 17 19
M  V30 19 1 9 20
M  V30 20 2 20 21
M  V30 21 1 21 22
M  V30 22 1 22 23
M  V30 23 2 23 24
M  V30 24 1 24 25
M  V30 25 2 25 26
M  V30 26 1 26 27
M  V30 27 2 27 28
M  V30 28 1 28 29
M  V30 29 1 29 30
M  V30 30 2 6 31
M  V30 31 1 31 2
M  V30 32 1 21 7
M  V30 33 2 30 22
M  V30 34 1 19 13
M  V30 35 1 29 25
M  V30 36 1 1 32
M  V30 37 1 1 33
M  V30 38 1 1 34
M  V30 39 1 3 35
M  V30 40 1 4 36
M  V30 41 1 5 37
M  V30 42 1 12 38
M  V30 43 1 14 39
M  V30 44 1 15 40
M  V30 45 1 16 41
M  V30 46 1 19 42
M  V30 47 1 20 43
M  V30 48 1 23 44
M  V30 49 1 24 45
M  V30 50 1 27 46
M  V30 51 1 30 47
M  V30 END BOND
M  V30 END CTAB
M  END
>  <Dataset>  (547) 
ChEMBL_Kinases

>  <Ligand_Instance>  (547) 
nan

>  <PDB_ID>  (547) 
nan

>  <Standardized_SMILES>  (547) 
Cc1cccc(-c2nn(C(=S)Nc3cccc(Cl)c3)cc2-c2ccc3ncnn3c2)n1

>  <Name>  (547) 
nan

>  <Pocket>  (547) 
nan

>  <ATP_Site>  (547) 
nan

>  <Peripheral>  (547) 
nan

>  <Num_H_Atoms_ProtBoundConf>  (547) 
nan

>  <Num_Resolved_Atoms>  (547) 
nan

>  <Num_Not_Resolved_Atoms>  (547) 
nan

$$$$
CHEMBL1835529
     RDKit          3D

  0  0  0  0  0  0  0  0  0  0999 V3000
M  V30 BEGIN CTAB
M  V30 COUNTS 50 54 0 0 0
M  V30 BEGIN ATOM
M  V30 1 C 3.328162 -4.451021 3.441926 0
M  V30 2 C 2.861880 -3.103387 3.056712 0
M  V30 3 C 2.396946 -2.313895 4.089417 0
M  V30 4 C 1.943328 -1.049066 3.674728 0
M  V30 5 C 2.033163 -0.791669 2.308046 0
M  V30 6 C 2.524352 -1.641368 1.269563 0
M  V30 7 C 2.320184 -0.862872 0.088749 0
M  V30 8 N 2.945667 0.323774 -0.213501 0
M  V30 9 N 2.316238 0.846651 -1.276810 0
M  V30 10 C 2.170140 2.140217 -1.980883 0
M  V30 11 S 3.104534 2.736899 -3.125950 0
M  V30 12 N 1.016546 2.561017 -1.257591 0
M  V30 13 C -0.196342 3.013278 -0.504293 0
M  V30 14 C -0.102520 3.670805 0.659536 0
M  V30 15 C -1.301333 3.710725 1.401290 0
M  V30 16 C -2.410561 3.088807 0.883620 0
M  V30 17 C -3.640455 2.943990 1.676360 0
M  V30 18 F -3.801517 1.544449 1.983024 0
M  V30 19 F -3.628632 3.628506 2.891718 0
M  V30 20 F -4.760509 3.279803 0.971685 0
M  V30 21 C -2.477586 2.408463 -0.348532 0
M  V30 22 C -1.292893 2.355269 -1.108750 0
M  V30 23 C 1.286578 -0.050709 -1.648539 0
M  V30 24 C 1.273451 -1.194930 -0.730410 0
M  V30 25 C 0.211358 -2.103018 -0.958267 0
M  V30 26 C -0.410037 -2.418700 -2.193997 0
M  V30 27 C -1.471359 -3.295198 -2.140746 0
M  V30 28 C -1.986812 -3.887714 -1.029517 0
M  V30 29 N -3.002541 -4.743177 -0.742428 0
M  V30 30 C -3.007771 -4.958018 0.618812 0
M  V30 31 N -1.991533 -4.229124 1.160142 0
M  V30 32 N -1.347542 -3.553455 0.142928 0
M  V30 33 C -0.339740 -2.731414 0.130324 0
M  V30 34 N 2.921559 -2.791937 1.766099 0
M  V30 35 H 4.368797 -4.295983 3.844912 0
M  V30 36 H 3.478132 -5.103847 2.559665 0
M  V30 37 H 2.731910 -4.928509 4.212260 0
M  V30 38 H 2.382036 -2.680892 5.111731 0
M  V30 39 H 1.568110 -0.425300 4.509860 0
M  V30 40 H 1.632419 0.252421 2.249666 0
M  V30 41 H 1.086221 1.853511 -0.502899 0
M  V30 42 H 0.857517 4.041154 0.824214 0
M  V30 43 H -1.291171 4.222590 2.321015 0
M  V30 44 H -3.339838 1.927273 -0.772030 0
M  V30 45 H -1.304361 1.830264 -2.064216 0
M  V30 46 H 0.629048 0.092761 -2.516869 0
M  V30 47 H -0.022242 -1.967704 -3.075331 0
M  V30 48 H -1.982726 -3.555689 -3.046931 0
M  V30 49 H -3.459713 -5.447881 1.458788 0
M  V30 50 H 0.082981 -2.537588 1.100966 0
M  V30 END ATOM
M  V30 BEGIN BOND
M  V30 1 1 1 2
M  V30 2 2 2 3
M  V30 3 1 3 4
M  V30 4 2 4 5
M  V30 5 1 5 6
M  V30 6 1 6 7
M  V30 7 2 7 8
M  V30 8 1 8 9
M  V30 9 1 9 10
M  V30 10 2 10 11
M  V30 11 1 10 12
M  V30 12 1 12 13
M  V30 13 2 13 14
M  V30 14 1 14 15
M  V30 15 2 15 16
M  V30 16 1 16 17
M  V30 17 1 17 18
M  V30 18 1 17 19
M  V30 19 1 17 20
M  V30 20 1 16 21
M  V30 21 2 21 22
M  V30 22 1 9 23
M  V30 23 2 23 24
M  V30 24 1 24 25
M  V30 25 1 25 26
M  V30 26 2 26 27
M  V30 27 1 27 28
M  V30 28 2 28 29
M  V30 29 1 29 30
M  V30 30 2 30 31
M  V30 31 1 31 32
M  V30 32 1 32 33
M  V30 33 2 6 34
M  V30 34 1 34 2
M  V30 35 1 24 7
M  V30 36 2 33 25
M  V30 37 1 22 13
M  V30 38 1 32 28
M  V30 39 1 1 35
M  V30 40 1 1 36
M  V30 41 1 1 37
M  V30 42 1 3 38
M  V30 43 1 4 39
M  V30 44 1 5 40
M  V30 45 1 12 41
M  V30 46 1 14 42
M  V30 47 1 15 43
M  V30 48 1 21 44
M  V30 49 1 22 45
M  V30 50 1 23 46
M  V30 51 1 26 47
M  V30 52 1 27 48
M  V30 53 1 30 49
M  V30 54 1 33 50
M  V30 END BOND
M  V30 END CTAB
M  END
>  <Dataset>  (548) 
ChEMBL_Kinases

>  <Ligand_Instance>  (548) 
nan

>  <PDB_ID>  (548) 
nan

>  <Standardized_SMILES>  (548) 
Cc1cccc(-c2nn(C(=S)Nc3ccc(C(F)(F)F)cc3)cc2-c2ccc3ncnn3c2)n1

>  <Name>  (548) 
nan

>  <Pocket>  (548) 
nan

>  <ATP_Site>  (548) 
nan

>  <Peripheral>  (548) 
nan

>  <Num_H_Atoms_ProtBoundConf>  (548) 
nan

>  <Num_Resolved_Atoms>  (548) 
nan

>  <Num_Not_Resolved_Atoms>  (548) 
nan

$$$$
CHEMBL1835521
     RDKit          3D

  0  0  0  0  0  0  0  0  0  0999 V3000
M  V30 BEGIN CTAB
M  V30 COUNTS 50 54 0 0 0
M  V30 BEGIN ATOM
M  V30 1 C 2.670976 -4.178161 3.727289 0
M  V30 2 C 1.921490 -3.001989 3.243567 0
M  V30 3 C 1.136485 -2.258658 4.138043 0
M  V30 4 C 0.434934 -1.161387 3.660209 0
M  V30 5 C 0.616626 -0.940477 2.305510 0
M  V30 6 C 1.402196 -1.673045 1.387423 0
M  V30 7 C 1.277267 -1.047792 0.053359 0
M  V30 8 N 1.939353 0.145570 -0.063674 0
M  V30 9 N 1.716195 0.642509 -1.263787 0
M  V30 10 C 2.041037 1.943310 -1.856478 0
M  V30 11 S 2.757614 2.298308 -3.248266 0
M  V30 12 N 1.582108 2.857464 -0.901304 0
M  V30 13 C 1.129124 3.761471 0.041249 0
M  V30 14 C 0.796018 4.679506 0.960624 0
M  V30 15 C -0.280974 5.056857 1.661537 0
M  V30 16 C -1.462543 4.393183 1.482431 0
M  V30 17 C -1.488287 3.365470 0.589904 0
M  V30 18 C -2.802466 2.681056 0.489895 0
M  V30 19 F -2.874356 1.603367 1.377427 0
M  V30 20 F -2.836782 2.090295 -0.770807 0
M  V30 21 F -3.825793 3.512401 0.728815 0
M  V30 22 C -0.241322 3.111541 -0.059747 0
M  V30 23 C 0.932285 -0.185710 -1.959118 0
M  V30 24 C 0.630985 -1.267601 -1.166073 0
M  V30 25 C -0.090466 -2.522254 -1.083280 0
M  V30 26 C -1.407203 -2.260041 -0.697136 0
M  V30 27 C -2.314006 -3.303273 -0.537092 0
M  V30 28 C -1.813786 -4.564779 -0.782431 0
M  V30 29 N -2.376468 -5.785235 -0.725885 0
M  V30 30 C -1.470821 -6.714560 -1.050883 0
M  V30 31 N -0.312882 -6.067252 -1.319629 0
M  V30 32 N -0.540717 -4.761159 -1.150841 0
M  V30 33 C 0.367338 -3.785820 -1.316660 0
M  V30 34 N 2.045102 -2.713306 1.923023 0
M  V30 35 H 3.673660 -3.831220 4.048729 0
M  V30 36 H 2.787325 -4.984260 2.975290 0
M  V30 37 H 2.161341 -4.520752 4.663455 0
M  V30 38 H 1.078601 -2.530267 5.178808 0
M  V30 39 H -0.188849 -0.538903 4.276761 0
M  V30 40 H 0.021572 -0.054675 2.000813 0
M  V30 41 H 1.812080 2.277012 -0.000027 0
M  V30 42 H 1.859262 5.075439 0.934834 0
M  V30 43 H 0.077343 5.887817 2.271152 0
M  V30 44 H -2.202478 4.814038 2.120615 0
M  V30 45 H -0.649944 2.232506 -0.680318 0
M  V30 46 H 0.464687 -0.254105 -2.948518 0
M  V30 47 H -1.879687 -1.296356 -0.483352 0
M  V30 48 H -3.343286 -3.244371 -0.249899 0
M  V30 49 H -1.430049 -7.802271 -1.155792 0
M  V30 50 H 1.401684 -3.820880 -1.600502 0
M  V30 END ATOM
M  V30 BEGIN BOND
M  V30 1 1 1 2
M  V30 2 2 2 3
M  V30 3 1 3 4
M  V30 4 2 4 5
M  V30 5 1 5 6
M  V30 6 1 6 7
M  V30 7 2 7 8
M  V30 8 1 8 9
M  V30 9 1 9 10
M  V30 10 2 10 11
M  V30 11 1 10 12
M  V30 12 1 12 13
M  V30 13 2 13 14
M  V30 14 1 14 15
M  V30 15 2 15 16
M  V30 16 1 16 17
M  V30 17 1 17 18
M  V30 18 1 18 19
M  V30 19 1 18 20
M  V30 20 1 18 21
M  V30 21 2 17 22
M  V30 22 1 9 23
M  V30 23 2 23 24
M  V30 24 1 24 25
M  V30 25 1 25 26
M  V30 26 2 26 27
M  V30 27 1 27 28
M  V30 28 2 28 29
M  V30 29 1 29 30
M  V30 30 2 30 31
M  V30 31 1 31 32
M  V30 32 1 32 33
M  V30 33 2 6 34
M  V30 34 1 34 2
M  V30 35 1 24 7
M  V30 36 2 33 25
M  V30 37 1 22 13
M  V30 38 1 32 28
M  V30 39 1 1 35
M  V30 40 1 1 36
M  V30 41 1 1 37
M  V30 42 1 3 38
M  V30 43 1 4 39
M  V30 44 1 5 40
M  V30 45 1 12 41
M  V30 46 1 14 42
M  V30 47 1 15 43
M  V30 48 1 16 44
M  V30 49 1 22 45
M  V30 50 1 23 46
M  V30 51 1 26 47
M  V30 52 1 27 48
M  V30 53 1 30 49
M  V30 54 1 33 50
M  V30 END BOND
M  V30 END CTAB
M  END
>  <Dataset>  (549) 
ChEMBL_Kinases

>  <Ligand_Instance>  (549) 
nan

>  <PDB_ID>  (549) 
nan

>  <Standardized_SMILES>  (549) 
Cc1cccc(-c2nn(C(=S)Nc3cccc(C(F)(F)F)c3)cc2-c2ccc3ncnn3c2)n1

>  <Name>  (549) 
nan

>  <Pocket>  (549) 
nan

>  <ATP_Site>  (549) 
nan

>  <Peripheral>  (549) 
nan

>  <Num_H_Atoms_ProtBoundConf>  (549) 
nan

>  <Num_Resolved_Atoms>  (549) 
nan

>  <Num_Not_Resolved_Atoms>  (549) 
nan

$$$$
CHEMBL1835522
     RDKit          3D

  0  0  0  0  0  0  0  0  0  0999 V3000
M  V30 BEGIN CTAB
M  V30 COUNTS 51 55 0 0 0
M  V30 BEGIN ATOM
M  V30 1 C 5.924808 -3.553532 6.045901 0
M  V30 2 O 4.866515 -3.102770 5.252939 0
M  V30 3 C 5.123117 -2.286798 4.161855 0
M  V30 4 C 6.318800 -1.822473 3.706503 0
M  V30 5 C 6.553937 -1.017449 2.628930 0
M  V30 6 C 5.415397 -0.640156 1.928214 0
M  V30 7 C 4.166181 -1.107974 2.379548 0
M  V30 8 N 3.218021 -0.575655 1.503263 0
M  V30 9 C 2.292814 -0.038259 0.623853 0
M  V30 10 S 3.289143 0.805961 -0.357548 0
M  V30 11 N 0.952830 0.106313 0.209014 0
M  V30 12 C 0.039013 1.034814 0.543092 0
M  V30 13 C -1.057289 0.612193 -0.177920 0
M  V30 14 C -2.294331 1.421818 -0.051357 0
M  V30 15 C -2.884239 1.387580 1.220336 0
M  V30 16 C -4.028904 2.085536 1.504665 0
M  V30 17 C -4.585314 2.828282 0.489991 0
M  V30 18 N -5.687575 3.619366 0.425129 0
M  V30 19 C -5.751169 4.109440 -0.847471 0
M  V30 20 N -4.706921 3.622173 -1.535324 0
M  V30 21 N -4.016770 2.858571 -0.728182 0
M  V30 22 C -2.885669 2.178227 -1.035563 0
M  V30 23 C -0.807309 -0.530979 -0.919445 0
M  V30 24 C -1.781888 -1.196284 -1.776036 0
M  V30 25 C -2.342193 -0.755874 -2.956450 0
M  V30 26 C -3.263466 -1.526423 -3.631972 0
M  V30 27 C -3.626571 -2.751059 -3.118705 0
M  V30 28 C -3.049198 -3.164131 -1.936680 0
M  V30 29 C -3.491568 -4.490623 -1.451638 0
M  V30 30 N -2.143324 -2.412754 -1.267082 0
M  V30 31 N 0.494262 -0.807507 -0.631549 0
M  V30 32 C 4.019329 -1.913441 3.471503 0
M  V30 33 H 6.666075 -2.734444 6.136371 0
M  V30 34 H 5.551889 -3.858272 7.054298 0
M  V30 35 H 6.427963 -4.416802 5.546025 0
M  V30 36 H 7.179684 -2.137673 4.275651 0
M  V30 37 H 7.586135 -0.725319 2.387776 0
M  V30 38 H 5.644671 0.001732 1.075851 0
M  V30 39 H 2.306629 -0.972978 1.890712 0
M  V30 40 H 0.194026 1.868628 1.210650 0
M  V30 41 H -2.463820 0.809970 2.035459 0
M  V30 42 H -4.509663 2.079147 2.479545 0
M  V30 43 H -6.537776 4.769131 -1.164410 0
M  V30 44 H -2.392922 2.173593 -1.993071 0
M  V30 45 H -1.990472 0.211376 -3.274789 0
M  V30 46 H -3.673657 -1.125150 -4.563406 0
M  V30 47 H -4.361669 -3.343600 -3.675956 0
M  V30 48 H -3.018199 -5.253852 -2.110886 0
M  V30 49 H -3.085700 -4.656799 -0.424353 0
M  V30 50 H -4.573247 -4.594464 -1.541911 0
M  V30 51 H 3.027288 -2.197064 3.709293 0
M  V30 END ATOM
M  V30 BEGIN BOND
M  V30 1 1 1 2
M  V30 2 1 2 3
M  V30 3 2 3 4
M  V30 4 1 4 5
M  V30 5 2 5 6
M  V30 6 1 6 7
M  V30 7 1 7 8
M  V30 8 1 8 9
M  V30 9 2 9 10
M  V30 10 1 9 11
M  V30 11 1 11 12
M  V30 12 2 12 13
M  V30 13 1 13 14
M  V30 14 1 14 15
M  V30 15 2 15 16
M  V30 16 1 16 17
M  V30 17 2 17 18
M  V30 18 1 18 19
M  V30 19 2 19 20
M  V30 20 1 20 21
M  V30 21 1 21 22
M  V30 22 1 13 23
M  V30 23 1 23 24
M  V30 24 2 24 25
M  V30 25 1 25 26
M  V30 26 2 26 27
M  V30 27 1 27 28
M  V30 28 1 28 29
M  V30 29 2 28 30
M  V30 30 2 23 31
M  V30 31 2 7 32
M  V30 32 1 32 3
M  V30 33 1 31 11
M  V30 34 2 22 14
M  V30 35 1 30 24
M  V30 36 1 21 17
M  V30 37 1 1 33
M  V30 38 1 1 34
M  V30 39 1 1 35
M  V30 40 1 4 36
M  V30 41 1 5 37
M  V30 42 1 6 38
M  V30 43 1 8 39
M  V30 44 1 12 40
M  V30 45 1 15 41
M  V30 46 1 16 42
M  V30 47 1 19 43
M  V30 48 1 22 44
M  V30 49 1 25 45
M  V30 50 1 26 46
M  V30 51 1 27 47
M  V30 52 1 29 48
M  V30 53 1 29 49
M  V30 54 1 29 50
M  V30 55 1 32 51
M  V30 END BOND
M  V30 END CTAB
M  END
>  <Dataset>  (550) 
ChEMBL_Kinases

>  <Ligand_Instance>  (550) 
nan

>  <PDB_ID>  (550) 
nan

>  <Standardized_SMILES>  (550) 
COc1cccc(NC(=S)n2cc(-c3ccc4ncnn4c3)c(-c3cccc(C)n3)n2)c1

>  <Name>  (550) 
nan

>  <Pocket>  (550) 
nan

>  <ATP_Site>  (550) 
nan

>  <Peripheral>  (550) 
nan

>  <Num_H_Atoms_ProtBoundConf>  (550) 
nan

>  <Num_Resolved_Atoms>  (550) 
nan

>  <Num_Not_Resolved_Atoms>  (550) 
nan

$$$$
CHEMBL1835523
     RDKit          3D

  0  0  0  0  0  0  0  0  0  0999 V3000
M  V30 BEGIN CTAB
M  V30 COUNTS 51 55 0 0 0
M  V30 BEGIN ATOM
M  V30 1 C 0.676821 -4.259389 4.497668 0
M  V30 2 C 1.693682 -3.556528 3.674525 0
M  V30 3 C 3.061838 -3.777740 3.870054 0
M  V30 4 C 3.974882 -3.093868 3.083740 0
M  V30 5 C 3.514767 -2.211187 2.126172 0
M  V30 6 C 2.135878 -2.036090 1.982465 0
M  V30 7 C 1.687482 -1.090141 0.976721 0
M  V30 8 N 2.001893 0.230131 1.156588 0
M  V30 9 N 1.503262 0.893474 0.153020 0
M  V30 10 C 1.463856 2.175857 -0.163850 0
M  V30 11 S 2.940829 2.327616 -0.947794 0
M  V30 12 N 1.426606 3.527505 -0.500166 0
M  V30 13 C 0.161632 3.849635 0.112910 0
M  V30 14 C 0.020572 4.644826 1.253784 0
M  V30 15 C -1.139849 4.987463 1.914114 0
M  V30 16 C -2.293194 4.476001 1.371710 0
M  V30 17 C -2.287576 3.679072 0.251408 0
M  V30 18 O -3.451688 3.129569 -0.332465 0
M  V30 19 C -3.902221 1.850120 0.115825 0
M  V30 20 F -5.034601 1.525350 -0.582585 0
M  V30 21 F -4.206166 1.920720 1.484572 0
M  V30 22 F -2.931530 0.883064 -0.050152 0
M  V30 23 C -1.077032 3.384759 -0.350915 0
M  V30 24 C 0.861088 0.039195 -0.699897 0
M  V30 25 C 0.969929 -1.258019 -0.179201 0
M  V30 26 C 0.435403 -2.495197 -0.732250 0
M  V30 27 C 1.109518 -3.657239 -1.025055 0
M  V30 28 C 0.345491 -4.656700 -1.577175 0
M  V30 29 C -1.000963 -4.578641 -1.848992 0
M  V30 30 N -1.897499 -5.418603 -2.380769 0
M  V30 31 C -3.114755 -4.789692 -2.416905 0
M  V30 32 N -2.877252 -3.558672 -1.888750 0
M  V30 33 N -1.613410 -3.420126 -1.543174 0
M  V30 34 C -0.938182 -2.368577 -0.990538 0
M  V30 35 N 1.250121 -2.699508 2.744464 0
M  V30 36 H -0.249382 -3.678645 4.652638 0
M  V30 37 H 1.120892 -4.408272 5.527163 0
M  V30 38 H 0.500167 -5.285009 4.095309 0
M  V30 39 H 3.350651 -4.469913 4.628269 0
M  V30 40 H 5.030668 -3.295156 3.265764 0
M  V30 41 H 4.257082 -1.694422 1.520883 0
M  V30 42 H 1.581514 4.446583 -0.834163 0
M  V30 43 H 0.950673 5.044055 1.668102 0
M  V30 44 H -1.088207 5.617986 2.788104 0
M  V30 45 H -3.238355 4.705739 1.843141 0
M  V30 46 H -1.038681 2.754431 -1.245283 0
M  V30 47 H 0.315031 0.160609 -1.643059 0
M  V30 48 H 2.144463 -3.664748 -0.793792 0
M  V30 49 H 0.832016 -5.586801 -1.822044 0
M  V30 50 H -4.152023 -4.880549 -2.692544 0
M  V30 51 H -1.538441 -1.491033 -0.792935 0
M  V30 END ATOM
M  V30 BEGIN BOND
M  V30 1 1 1 2
M  V30 2 2 2 3
M  V30 3 1 3 4
M  V30 4 2 4 5
M  V30 5 1 5 6
M  V30 6 1 6 7
M  V30 7 2 7 8
M  V30 8 1 8 9
M  V30 9 1 9 10
M  V30 10 2 10 11
M  V30 11 1 10 12
M  V30 12 1 12 13
M  V30 13 2 13 14
M  V30 14 1 14 15
M  V30 15 2 15 16
M  V30 16 1 16 17
M  V30 17 1 17 18
M  V30 18 1 18 19
M  V30 19 1 19 20
M  V30 20 1 19 21
M  V30 21 1 19 22
M  V30 22 2 17 23
M  V30 23 1 9 24
M  V30 24 2 24 25
M  V30 25 1 25 26
M  V30 26 1 26 27
M  V30 27 2 27 28
M  V30 28 1 28 29
M  V30 29 2 29 30
M  V30 30 1 30 31
M  V30 31 2 31 32
M  V30 32 1 32 33
M  V30 33 1 33 34
M  V30 34 2 6 35
M  V30 35 1 35 2
M  V30 36 1 25 7
M  V30 37 2 34 26
M  V30 38 1 23 13
M  V30 39 1 33 29
M  V30 40 1 1 36
M  V30 41 1 1 37
M  V30 42 1 1 38
M  V30 43 1 3 39
M  V30 44 1 4 40
M  V30 45 1 5 41
M  V30 46 1 12 42
M  V30 47 1 14 43
M  V30 48 1 15 44
M  V30 49 1 16 45
M  V30 50 1 23 46
M  V30 51 1 24 47
M  V30 52 1 27 48
M  V30 53 1 28 49
M  V30 54 1 31 50
M  V30 55 1 34 51
M  V30 END BOND
M  V30 END CTAB
M  END
>  <Dataset>  (551) 
ChEMBL_Kinases

>  <Ligand_Instance>  (551) 
nan

>  <PDB_ID>  (551) 
nan

>  <Standardized_SMILES>  (551) 
Cc1cccc(-c2nn(C(=S)Nc3cccc(OC(F)(F)F)c3)cc2-c2ccc3ncnn3c2)n1

>  <Name>  (551) 
nan

>  <Pocket>  (551) 
nan

>  <ATP_Site>  (551) 
nan

>  <Peripheral>  (551) 
nan

>  <Num_H_Atoms_ProtBoundConf>  (551) 
nan

>  <Num_Resolved_Atoms>  (551) 
nan

>  <Num_Not_Resolved_Atoms>  (551) 
nan

$$$$
CHEMBL1835524
     RDKit          3D

  0  0  0  0  0  0  0  0  0  0999 V3000
M  V30 BEGIN CTAB
M  V30 COUNTS 48 52 0 0 0
M  V30 BEGIN ATOM
M  V30 1 C -1.716622 -2.007262 5.334109 0
M  V30 2 C -0.867676 -1.721921 4.168009 0
M  V30 3 C 0.405245 -2.208610 4.076528 0
M  V30 4 C 1.227805 -1.969773 2.983427 0
M  V30 5 C 0.604811 -1.184603 2.014740 0
M  V30 6 C -0.691422 -0.679838 2.101639 0
M  V30 7 C -1.031853 0.134531 0.921271 0
M  V30 8 N -0.464647 1.355740 1.081222 0
M  V30 9 N -0.725169 2.128521 -0.005250 0
M  V30 10 C -0.244511 3.500365 -0.126831 0
M  V30 11 S -1.194510 4.805948 -0.166853 0
M  V30 12 N 1.090536 3.186743 -0.178721 0
M  V30 13 C 2.487884 2.869451 -0.233364 0
M  V30 14 C 3.740703 3.338391 0.017884 0
M  V30 15 C 4.792756 2.541017 -0.270562 0
M  V30 16 C 4.640533 1.322727 -0.791771 0
M  V30 17 C 3.419519 0.778303 -1.080381 0
M  V30 18 C 3.413210 -0.548557 -1.667497 0
M  V30 19 N 3.398526 -1.585373 -2.111959 0
M  V30 20 C 2.298236 1.571561 -0.791888 0
M  V30 21 C -1.450574 1.332443 -0.783580 0
M  V30 22 C -1.703997 0.102072 -0.330478 0
M  V30 23 C -2.231012 -1.251611 -0.305969 0
M  V30 24 C -3.353097 -1.638425 0.453494 0
M  V30 25 C -3.755598 -2.987779 0.499996 0
M  V30 26 C -2.947612 -3.824720 -0.256865 0
M  V30 27 N -3.143737 -5.174403 -0.341651 0
M  V30 28 C -2.168757 -5.695279 -1.152315 0
M  V30 29 N -1.396060 -4.659688 -1.553561 0
M  V30 30 N -1.873922 -3.541985 -1.005351 0
M  V30 31 C -1.492877 -2.205482 -1.035908 0
M  V30 32 N -1.408737 -0.965044 3.196963 0
M  V30 33 H -2.693168 -2.359322 4.905789 0
M  V30 34 H -1.287123 -2.813050 5.954444 0
M  V30 35 H -1.947714 -1.078859 5.840887 0
M  V30 36 H 0.892662 -2.824603 4.848960 0
M  V30 37 H 2.237896 -2.333338 2.842549 0
M  V30 38 H 1.236468 -0.986091 1.134539 0
M  V30 39 H 1.339329 4.223779 -0.271682 0
M  V30 40 H 3.541940 4.336426 0.429665 0
M  V30 41 H 5.713066 3.095874 0.017733 0
M  V30 42 H 5.563050 0.771972 -0.978263 0
M  V30 43 H 1.431818 0.954474 -1.092616 0
M  V30 44 H -1.887353 1.515647 -1.747695 0
M  V30 45 H -3.860182 -0.850478 0.974821 0
M  V30 46 H -4.615628 -3.268679 1.069603 0
M  V30 47 H -1.937806 -6.723151 -1.468865 0
M  V30 48 H -0.640602 -1.945271 -1.623670 0
M  V30 END ATOM
M  V30 BEGIN BOND
M  V30 1 1 1 2
M  V30 2 2 2 3
M  V30 3 1 3 4
M  V30 4 2 4 5
M  V30 5 1 5 6
M  V30 6 1 6 7
M  V30 7 2 7 8
M  V30 8 1 8 9
M  V30 9 1 9 10
M  V30 10 2 10 11
M  V30 11 1 10 12
M  V30 12 1 12 13
M  V30 13 2 13 14
M  V30 14 1 14 15
M  V30 15 2 15 16
M  V30 16 1 16 17
M  V30 17 1 17 18
M  V30 18 3 18 19
M  V30 19 2 17 20
M  V30 20 1 9 21
M  V30 21 2 21 22
M  V30 22 1 22 23
M  V30 23 1 23 24
M  V30 24 2 24 25
M  V30 25 1 25 26
M  V30 26 2 26 27
M  V30 27 1 27 28
M  V30 28 2 28 29
M  V30 29 1 29 30
M  V30 30 1 30 31
M  V30 31 2 6 32
M  V30 32 1 32 2
M  V30 33 1 22 7
M  V30 34 2 31 23
M  V30 35 1 20 13
M  V30 36 1 30 26
M  V30 37 1 1 33
M  V30 38 1 1 34
M  V30 39 1 1 35
M  V30 40 1 3 36
M  V30 41 1 4 37
M  V30 42 1 5 38
M  V30 43 1 12 39
M  V30 44 1 14 40
M  V30 45 1 15 41
M  V30 46 1 16 42
M  V30 47 1 20 43
M  V30 48 1 21 44
M  V30 49 1 24 45
M  V30 50 1 25 46
M  V30 51 1 28 47
M  V30 52 1 31 48
M  V30 END BOND
M  V30 END CTAB
M  END
>  <Dataset>  (552) 
ChEMBL_Kinases

>  <Ligand_Instance>  (552) 
nan

>  <PDB_ID>  (552) 
nan

>  <Standardized_SMILES>  (552) 
Cc1cccc(-c2nn(C(=S)Nc3cccc(C#N)c3)cc2-c2ccc3ncnn3c2)n1

>  <Name>  (552) 
nan

>  <Pocket>  (552) 
nan

>  <ATP_Site>  (552) 
nan

>  <Peripheral>  (552) 
nan

>  <Num_H_Atoms_ProtBoundConf>  (552) 
nan

>  <Num_Resolved_Atoms>  (552) 
nan

>  <Num_Not_Resolved_Atoms>  (552) 
nan

$$$$
CHEMBL1835525
     RDKit          3D

  0  0  0  0  0  0  0  0  0  0999 V3000
M  V30 BEGIN CTAB
M  V30 COUNTS 51 55 0 0 0
M  V30 BEGIN ATOM
M  V30 1 C 2.924848 -3.147920 4.542149 0
M  V30 2 C 1.507811 -2.635877 4.515065 0
M  V30 3 C 0.644823 -2.764418 5.582024 0
M  V30 4 C -0.649563 -2.298866 5.562635 0
M  V30 5 C -1.043789 -1.684844 4.395228 0
M  V30 6 C -0.145531 -1.568302 3.327104 0
M  V30 7 C -0.529669 -0.914171 2.056846 0
M  V30 8 N -0.877204 0.397364 2.230684 0
M  V30 9 N -1.196768 0.875482 1.041903 0
M  V30 10 C -1.569267 2.106814 0.613881 0
M  V30 11 S -3.095202 2.208566 1.308498 0
M  V30 12 N -1.945849 3.341831 0.186038 0
M  V30 13 C -0.724949 3.595100 -0.545696 0
M  V30 14 C 0.429434 4.192417 -0.030588 0
M  V30 15 C 1.528725 4.375876 -0.843531 0
M  V30 16 C 1.520443 3.976912 -2.182089 0
M  V30 17 C 0.412615 3.383327 -2.745060 0
M  V30 18 C 0.336228 2.944156 -4.129074 0
M  V30 19 N -0.845963 2.335415 -4.628084 0
M  V30 20 O 1.348641 3.121846 -4.865024 0
M  V30 21 C -0.673055 3.222057 -1.874735 0
M  V30 22 C -1.080638 -0.049505 0.095953 0
M  V30 23 C -0.654668 -1.215803 0.696811 0
M  V30 24 C -0.316260 -2.579280 0.350209 0
M  V30 25 C 0.757545 -2.723839 -0.542381 0
M  V30 26 C 1.056824 -4.035430 -0.849210 0
M  V30 27 C 0.430504 -5.155188 -0.383592 0
M  V30 28 N 0.596229 -6.469763 -0.579909 0
M  V30 29 C -0.326164 -7.109771 0.151713 0
M  V30 30 N -1.052804 -6.173018 0.793638 0
M  V30 31 N -0.605474 -4.972593 0.479029 0
M  V30 32 C -0.938417 -3.705279 0.811412 0
M  V30 33 N 1.120472 -2.029660 3.360671 0
M  V30 34 H 3.107191 -3.838022 3.698488 0
M  V30 35 H 3.617098 -2.299217 4.501034 0
M  V30 36 H 3.057895 -3.730311 5.475474 0
M  V30 37 H 1.086050 -3.273026 6.451181 0
M  V30 38 H -1.280462 -2.418857 6.407714 0
M  V30 39 H -2.047441 -1.288560 4.292097 0
M  V30 40 H -2.324435 4.224113 -0.067095 0
M  V30 41 H 0.374262 4.477950 1.008401 0
M  V30 42 H 2.407220 4.840334 -0.416106 0
M  V30 43 H 2.378053 4.114979 -2.829796 0
M  V30 44 H -1.070042 1.420456 -5.075876 0
M  V30 45 H -1.634207 3.032015 -4.474592 0
M  V30 46 H -1.552717 2.746072 -2.338071 0
M  V30 47 H -1.227887 -0.123829 -0.984909 0
M  V30 48 H 1.280312 -1.865307 -0.936884 0
M  V30 49 H 1.877707 -4.219744 -1.533557 0
M  V30 50 H -0.367939 -8.204022 0.136868 0
M  V30 51 H -1.776861 -3.565370 1.507768 0
M  V30 END ATOM
M  V30 BEGIN BOND
M  V30 1 1 1 2
M  V30 2 2 2 3
M  V30 3 1 3 4
M  V30 4 2 4 5
M  V30 5 1 5 6
M  V30 6 1 6 7
M  V30 7 2 7 8
M  V30 8 1 8 9
M  V30 9 1 9 10
M  V30 10 2 10 11
M  V30 11 1 10 12
M  V30 12 1 12 13
M  V30 13 2 13 14
M  V30 14 1 14 15
M  V30 15 2 15 16
M  V30 16 1 16 17
M  V30 17 1 17 18
M  V30 18 1 18 19
M  V30 19 2 18 20
M  V30 20 2 17 21
M  V30 21 1 9 22
M  V30 22 2 22 23
M  V30 23 1 23 24
M  V30 24 1 24 25
M  V30 25 2 25 26
M  V30 26 1 26 27
M  V30 27 2 27 28
M  V30 28 1 28 29
M  V30 29 2 29 30
M  V30 30 1 30 31
M  V30 31 1 31 32
M  V30 32 2 6 33
M  V30 33 1 33 2
M  V30 34 1 23 7
M  V30 35 2 32 24
M  V30 36 1 21 13
M  V30 37 1 31 27
M  V30 38 1 1 34
M  V30 39 1 1 35
M  V30 40 1 1 36
M  V30 41 1 3 37
M  V30 42 1 4 38
M  V30 43 1 5 39
M  V30 44 1 12 40
M  V30 45 1 14 41
M  V30 46 1 15 42
M  V30 47 1 16 43
M  V30 48 1 19 44
M  V30 49 1 19 45
M  V30 50 1 21 46
M  V30 51 1 22 47
M  V30 52 1 25 48
M  V30 53 1 26 49
M  V30 54 1 29 50
M  V30 55 1 32 51
M  V30 END BOND
M  V30 END CTAB
M  END
>  <Dataset>  (553) 
ChEMBL_Kinases

>  <Ligand_Instance>  (553) 
nan

>  <PDB_ID>  (553) 
nan

>  <Standardized_SMILES>  (553) 
Cc1cccc(-c2nn(C(=S)Nc3cccc(C(N)=O)c3)cc2-c2ccc3ncnn3c2)n1

>  <Name>  (553) 
nan

>  <Pocket>  (553) 
nan

>  <ATP_Site>  (553) 
nan

>  <Peripheral>  (553) 
nan

>  <Num_H_Atoms_ProtBoundConf>  (553) 
nan

>  <Num_Resolved_Atoms>  (553) 
nan

>  <Num_Not_Resolved_Atoms>  (553) 
nan

$$$$
CHEMBL1835526
     RDKit          3D

  0  0  0  0  0  0  0  0  0  0999 V3000
M  V30 BEGIN CTAB
M  V30 COUNTS 47 51 0 0 0
M  V30 BEGIN ATOM
M  V30 1 C 0.183829 -3.740300 4.185237 0
M  V30 2 C 0.661017 -3.445048 2.808550 0
M  V30 3 C 1.417091 -4.357368 2.107571 0
M  V30 4 C 1.861061 -4.087556 0.842182 0
M  V30 5 C 1.510630 -2.862433 0.315616 0
M  V30 6 C 0.749861 -1.928673 1.004886 0
M  V30 7 C 0.459982 -0.658858 0.309080 0
M  V30 8 N 1.129282 0.440087 -0.089939 0
M  V30 9 N 0.325865 1.296344 -0.694305 0
M  V30 10 C 1.109753 2.388343 -1.063120 0
M  V30 11 S 0.527736 2.670502 -2.594504 0
M  V30 12 N 1.836341 3.426372 -1.446112 0
M  V30 13 C 2.564732 3.448961 -0.195708 0
M  V30 14 C 2.138382 4.169757 0.931043 0
M  V30 15 C 2.796447 4.234999 2.154309 0
M  V30 16 C 3.986626 3.513423 2.255457 0
M  V30 17 F 4.607691 3.596917 3.446607 0
M  V30 18 C 4.484105 2.776115 1.206898 0
M  V30 19 C 3.762908 2.772251 0.035781 0
M  V30 20 C -0.925783 0.848187 -0.746851 0
M  V30 21 C -0.817171 -0.369878 -0.116251 0
M  V30 22 C -2.075666 -1.142071 -0.008271 0
M  V30 23 C -2.664190 -1.526240 -1.228807 0
M  V30 24 C -3.849681 -2.258812 -1.180999 0
M  V30 25 C -4.406885 -2.583746 0.031084 0
M  V30 26 N -5.527340 -3.275419 0.308694 0
M  V30 27 C -5.630775 -3.319682 1.653918 0
M  V30 28 N -4.555398 -2.643538 2.170260 0
M  V30 29 N -3.799042 -2.188629 1.178167 0
M  V30 30 C -2.647221 -1.476144 1.181376 0
M  V30 31 N 0.357291 -2.265041 2.228681 0
M  V30 32 H -0.908014 -3.936901 4.230426 0
M  V30 33 H 0.686519 -4.663916 4.543267 0
M  V30 34 H 0.508680 -2.916838 4.864994 0
M  V30 35 H 1.689741 -5.318816 2.521474 0
M  V30 36 H 2.460516 -4.767258 0.240666 0
M  V30 37 H 1.844661 -2.624347 -0.686220 0
M  V30 38 H 2.378431 4.195630 -1.723256 0
M  V30 39 H 1.220754 4.725498 0.849786 0
M  V30 40 H 2.386206 4.821519 2.957715 0
M  V30 41 H 5.391764 2.226001 1.297077 0
M  V30 42 H 4.160522 2.186670 -0.789075 0
M  V30 43 H -1.627203 1.486378 -1.216918 0
M  V30 44 H -2.256998 -1.283745 -2.218323 0
M  V30 45 H -4.308810 -2.556469 -2.118103 0
M  V30 46 H -6.404839 -3.790275 2.275843 0
M  V30 47 H -2.203322 -1.180223 2.101716 0
M  V30 END ATOM
M  V30 BEGIN BOND
M  V30 1 1 1 2
M  V30 2 2 2 3
M  V30 3 1 3 4
M  V30 4 2 4 5
M  V30 5 1 5 6
M  V30 6 1 6 7
M  V30 7 2 7 8
M  V30 8 1 8 9
M  V30 9 1 9 10
M  V30 10 2 10 11
M  V30 11 1 10 12
M  V30 12 1 12 13
M  V30 13 2 13 14
M  V30 14 1 14 15
M  V30 15 2 15 16
M  V30 16 1 16 17
M  V30 17 1 16 18
M  V30 18 2 18 19
M  V30 19 1 9 20
M  V30 20 2 20 21
M  V30 21 1 21 22
M  V30 22 1 22 23
M  V30 23 2 23 24
M  V30 24 1 24 25
M  V30 25 2 25 26
M  V30 26 1 26 27
M  V30 27 2 27 28
M  V30 28 1 28 29
M  V30 29 1 29 30
M  V30 30 2 6 31
M  V30 31 1 31 2
M  V30 32 1 21 7
M  V30 33 2 30 22
M  V30 34 1 19 13
M  V30 35 1 29 25
M  V30 36 1 1 32
M  V30 37 1 1 33
M  V30 38 1 1 34
M  V30 39 1 3 35
M  V30 40 1 4 36
M  V30 41 1 5 37
M  V30 42 1 12 38
M  V30 43 1 14 39
M  V30 44 1 15 40
M  V30 45 1 18 41
M  V30 46 1 19 42
M  V30 47 1 20 43
M  V30 48 1 23 44
M  V30 49 1 24 45
M  V30 50 1 27 46
M  V30 51 1 30 47
M  V30 END BOND
M  V30 END CTAB
M  END
>  <Dataset>  (554) 
ChEMBL_Kinases

>  <Ligand_Instance>  (554) 
nan

>  <PDB_ID>  (554) 
nan

>  <Standardized_SMILES>  (554) 
Cc1cccc(-c2nn(C(=S)Nc3ccc(F)cc3)cc2-c2ccc3ncnn3c2)n1

>  <Name>  (554) 
nan

>  <Pocket>  (554) 
nan

>  <ATP_Site>  (554) 
nan

>  <Peripheral>  (554) 
nan

>  <Num_H_Atoms_ProtBoundConf>  (554) 
nan

>  <Num_Resolved_Atoms>  (554) 
nan

>  <Num_Not_Resolved_Atoms>  (554) 
nan

$$$$
CHEMBL1835527
     RDKit          3D

  0  0  0  0  0  0  0  0  0  0999 V3000
M  V30 BEGIN CTAB
M  V30 COUNTS 47 51 0 0 0
M  V30 BEGIN ATOM
M  V30 1 C 0.930657 -5.301375 -0.527636 0
M  V30 2 C 1.151039 -4.077157 0.246518 0
M  V30 3 C 1.897865 -4.154712 1.384635 0
M  V30 4 C 2.141986 -3.039496 2.160333 0
M  V30 5 C 1.596481 -1.845537 1.731781 0
M  V30 6 C 0.832999 -1.782780 0.562703 0
M  V30 7 C 0.357678 -0.436335 0.301929 0
M  V30 8 N 0.809665 0.806126 0.058402 0
M  V30 9 N -0.206041 1.643696 -0.096574 0
M  V30 10 C 0.310923 2.889839 -0.316053 0
M  V30 11 S -0.779562 3.531837 -1.419813 0
M  V30 12 N 0.822839 4.125599 -0.534223 0
M  V30 13 C 1.931690 3.913416 0.336027 0
M  V30 14 C 1.846239 4.227953 1.697071 0
M  V30 15 C 2.835645 4.080845 2.676725 0
M  V30 16 C 4.023876 3.560978 2.207536 0
M  V30 17 Cl 5.284112 3.363636 3.412008 0
M  V30 18 C 4.219236 3.215836 0.886572 0
M  V30 19 C 3.170382 3.399896 -0.016032 0
M  V30 20 C -1.391893 1.049668 0.025742 0
M  V30 21 C -1.006816 -0.258292 0.276354 0
M  V30 22 C -2.139455 -1.196166 0.465658 0
M  V30 23 C -3.028822 -1.404911 -0.582554 0
M  V30 24 C -4.045808 -2.277670 -0.338097 0
M  V30 25 C -4.235233 -2.943221 0.852693 0
M  V30 26 N -5.093031 -3.827035 1.396603 0
M  V30 27 C -4.709394 -4.096242 2.667207 0
M  V30 28 N -3.605345 -3.369616 2.903214 0
M  V30 29 N -3.327557 -2.680601 1.809476 0
M  V30 30 C -2.291497 -1.839654 1.669801 0
M  V30 31 N 0.619446 -2.888717 -0.162198 0
M  V30 32 H 1.719554 -5.506077 -1.292018 0
M  V30 33 H 0.876154 -6.157137 0.176647 0
M  V30 34 H -0.046208 -5.285325 -1.086523 0
M  V30 35 H 2.338594 -5.095368 1.740108 0
M  V30 36 H 2.740279 -3.105856 3.070615 0
M  V30 37 H 1.822328 -0.990160 2.387256 0
M  V30 38 H 1.156968 5.045057 -0.727489 0
M  V30 39 H 0.883312 4.638289 2.022320 0
M  V30 40 H 2.605745 4.369793 3.671073 0
M  V30 41 H 5.145292 2.816482 0.551071 0
M  V30 42 H 3.280845 3.138288 -1.079146 0
M  V30 43 H -2.278973 1.622847 -0.079683 0
M  V30 44 H -2.922555 -0.904789 -1.539102 0
M  V30 45 H -4.769418 -2.476134 -1.126608 0
M  V30 46 H -5.316082 -4.805130 3.244594 0
M  V30 47 H -1.568051 -1.638858 2.452672 0
M  V30 END ATOM
M  V30 BEGIN BOND
M  V30 1 1 1 2
M  V30 2 2 2 3
M  V30 3 1 3 4
M  V30 4 2 4 5
M  V30 5 1 5 6
M  V30 6 1 6 7
M  V30 7 2 7 8
M  V30 8 1 8 9
M  V30 9 1 9 10
M  V30 10 2 10 11
M  V30 11 1 10 12
M  V30 12 1 12 13
M  V30 13 2 13 14
M  V30 14 1 14 15
M  V30 15 2 15 16
M  V30 16 1 16 17
M  V30 17 1 16 18
M  V30 18 2 18 19
M  V30 19 1 9 20
M  V30 20 2 20 21
M  V30 21 1 21 22
M  V30 22 1 22 23
M  V30 23 2 23 24
M  V30 24 1 24 25
M  V30 25 2 25 26
M  V30 26 1 26 27
M  V30 27 2 27 28
M  V30 28 1 28 29
M  V30 29 1 29 30
M  V30 30 2 6 31
M  V30 31 1 31 2
M  V30 32 1 21 7
M  V30 33 2 30 22
M  V30 34 1 19 13
M  V30 35 1 29 25
M  V30 36 1 1 32
M  V30 37 1 1 33
M  V30 38 1 1 34
M  V30 39 1 3 35
M  V30 40 1 4 36
M  V30 41 1 5 37
M  V30 42 1 12 38
M  V30 43 1 14 39
M  V30 44 1 15 40
M  V30 45 1 18 41
M  V30 46 1 19 42
M  V30 47 1 20 43
M  V30 48 1 23 44
M  V30 49 1 24 45
M  V30 50 1 27 46
M  V30 51 1 30 47
M  V30 END BOND
M  V30 END CTAB
M  END
>  <Dataset>  (555) 
ChEMBL_Kinases

>  <Ligand_Instance>  (555) 
nan

>  <PDB_ID>  (555) 
nan

>  <Standardized_SMILES>  (555) 
Cc1cccc(-c2nn(C(=S)Nc3ccc(Cl)cc3)cc2-c2ccc3ncnn3c2)n1

>  <Name>  (555) 
nan

>  <Pocket>  (555) 
nan

>  <ATP_Site>  (555) 
nan

>  <Peripheral>  (555) 
nan

>  <Num_H_Atoms_ProtBoundConf>  (555) 
nan

>  <Num_Resolved_Atoms>  (555) 
nan

>  <Num_Not_Resolved_Atoms>  (555) 
nan

$$$$
CHEMBL1835528
     RDKit          3D

  0  0  0  0  0  0  0  0  0  0999 V3000
M  V30 BEGIN CTAB
M  V30 COUNTS 50 54 0 0 0
M  V30 BEGIN ATOM
M  V30 1 C 2.502768 -5.069385 -3.361993 0
M  V30 2 C 2.670024 -4.614596 -1.963812 0
M  V30 3 C 1.875983 -5.102433 -0.959570 0
M  V30 4 C 2.063907 -4.653937 0.336237 0
M  V30 5 C 3.041485 -3.709139 0.683202 0
M  V30 6 N 3.224150 -3.258145 2.023726 0
M  V30 7 C 2.335943 -2.237814 1.953124 0
M  V30 8 S 2.884138 -2.057650 3.535721 0
M  V30 9 N 1.433866 -1.201285 1.881947 0
M  V30 10 C 1.667072 0.029221 1.387660 0
M  V30 11 C 0.417387 0.624567 1.515363 0
M  V30 12 C 0.223863 2.015146 1.085563 0
M  V30 13 C -0.017077 3.049066 1.965435 0
M  V30 14 C -0.189908 4.354479 1.539642 0
M  V30 15 C -0.123781 4.664882 0.186884 0
M  V30 16 N -0.233166 5.771891 -0.582906 0
M  V30 17 C -0.067767 5.439943 -1.876246 0
M  V30 18 N 0.143080 4.109367 -1.866976 0
M  V30 19 N 0.113263 3.624160 -0.635334 0
M  V30 20 C 0.289404 2.321778 -0.256984 0
M  V30 21 C -0.506600 -0.237160 2.067504 0
M  V30 22 C -1.909696 -0.034426 2.380215 0
M  V30 23 C -2.452848 0.821800 3.311276 0
M  V30 24 C -3.818971 0.902578 3.511504 0
M  V30 25 C -4.537795 0.053917 2.696714 0
M  V30 26 C -4.045236 -0.816836 1.754183 0
M  V30 27 C -4.946915 -1.679310 0.940932 0
M  V30 28 N -2.706485 -0.839585 1.616074 0
M  V30 29 N 0.172110 -1.398414 2.292577 0
M  V30 30 C 3.809156 -3.253865 -0.364613 0
M  V30 31 C 3.653355 -3.680463 -1.689231 0
M  V30 32 H 2.882336 -6.125135 -3.466019 0
M  V30 33 H 3.010076 -4.409545 -4.070337 0
M  V30 34 H 1.425358 -5.082190 -3.616379 0
M  V30 35 H 1.138532 -5.819933 -1.244508 0
M  V30 36 H 1.444273 -5.035641 1.113488 0
M  V30 37 H 3.892769 -3.959541 2.221138 0
M  V30 38 H 2.604534 0.360789 1.019572 0
M  V30 39 H -0.073983 2.862374 3.021281 0
M  V30 40 H -0.379283 5.177350 2.225049 0
M  V30 41 H -0.117306 6.183205 -2.656911 0
M  V30 42 H 0.474546 1.558386 -0.978804 0
M  V30 43 H -1.757183 1.410230 3.863424 0
M  V30 44 H -4.245472 1.571246 4.239512 0
M  V30 45 H -5.632740 0.073693 2.812813 0
M  V30 46 H -5.977519 -1.633541 1.341802 0
M  V30 47 H -5.018744 -1.201685 -0.079435 0
M  V30 48 H -4.603994 -2.720830 0.862605 0
M  V30 49 H 4.567131 -2.524001 -0.109675 0
M  V30 50 H 4.303479 -3.265018 -2.437170 0
M  V30 END ATOM
M  V30 BEGIN BOND
M  V30 1 1 1 2
M  V30 2 2 2 3
M  V30 3 1 3 4
M  V30 4 2 4 5
M  V30 5 1 5 6
M  V30 6 1 6 7
M  V30 7 2 7 8
M  V30 8 1 7 9
M  V30 9 1 9 10
M  V30 10 2 10 11
M  V30 11 1 11 12
M  V30 12 1 12 13
M  V30 13 2 13 14
M  V30 14 1 14 15
M  V30 15 2 15 16
M  V30 16 1 16 17
M  V30 17 2 17 18
M  V30 18 1 18 19
M  V30 19 1 19 20
M  V30 20 1 11 21
M  V30 21 1 21 22
M  V30 22 2 22 23
M  V30 23 1 23 24
M  V30 24 2 24 25
M  V30 25 1 25 26
M  V30 26 1 26 27
M  V30 27 2 26 28
M  V30 28 2 21 29
M  V30 29 1 5 30
M  V30 30 2 30 31
M  V30 31 1 31 2
M  V30 32 1 29 9
M  V30 33 2 20 12
M  V30 34 1 28 22
M  V30 35 1 19 15
M  V30 36 1 1 32
M  V30 37 1 1 33
M  V30 38 1 1 34
M  V30 39 1 3 35
M  V30 40 1 4 36
M  V30 41 1 6 37
M  V30 42 1 10 38
M  V30 43 1 13 39
M  V30 44 1 14 40
M  V30 45 1 17 41
M  V30 46 1 20 42
M  V30 47 1 23 43
M  V30 48 1 24 44
M  V30 49 1 25 45
M  V30 50 1 27 46
M  V30 51 1 27 47
M  V30 52 1 27 48
M  V30 53 1 30 49
M  V30 54 1 31 50
M  V30 END BOND
M  V30 END CTAB
M  END
>  <Dataset>  (556) 
ChEMBL_Kinases

>  <Ligand_Instance>  (556) 
nan

>  <PDB_ID>  (556) 
nan

>  <Standardized_SMILES>  (556) 
Cc1ccc(NC(=S)n2cc(-c3ccc4ncnn4c3)c(-c3cccc(C)n3)n2)cc1

>  <Name>  (556) 
nan

>  <Pocket>  (556) 
nan

>  <ATP_Site>  (556) 
nan

>  <Peripheral>  (556) 
nan

>  <Num_H_Atoms_ProtBoundConf>  (556) 
nan

>  <Num_Resolved_Atoms>  (556) 
nan

>  <Num_Not_Resolved_Atoms>  (556) 
nan

$$$$
CHEMBL1835520
     RDKit          3D

  0  0  0  0  0  0  0  0  0  0999 V3000
M  V30 BEGIN CTAB
M  V30 COUNTS 50 54 0 0 0
M  V30 BEGIN ATOM
M  V30 1 C 6.219766 -3.853790 3.724491 0
M  V30 2 C 5.955592 -2.702415 2.826364 0
M  V30 3 C 6.990863 -1.906400 2.403097 0
M  V30 4 C 6.780450 -0.820847 1.562916 0
M  V30 5 C 5.482699 -0.596374 1.185925 0
M  V30 6 C 4.413707 -1.366831 1.584885 0
M  V30 7 N 3.072945 -1.124853 1.188515 0
M  V30 8 C 2.544717 -0.106542 0.352452 0
M  V30 9 S 3.210844 1.142710 -0.458073 0
M  V30 10 N 1.145314 0.029835 0.023874 0
M  V30 11 C 0.262173 0.688700 0.829970 0
M  V30 12 C -1.019891 0.655728 0.262125 0
M  V30 13 C -2.160203 1.268441 0.884875 0
M  V30 14 C -2.928656 2.335901 0.449873 0
M  V30 15 C -4.003225 2.801085 1.177868 0
M  V30 16 C -4.348747 2.211908 2.372875 0
M  V30 17 N -5.304069 2.413288 3.296533 0
M  V30 18 C -5.160198 1.524309 4.274591 0
M  V30 19 N -4.116517 0.747499 3.990040 0
M  V30 20 N -3.614940 1.164833 2.824505 0
M  V30 21 C -2.553722 0.707232 2.103159 0
M  V30 22 C -0.853232 -0.039289 -0.892749 0
M  V30 23 C -1.886426 -0.345103 -1.840600 0
M  V30 24 C -2.652065 0.474874 -2.642842 0
M  V30 25 C -3.609325 -0.029213 -3.496424 0
M  V30 26 C -3.798420 -1.404783 -3.540567 0
M  V30 27 C -3.036065 -2.215690 -2.742544 0
M  V30 28 C -3.325099 -3.654021 -2.875226 0
M  V30 29 N -2.117966 -1.689071 -1.927973 0
M  V30 30 N 0.436900 -0.397727 -1.009365 0
M  V30 31 C 4.676040 -2.423542 2.411996 0
M  V30 32 H 5.676222 -4.774467 3.421076 0
M  V30 33 H 5.910073 -3.634285 4.772771 0
M  V30 34 H 7.286489 -4.087825 3.693339 0
M  V30 35 H 7.995341 -2.130019 2.731633 0
M  V30 36 H 7.607867 -0.195579 1.232774 0
M  V30 37 H 5.340124 0.241390 0.540547 0
M  V30 38 H 2.321170 -1.759291 1.533646 0
M  V30 39 H 0.528040 1.162144 1.767774 0
M  V30 40 H -2.606450 2.755102 -0.490804 0
M  V30 41 H -4.574532 3.639315 0.796817 0
M  V30 42 H -5.724959 1.358005 5.191716 0
M  V30 43 H -2.019168 -0.130931 2.530072 0
M  V30 44 H -2.411219 1.515022 -2.519650 0
M  V30 45 H -4.118847 0.753500 -4.053196 0
M  V30 46 H -4.569406 -1.718175 -4.237098 0
M  V30 47 H -4.418701 -3.796544 -2.714743 0
M  V30 48 H -2.770534 -4.284973 -2.171755 0
M  V30 49 H -3.121184 -3.987579 -3.910810 0
M  V30 50 H 3.867951 -3.056097 2.750592 0
M  V30 END ATOM
M  V30 BEGIN BOND
M  V30 1 1 1 2
M  V30 2 2 2 3
M  V30 3 1 3 4
M  V30 4 2 4 5
M  V30 5 1 5 6
M  V30 6 1 6 7
M  V30 7 1 7 8
M  V30 8 2 8 9
M  V30 9 1 8 10
M  V30 10 1 10 11
M  V30 11 2 11 12
M  V30 12 1 12 13
M  V30 13 1 13 14
M  V30 14 2 14 15
M  V30 15 1 15 16
M  V30 16 2 16 17
M  V30 17 1 17 18
M  V30 18 2 18 19
M  V30 19 1 19 20
M  V30 20 1 20 21
M  V30 21 1 12 22
M  V30 22 1 22 23
M  V30 23 2 23 24
M  V30 24 1 24 25
M  V30 25 2 25 26
M  V30 26 1 26 27
M  V30 27 1 27 28
M  V30 28 2 27 29
M  V30 29 2 22 30
M  V30 30 2 6 31
M  V30 31 1 31 2
M  V30 32 1 30 10
M  V30 33 2 21 13
M  V30 34 1 29 23
M  V30 35 1 20 16
M  V30 36 1 1 32
M  V30 37 1 1 33
M  V30 38 1 1 34
M  V30 39 1 3 35
M  V30 40 1 4 36
M  V30 41 1 5 37
M  V30 42 1 7 38
M  V30 43 1 11 39
M  V30 44 1 14 40
M  V30 45 1 15 41
M  V30 46 1 18 42
M  V30 47 1 21 43
M  V30 48 1 24 44
M  V30 49 1 25 45
M  V30 50 1 26 46
M  V30 51 1 28 47
M  V30 52 1 28 48
M  V30 53 1 28 49
M  V30 54 1 31 50
M  V30 END BOND
M  V30 END CTAB
M  END
>  <Dataset>  (557) 
ChEMBL_Kinases

>  <Ligand_Instance>  (557) 
nan

>  <PDB_ID>  (557) 
nan

>  <Standardized_SMILES>  (557) 
Cc1cccc(NC(=S)n2cc(-c3ccc4ncnn4c3)c(-c3cccc(C)n3)n2)c1

>  <Name>  (557) 
nan

>  <Pocket>  (557) 
nan

>  <ATP_Site>  (557) 
nan

>  <Peripheral>  (557) 
nan

>  <Num_H_Atoms_ProtBoundConf>  (557) 
nan

>  <Num_Resolved_Atoms>  (557) 
nan

>  <Num_Not_Resolved_Atoms>  (557) 
nan

$$$$
CHEMBL1831197
     RDKit          3D

  0  0  0  0  0  0  0  0  0  0999 V3000
M  V30 BEGIN CTAB
M  V30 COUNTS 52 54 0 0 0
M  V30 BEGIN ATOM
M  V30 1 N 9.311373 -4.831335 0.800185 0
M  V30 2 C 8.048571 -4.376149 0.341925 0
M  V30 3 O 7.686981 -4.649989 -0.831991 0
M  V30 4 N 7.316999 -3.643435 1.287996 0
M  V30 5 C 6.055964 -3.076483 1.120541 0
M  V30 6 S 5.823577 -1.426818 0.513242 0
M  V30 7 C 3.962018 -1.499605 0.601711 0
M  V30 8 C 3.088017 -0.397131 0.217776 0
M  V30 9 C 2.362247 0.502140 -0.092704 0
M  V30 10 C 1.473957 1.576056 -0.450043 0
M  V30 11 C 1.936222 2.877360 -0.356721 0
M  V30 12 C 1.077793 3.927838 -0.704068 0
M  V30 13 C -0.207661 3.682223 -1.132886 0
M  V30 14 C -0.661627 2.384068 -1.223947 0
M  V30 15 N -1.945645 1.889799 -1.641078 0
M  V30 16 C -2.785272 1.799924 -0.497220 0
M  V30 17 O -2.189643 2.174805 0.564918 0
M  V30 18 C -4.166799 1.340345 -0.488564 0
M  V30 19 C -4.858648 0.929331 -1.607319 0
M  V30 20 C -6.155571 0.486071 -1.621351 0
M  V30 21 C -6.786316 0.463703 -0.394620 0
M  V30 22 C -6.120781 0.868784 0.743524 0
M  V30 23 N -6.776668 0.837592 2.013229 0
M  V30 24 C -6.502182 -0.424609 2.597789 0
M  V30 25 O -5.963847 -1.581590 2.592917 0
M  V30 26 C -6.902964 -1.042597 3.891028 0
M  V30 27 F -6.305213 -2.298784 3.952383 0
M  V30 28 F -8.270582 -1.297333 3.928977 0
M  V30 29 F -6.501465 -0.308916 4.984148 0
M  V30 30 C -4.812884 1.311507 0.727128 0
M  V30 31 C 0.176880 1.318889 -0.882338 0
M  V30 32 C 3.690722 -2.781241 1.088266 0
M  V30 33 C 4.806382 -3.534818 1.332233 0
M  V30 34 C 4.622975 -4.900514 1.847586 0
M  V30 35 N 3.374550 -5.538280 2.122049 0
M  V30 36 O 5.628521 -5.611792 2.083899 0
M  V30 37 H 10.207148 -5.195264 1.183562 0
M  V30 38 H 10.082995 -4.468199 0.164712 0
M  V30 39 H 7.647291 -3.431359 2.262141 0
M  V30 40 H 2.942391 3.112877 -0.022703 0
M  V30 41 H 1.378635 4.971202 -0.652791 0
M  V30 42 H -0.955447 4.404444 -1.424772 0
M  V30 43 H -2.367670 1.598274 -2.562786 0
M  V30 44 H -4.325308 0.962236 -2.560612 0
M  V30 45 H -6.630654 0.179512 -2.541343 0
M  V30 46 H -7.817630 0.120470 -0.347178 0
M  V30 47 H -7.376881 1.384394 2.671280 0
M  V30 48 H -4.296700 1.628776 1.625280 0
M  V30 49 H -0.079950 0.264590 -0.917308 0
M  V30 50 H 2.646352 -3.013119 1.208435 0
M  V30 51 H 2.883584 -6.126535 1.427389 0
M  V30 52 H 2.896206 -5.437860 3.041784 0
M  V30 END ATOM
M  V30 BEGIN BOND
M  V30 1 1 1 2
M  V30 2 2 2 3
M  V30 3 1 2 4
M  V30 4 1 4 5
M  V30 5 1 5 6
M  V30 6 1 6 7
M  V30 7 1 7 8
M  V30 8 3 8 9
M  V30 9 1 9 10
M  V30 10 2 10 11
M  V30 11 1 11 12
M  V30 12 2 12 13
M  V30 13 1 13 14
M  V30 14 1 14 15
M  V30 15 1 15 16
M  V30 16 2 16 17
M  V30 17 1 16 18
M  V30 18 2 18 19
M  V30 19 1 19 20
M  V30 20 2 20 21
M  V30 21 1 21 22
M  V30 22 1 22 23
M  V30 23 1 23 24
M  V30 24 2 24 25
M  V30 25 1 24 26
M  V30 26 1 26 27
M  V30 27 1 26 28
M  V30 28 1 26 29
M  V30 29 2 22 30
M  V30 30 2 14 31
M  V30 31 2 7 32
M  V30 32 1 32 33
M  V30 33 1 33 34
M  V30 34 1 34 35
M  V30 35 2 34 36
M  V30 36 2 33 5
M  V30 37 1 31 10
M  V30 38 1 30 18
M  V30 39 1 1 37
M  V30 40 1 1 38
M  V30 41 1 4 39
M  V30 42 1 11 40
M  V30 43 1 12 41
M  V30 44 1 13 42
M  V30 45 1 15 43
M  V30 46 1 19 44
M  V30 47 1 20 45
M  V30 48 1 21 46
M  V30 49 1 23 47
M  V30 50 1 30 48
M  V30 51 1 31 49
M  V30 52 1 32 50
M  V30 53 1 35 51
M  V30 54 1 35 52
M  V30 END BOND
M  V30 END CTAB
M  END
>  <Dataset>  (558) 
ChEMBL_Kinases

>  <Ligand_Instance>  (558) 
nan

>  <PDB_ID>  (558) 
nan

>  <Standardized_SMILES>  (558) 
NC(=O)Nc1sc(C#Cc2cccc(NC(=O)c3cccc(NC(=O)C(F)(F)F)c3)c2)cc1C(N)=O

>  <Name>  (558) 
nan

>  <Pocket>  (558) 
nan

>  <ATP_Site>  (558) 
nan

>  <Peripheral>  (558) 
nan

>  <Num_H_Atoms_ProtBoundConf>  (558) 
nan

>  <Num_Resolved_Atoms>  (558) 
nan

>  <Num_Not_Resolved_Atoms>  (558) 
nan

$$$$
CHEMBL1831196
     RDKit          3D

  0  0  0  0  0  0  0  0  0  0999 V3000
M  V30 BEGIN CTAB
M  V30 COUNTS 47 49 0 0 0
M  V30 BEGIN ATOM
M  V30 1 N -3.322230 -7.650255 -4.962483 0
M  V30 2 C -3.221867 -6.330127 -4.413362 0
M  V30 3 O -3.938128 -5.435677 -4.921464 0
M  V30 4 N -2.311261 -6.148353 -3.331309 0
M  V30 5 C -2.030820 -4.963311 -2.624757 0
M  V30 6 S -0.737489 -3.722374 -3.031196 0
M  V30 7 C -1.090663 -2.677562 -1.719728 0
M  V30 8 C -0.383768 -1.427586 -1.445838 0
M  V30 9 C 0.187949 -0.394085 -1.202371 0
M  V30 10 C 0.864222 0.836546 -0.891276 0
M  V30 11 C 1.000118 1.814956 -1.875420 0
M  V30 12 C 1.660306 3.007869 -1.559629 0
M  V30 13 C 2.166767 3.203448 -0.287261 0
M  V30 14 C 2.035979 2.232311 0.702124 0
M  V30 15 N 2.531971 2.367405 2.028952 0
M  V30 16 C 1.610347 2.946330 2.932043 0
M  V30 17 O 0.467148 3.296947 2.560718 0
M  V30 18 C 1.938344 3.166191 4.339204 0
M  V30 19 C 0.983595 3.736972 5.157097 0
M  V30 20 C 1.256764 3.963528 6.505328 0
M  V30 21 C 2.461127 3.638276 7.075694 0
M  V30 22 C 3.416439 3.066439 6.254400 0
M  V30 23 N 4.702141 2.702782 6.796574 0
M  V30 24 C 3.141911 2.843772 4.919821 0
M  V30 25 C 1.372763 1.048400 0.364171 0
M  V30 26 C -2.108798 -3.224738 -1.026953 0
M  V30 27 C -2.620955 -4.413468 -1.471001 0
M  V30 28 C -3.725406 -5.134953 -0.830475 0
M  V30 29 N -4.361133 -4.629194 0.337331 0
M  V30 30 O -4.127423 -6.217136 -1.308396 0
M  V30 31 H -3.582246 -8.526452 -4.448968 0
M  V30 32 H -3.169517 -8.003538 -5.924604 0
M  V30 33 H -1.758055 -6.966163 -2.980858 0
M  V30 34 H 0.598837 1.655437 -2.877026 0
M  V30 35 H 1.788153 3.790787 -2.288583 0
M  V30 36 H 2.689235 4.132434 -0.015767 0
M  V30 37 H 3.485424 2.074622 2.337192 0
M  V30 38 H -0.006239 4.028765 4.787695 0
M  V30 39 H 0.544173 4.410906 7.202489 0
M  V30 40 H 2.711783 3.797764 8.116388 0
M  V30 41 H 4.781480 1.661645 6.666314 0
M  V30 42 H 5.484460 3.220054 7.245168 0
M  V30 43 H 3.902155 2.399006 4.308052 0
M  V30 44 H 1.255653 0.274520 1.113104 0
M  V30 45 H -2.491668 -2.720186 -0.150166 0
M  V30 46 H -4.243401 -4.602345 1.371070 0
M  V30 47 H -5.218089 -4.074881 0.589555 0
M  V30 END ATOM
M  V30 BEGIN BOND
M  V30 1 1 1 2
M  V30 2 2 2 3
M  V30 3 1 2 4
M  V30 4 1 4 5
M  V30 5 1 5 6
M  V30 6 1 6 7
M  V30 7 1 7 8
M  V30 8 3 8 9
M  V30 9 1 9 10
M  V30 10 2 10 11
M  V30 11 1 11 12
M  V30 12 2 12 13
M  V30 13 1 13 14
M  V30 14 1 14 15
M  V30 15 1 15 16
M  V30 16 2 16 17
M  V30 17 1 16 18
M  V30 18 2 18 19
M  V30 19 1 19 20
M  V30 20 2 20 21
M  V30 21 1 21 22
M  V30 22 1 22 23
M  V30 23 2 22 24
M  V30 24 2 14 25
M  V30 25 2 7 26
M  V30 26 1 26 27
M  V30 27 1 27 28
M  V30 28 1 28 29
M  V30 29 2 28 30
M  V30 30 2 27 5
M  V30 31 1 25 10
M  V30 32 1 24 18
M  V30 33 1 1 31
M  V30 34 1 1 32
M  V30 35 1 4 33
M  V30 36 1 11 34
M  V30 37 1 12 35
M  V30 38 1 13 36
M  V30 39 1 15 37
M  V30 40 1 19 38
M  V30 41 1 20 39
M  V30 42 1 21 40
M  V30 43 1 23 41
M  V30 44 1 23 42
M  V30 45 1 24 43
M  V30 46 1 25 44
M  V30 47 1 26 45
M  V30 48 1 29 46
M  V30 49 1 29 47
M  V30 END BOND
M  V30 END CTAB
M  END
>  <Dataset>  (559) 
ChEMBL_Kinases

>  <Ligand_Instance>  (559) 
nan

>  <PDB_ID>  (559) 
nan

>  <Standardized_SMILES>  (559) 
NC(=O)Nc1sc(C#Cc2cccc(NC(=O)c3cccc(N)c3)c2)cc1C(N)=O

>  <Name>  (559) 
nan

>  <Pocket>  (559) 
nan

>  <ATP_Site>  (559) 
nan

>  <Peripheral>  (559) 
nan

>  <Num_H_Atoms_ProtBoundConf>  (559) 
nan

>  <Num_Resolved_Atoms>  (559) 
nan

>  <Num_Not_Resolved_Atoms>  (559) 
nan

$$$$
CHEMBL1831195
     RDKit          3D

  0  0  0  0  0  0  0  0  0  0999 V3000
M  V30 BEGIN CTAB
M  V30 COUNTS 55 57 0 0 0
M  V30 BEGIN ATOM
M  V30 1 C 5.721523 -0.084068 3.010387 0
M  V30 2 C 6.322087 1.214503 3.490608 0
M  V30 3 C 5.909106 1.564493 4.890991 0
M  V30 4 C 6.027478 2.358835 2.537294 0
M  V30 5 O 6.627890 3.488806 3.085227 0
M  V30 6 C 4.576885 2.600926 2.399380 0
M  V30 7 C 3.666581 2.382668 1.424426 0
M  V30 8 C 2.362637 2.746185 1.650540 0
M  V30 9 C 1.357257 2.523124 0.616985 0
M  V30 10 O 1.609211 2.005418 -0.499866 0
M  V30 11 N 0.012783 2.883793 0.815423 0
M  V30 12 C -0.852399 2.605601 -0.280844 0
M  V30 13 C -1.114424 3.479192 -1.309975 0
M  V30 14 C -1.977215 3.132569 -2.352810 0
M  V30 15 C -2.575286 1.875090 -2.335345 0
M  V30 16 C -2.307191 0.986848 -1.286441 0
M  V30 17 C -2.929842 -0.308965 -1.277974 0
M  V30 18 C -3.443423 -1.398433 -1.289900 0
M  V30 19 C -4.084817 -2.776852 -1.328484 0
M  V30 20 C -3.784778 -3.743197 -2.144591 0
M  V30 21 C -4.490053 -4.911909 -2.007463 0
M  V30 22 C -4.290514 -6.105197 -2.835308 0
M  V30 23 N -3.319904 -6.142700 -3.876036 0
M  V30 24 O -4.959180 -7.153204 -2.674368 0
M  V30 25 C -5.457498 -5.004485 -1.037233 0
M  V30 26 N -6.342815 -6.018476 -0.630512 0
M  V30 27 C -5.929262 -6.921371 0.364577 0
M  V30 28 N -6.767315 -7.980430 0.834953 0
M  V30 29 O -5.015829 -7.270844 1.146493 0
M  V30 30 S -5.334862 -3.268515 -0.267475 0
M  V30 31 C -1.444875 1.341510 -0.250177 0
M  V30 32 C 2.073541 3.318974 2.881845 0
M  V30 33 S 3.673846 3.344653 3.736623 0
M  V30 34 H 4.637435 -0.003455 2.803766 0
M  V30 35 H 6.320099 -0.393037 2.112749 0
M  V30 36 H 5.900653 -0.840949 3.790086 0
M  V30 37 H 7.423690 1.067410 3.485668 0
M  V30 38 H 4.888110 1.184836 5.086110 0
M  V30 39 H 6.582124 1.045182 5.586839 0
M  V30 40 H 5.929666 2.672832 5.055415 0
M  V30 41 H 6.452940 2.103277 1.547433 0
M  V30 42 H 7.611993 3.475006 3.015317 0
M  V30 43 H 4.084622 1.927595 0.539543 0
M  V30 44 H -0.325112 3.330980 1.720517 0
M  V30 45 H -0.615978 4.427995 -1.252344 0
M  V30 46 H -2.152619 3.844113 -3.134012 0
M  V30 47 H -3.247170 1.598273 -3.142389 0
M  V30 48 H -3.010545 -3.629568 -2.900549 0
M  V30 49 H -3.602127 -6.463046 -4.835568 0
M  V30 50 H -2.401050 -5.820723 -3.499189 0
M  V30 51 H -7.305200 -6.187647 -0.991670 0
M  V30 52 H -7.052362 -8.981399 0.700478 0
M  V30 53 H -7.491381 -8.325935 1.503102 0
M  V30 54 H -1.281359 0.610904 0.526985 0
M  V30 55 H 1.079307 3.651876 3.188012 0
M  V30 END ATOM
M  V30 BEGIN BOND
M  V30 1 1 1 2
M  V30 2 1 2 3
M  V30 3 1 2 4
M  V30 4 1 4 5
M  V30 5 1 4 6
M  V30 6 2 6 7
M  V30 7 1 7 8
M  V30 8 1 8 9
M  V30 9 2 9 10
M  V30 10 1 9 11
M  V30 11 1 11 12
M  V30 12 2 12 13
M  V30 13 1 13 14
M  V30 14 2 14 15
M  V30 15 1 15 16
M  V30 16 1 16 17
M  V30 17 3 17 18
M  V30 18 1 18 19
M  V30 19 2 19 20
M  V30 20 1 20 21
M  V30 21 1 21 22
M  V30 22 1 22 23
M  V30 23 2 22 24
M  V30 24 2 21 25
M  V30 25 1 25 26
M  V30 26 1 26 27
M  V30 27 1 27 28
M  V30 28 2 27 29
M  V30 29 1 25 30
M  V30 30 2 16 31
M  V30 31 2 8 32
M  V30 32 1 32 33
M  V30 33 1 33 6
M  V30 34 1 31 12
M  V30 35 1 30 19
M  V30 36 1 1 34
M  V30 37 1 1 35
M  V30 38 1 1 36
M  V30 39 1 2 37
M  V30 40 1 3 38
M  V30 41 1 3 39
M  V30 42 1 3 40
M  V30 43 1 4 41
M  V30 44 1 5 42
M  V30 45 1 7 43
M  V30 46 1 11 44
M  V30 47 1 13 45
M  V30 48 1 14 46
M  V30 49 1 15 47
M  V30 50 1 20 48
M  V30 51 1 23 49
M  V30 52 1 23 50
M  V30 53 1 26 51
M  V30 54 1 28 52
M  V30 55 1 28 53
M  V30 56 1 31 54
M  V30 57 1 32 55
M  V30 END BOND
M  V30 END CTAB
M  END
>  <Dataset>  (560) 
ChEMBL_Kinases

>  <Ligand_Instance>  (560) 
nan

>  <PDB_ID>  (560) 
nan

>  <Standardized_SMILES>  (560) 
CC(C)C(O)c1cc(C(=O)Nc2cccc(C#Cc3cc(C(N)=O)c(NC(N)=O)s3)c2)cs1

>  <Name>  (560) 
nan

>  <Pocket>  (560) 
nan

>  <ATP_Site>  (560) 
nan

>  <Peripheral>  (560) 
nan

>  <Num_H_Atoms_ProtBoundConf>  (560) 
nan

>  <Num_Resolved_Atoms>  (560) 
nan

>  <Num_Not_Resolved_Atoms>  (560) 
nan

$$$$
CHEMBL1831194
     RDKit          3D

  0  0  0  0  0  0  0  0  0  0999 V3000
M  V30 BEGIN CTAB
M  V30 COUNTS 33 34 0 0 0
M  V30 BEGIN ATOM
M  V30 1 C -3.176196 -3.318967 3.429255 0
M  V30 2 O -2.090599 -4.214283 3.267220 0
M  V30 3 C -1.048061 -3.770255 2.444274 0
M  V30 4 C -0.025116 -4.689293 2.330191 0
M  V30 5 C 1.057060 -4.330015 1.527975 0
M  V30 6 C 1.140960 -3.122936 0.862215 0
M  V30 7 C 0.077427 -2.291366 1.044257 0
M  V30 8 C 0.038298 -0.946645 0.378360 0
M  V30 9 C 1.024722 -0.388028 -0.471064 0
M  V30 10 C 0.753869 0.849696 -0.949800 0
M  V30 11 N 1.682799 1.523290 -1.825216 0
M  V30 12 C 2.615597 2.302305 -1.084728 0
M  V30 13 N 3.644427 3.069918 -1.713761 0
M  V30 14 O 2.463384 2.261950 0.163888 0
M  V30 15 C -0.420724 1.471944 -0.597253 0
M  V30 16 C -0.913851 2.768980 -0.979396 0
M  V30 17 N -2.175119 3.190879 -0.474686 0
M  V30 18 O -0.219615 3.483694 -1.741909 0
M  V30 19 S -1.209642 0.324325 0.440796 0
M  V30 20 C -1.040427 -2.538686 1.809549 0
M  V30 21 H -2.745614 -2.338632 3.738969 0
M  V30 22 H -3.951647 -3.707641 4.102072 0
M  V30 23 H -3.571095 -3.127920 2.388555 0
M  V30 24 H -0.011846 -5.651613 2.815154 0
M  V30 25 H 1.894907 -5.016877 1.400791 0
M  V30 26 H 1.944839 -2.812240 0.243864 0
M  V30 27 H 1.901709 -0.989327 -0.664326 0
M  V30 28 H 1.761691 1.519339 -2.864892 0
M  V30 29 H 4.243586 3.646046 -1.088945 0
M  V30 30 H 3.717233 2.995319 -2.748088 0
M  V30 31 H -2.581911 3.449469 0.472561 0
M  V30 32 H -2.973813 3.299951 -1.167320 0
M  V30 33 H -1.866250 -1.884452 1.946544 0
M  V30 END ATOM
M  V30 BEGIN BOND
M  V30 1 1 1 2
M  V30 2 1 2 3
M  V30 3 2 3 4
M  V30 4 1 4 5
M  V30 5 2 5 6
M  V30 6 1 6 7
M  V30 7 1 7 8
M  V30 8 2 8 9
M  V30 9 1 9 10
M  V30 10 1 10 11
M  V30 11 1 11 12
M  V30 12 1 12 13
M  V30 13 2 12 14
M  V30 14 2 10 15
M  V30 15 1 15 16
M  V30 16 1 16 17
M  V30 17 2 16 18
M  V30 18 1 15 19
M  V30 19 2 7 20
M  V30 20 1 20 3
M  V30 21 1 19 8
M  V30 22 1 1 21
M  V30 23 1 1 22
M  V30 24 1 1 23
M  V30 25 1 4 24
M  V30 26 1 5 25
M  V30 27 1 6 26
M  V30 28 1 9 27
M  V30 29 1 11 28
M  V30 30 1 13 29
M  V30 31 1 13 30
M  V30 32 1 17 31
M  V30 33 1 17 32
M  V30 34 1 20 33
M  V30 END BOND
M  V30 END CTAB
M  END
>  <Dataset>  (561) 
ChEMBL_Kinases

>  <Ligand_Instance>  (561) 
nan

>  <PDB_ID>  (561) 
nan

>  <Standardized_SMILES>  (561) 
COc1cccc(-c2cc(NC(N)=O)c(C(N)=O)s2)c1

>  <Name>  (561) 
nan

>  <Pocket>  (561) 
nan

>  <ATP_Site>  (561) 
nan

>  <Peripheral>  (561) 
nan

>  <Num_H_Atoms_ProtBoundConf>  (561) 
nan

>  <Num_Resolved_Atoms>  (561) 
nan

>  <Num_Not_Resolved_Atoms>  (561) 
nan

$$$$
CHEMBL1831079
     RDKit          3D

  0  0  0  0  0  0  0  0  0  0999 V3000
M  V30 BEGIN CTAB
M  V30 COUNTS 30 31 0 0 0
M  V30 BEGIN ATOM
M  V30 1 N -0.670371 -3.931335 4.584153 0
M  V30 2 C -0.711925 -3.143466 3.400729 0
M  V30 3 O -1.087006 -3.666747 2.318157 0
M  V30 4 N -0.306719 -1.773873 3.559018 0
M  V30 5 C -0.362275 -1.005809 2.335531 0
M  V30 6 C 0.720446 -0.946175 1.523063 0
M  V30 7 C 0.574418 -0.177383 0.358085 0
M  V30 8 C 1.559214 0.090810 -0.731950 0
M  V30 9 C 2.814904 -0.444979 -0.681635 0
M  V30 10 C 3.636365 -0.128678 -1.742823 0
M  V30 11 C 3.216134 0.673344 -2.781413 0
M  V30 12 C 1.919005 1.197990 -2.786094 0
M  V30 13 O 1.552113 1.998753 -3.857826 0
M  V30 14 C 1.090629 0.886918 -1.728921 0
M  V30 15 S -1.132634 0.439500 0.472667 0
M  V30 16 C -1.476527 -0.355706 2.004344 0
M  V30 17 C -2.774811 -0.262644 2.708561 0
M  V30 18 N -3.818827 0.510119 2.129822 0
M  V30 19 O -2.874870 -0.884694 3.795149 0
M  V30 20 H -0.717005 -4.493161 5.440240 0
M  V30 21 H 0.260969 -4.270448 4.947473 0
M  V30 22 H -0.006796 -1.403681 4.485307 0
M  V30 23 H 1.688975 -1.412600 1.649074 0
M  V30 24 H 3.048738 -1.059817 0.172853 0
M  V30 25 H 4.644157 -0.563967 -1.693786 0
M  V30 26 H 3.951670 0.860252 -3.573581 0
M  V30 27 H 0.708407 1.796765 -4.403154 0
M  V30 28 H 0.109950 1.320164 -1.792500 0
M  V30 29 H -4.173008 0.065714 1.239971 0
M  V30 30 H -4.180444 0.067695 1.232391 0
M  V30 END ATOM
M  V30 BEGIN BOND
M  V30 1 1 1 2
M  V30 2 2 2 3
M  V30 3 1 2 4
M  V30 4 1 4 5
M  V30 5 1 5 6
M  V30 6 2 6 7
M  V30 7 1 7 8
M  V30 8 2 8 9
M  V30 9 1 9 10
M  V30 10 2 10 11
M  V30 11 1 11 12
M  V30 12 1 12 13
M  V30 13 2 12 14
M  V30 14 1 7 15
M  V30 15 1 15 16
M  V30 16 1 16 17
M  V30 17 1 17 18
M  V30 18 2 17 19
M  V30 19 2 16 5
M  V30 20 1 14 8
M  V30 21 1 1 20
M  V30 22 1 1 21
M  V30 23 1 4 22
M  V30 24 1 6 23
M  V30 25 1 9 24
M  V30 26 1 10 25
M  V30 27 1 11 26
M  V30 28 1 13 27
M  V30 29 1 14 28
M  V30 30 1 18 29
M  V30 31 1 18 30
M  V30 END BOND
M  V30 END CTAB
M  END
>  <Dataset>  (562) 
ChEMBL_Kinases

>  <Ligand_Instance>  (562) 
nan

>  <PDB_ID>  (562) 
nan

>  <Standardized_SMILES>  (562) 
NC(=O)Nc1cc(-c2cccc(O)c2)sc1C(N)=O

>  <Name>  (562) 
nan

>  <Pocket>  (562) 
nan

>  <ATP_Site>  (562) 
nan

>  <Peripheral>  (562) 
nan

>  <Num_H_Atoms_ProtBoundConf>  (562) 
nan

>  <Num_Resolved_Atoms>  (562) 
nan

>  <Num_Not_Resolved_Atoms>  (562) 
nan

$$$$
CHEMBL1831078
     RDKit          3D

  0  0  0  0  0  0  0  0  0  0999 V3000
M  V30 BEGIN CTAB
M  V30 COUNTS 26 27 0 0 0
M  V30 BEGIN ATOM
M  V30 1 N -0.437832 -3.494819 4.111469 0
M  V30 2 C -0.046692 -2.244930 3.515163 0
M  V30 3 O 0.542104 -1.427523 4.250835 0
M  V30 4 N -0.384591 -2.105888 2.159525 0
M  V30 5 C -0.172040 -1.040249 1.242346 0
M  V30 6 C 0.892090 -0.826236 0.415209 0
M  V30 7 C 0.932084 0.224490 -0.382408 0
M  V30 8 C 1.986596 0.611231 -1.330461 0
M  V30 9 C 1.805410 1.752653 -2.055352 0
M  V30 10 C 2.792586 2.119927 -2.946745 0
M  V30 11 S 4.076336 0.806585 -2.789581 0
M  V30 12 C 3.130909 -0.134634 -1.502611 0
M  V30 13 S -0.582886 1.145110 -0.105615 0
M  V30 14 C -1.201074 -0.086083 1.188609 0
M  V30 15 C -2.502431 0.095431 1.874279 0
M  V30 16 N -3.270969 1.234746 1.520409 0
M  V30 17 O -2.712113 -0.817997 2.677794 0
M  V30 18 H 0.044468 -4.394061 4.286377 0
M  V30 19 H -1.369682 -3.763151 4.521624 0
M  V30 20 H -0.877885 -2.831475 1.605785 0
M  V30 21 H 1.704413 -1.570558 0.451089 0
M  V30 22 H 1.030508 2.489358 -2.109025 0
M  V30 23 H 3.022956 2.886326 -3.655064 0
M  V30 24 H 3.372447 -1.035927 -0.992216 0
M  V30 25 H -4.021667 0.895425 0.878601 0
M  V30 26 H -3.977086 0.775319 0.888110 0
M  V30 END ATOM
M  V30 BEGIN BOND
M  V30 1 1 1 2
M  V30 2 2 2 3
M  V30 3 1 2 4
M  V30 4 1 4 5
M  V30 5 1 5 6
M  V30 6 2 6 7
M  V30 7 1 7 8
M  V30 8 1 8 9
M  V30 9 2 9 10
M  V30 10 1 10 11
M  V30 11 1 11 12
M  V30 12 1 7 13
M  V30 13 1 13 14
M  V30 14 1 14 15
M  V30 15 1 15 16
M  V30 16 2 15 17
M  V30 17 2 14 5
M  V30 18 2 12 8
M  V30 19 1 1 18
M  V30 20 1 1 19
M  V30 21 1 4 20
M  V30 22 1 6 21
M  V30 23 1 9 22
M  V30 24 1 10 23
M  V30 25 1 12 24
M  V30 26 1 16 25
M  V30 27 1 16 26
M  V30 END BOND
M  V30 END CTAB
M  END
>  <Dataset>  (563) 
ChEMBL_Kinases

>  <Ligand_Instance>  (563) 
nan

>  <PDB_ID>  (563) 
nan

>  <Standardized_SMILES>  (563) 
NC(=O)Nc1cc(-c2ccsc2)sc1C(N)=O

>  <Name>  (563) 
nan

>  <Pocket>  (563) 
nan

>  <ATP_Site>  (563) 
nan

>  <Peripheral>  (563) 
nan

>  <Num_H_Atoms_ProtBoundConf>  (563) 
nan

>  <Num_Resolved_Atoms>  (563) 
nan

>  <Num_Not_Resolved_Atoms>  (563) 
nan

$$$$
CHEMBL1831077
     RDKit          3D

  0  0  0  0  0  0  0  0  0  0999 V3000
M  V30 BEGIN CTAB
M  V30 COUNTS 33 34 0 0 0
M  V30 BEGIN ATOM
M  V30 1 C -2.660624 -4.279143 4.937340 0
M  V30 2 O -1.376547 -4.280081 4.299765 0
M  V30 3 C -1.132327 -3.342395 3.304343 0
M  V30 4 C 0.129911 -3.416385 2.745730 0
M  V30 5 C 0.463397 -2.517960 1.742518 0
M  V30 6 C -0.497647 -1.602678 1.367225 0
M  V30 7 C -0.195330 -0.592609 0.275463 0
M  V30 8 C 0.949797 -0.448528 -0.428056 0
M  V30 9 C 0.990157 0.517198 -1.348261 0
M  V30 10 N 2.146158 0.795932 -2.182651 0
M  V30 11 C 3.083385 1.743300 -1.652809 0
M  V30 12 N 4.281263 2.148988 -2.321952 0
M  V30 13 O 3.122010 2.408981 -0.583123 0
M  V30 14 C -0.083418 1.277082 -1.522888 0
M  V30 15 C -0.374057 2.419202 -2.442962 0
M  V30 16 N -1.651187 3.041544 -2.388207 0
M  V30 17 O 0.553122 2.757695 -3.219334 0
M  V30 18 S -1.214596 0.639560 -0.366370 0
M  V30 19 C -1.754105 -1.538393 1.932009 0
M  V30 20 C -2.097816 -2.427690 2.931801 0
M  V30 21 H -2.738858 -5.051129 5.700016 0
M  V30 22 H -3.443868 -4.398044 4.147276 0
M  V30 23 H -2.823868 -3.257211 5.374857 0
M  V30 24 H 0.868741 -4.143134 3.055777 0
M  V30 25 H 1.414631 -2.510380 1.262515 0
M  V30 26 H 1.789225 -1.135965 -0.204566 0
M  V30 27 H 2.405496 0.412135 -3.116181 0
M  V30 28 H 5.115712 1.538637 -2.204579 0
M  V30 29 H 4.345633 3.013606 -2.908639 0
M  V30 30 H -2.014441 3.252154 -3.347302 0
M  V30 31 H -2.082936 3.219711 -1.434933 0
M  V30 32 H -2.503707 -0.805892 1.621964 0
M  V30 33 H -3.072327 -2.420180 3.409321 0
M  V30 END ATOM
M  V30 BEGIN BOND
M  V30 1 1 1 2
M  V30 2 1 2 3
M  V30 3 2 3 4
M  V30 4 1 4 5
M  V30 5 2 5 6
M  V30 6 1 6 7
M  V30 7 2 7 8
M  V30 8 1 8 9
M  V30 9 1 9 10
M  V30 10 1 10 11
M  V30 11 1 11 12
M  V30 12 2 11 13
M  V30 13 2 9 14
M  V30 14 1 14 15
M  V30 15 1 15 16
M  V30 16 2 15 17
M  V30 17 1 14 18
M  V30 18 1 6 19
M  V30 19 2 19 20
M  V30 20 1 20 3
M  V30 21 1 18 7
M  V30 22 1 1 21
M  V30 23 1 1 22
M  V30 24 1 1 23
M  V30 25 1 4 24
M  V30 26 1 5 25
M  V30 27 1 8 26
M  V30 28 1 10 27
M  V30 29 1 12 28
M  V30 30 1 12 29
M  V30 31 1 16 30
M  V30 32 1 16 31
M  V30 33 1 19 32
M  V30 34 1 20 33
M  V30 END BOND
M  V30 END CTAB
M  END
>  <Dataset>  (564) 
ChEMBL_Kinases

>  <Ligand_Instance>  (564) 
nan

>  <PDB_ID>  (564) 
nan

>  <Standardized_SMILES>  (564) 
COc1ccc(-c2cc(NC(N)=O)c(C(N)=O)s2)cc1

>  <Name>  (564) 
nan

>  <Pocket>  (564) 
nan

>  <ATP_Site>  (564) 
nan

>  <Peripheral>  (564) 
nan

>  <Num_H_Atoms_ProtBoundConf>  (564) 
nan

>  <Num_Resolved_Atoms>  (564) 
nan

>  <Num_Not_Resolved_Atoms>  (564) 
nan

$$$$
CHEMBL1831076
     RDKit          3D

  0  0  0  0  0  0  0  0  0  0999 V3000
M  V30 BEGIN CTAB
M  V30 COUNTS 43 46 0 0 0
M  V30 BEGIN ATOM
M  V30 1 C 0.731210 -6.775650 -0.609168 0
M  V30 2 N 0.052866 -6.341979 0.597481 0
M  V30 3 C -0.085578 -4.938693 0.920552 0
M  V30 4 N 0.438546 -4.053899 0.058799 0
M  V30 5 C 0.332143 -2.721668 0.321649 0
M  V30 6 C 0.851155 -1.794889 -0.528478 0
M  V30 7 C 0.663924 -0.474239 -0.124980 0
M  V30 8 C 1.058594 0.844385 -0.735068 0
M  V30 9 C 1.733061 0.832258 -1.911523 0
M  V30 10 C 2.051002 2.084970 -2.392204 0
M  V30 11 C 1.699184 3.232211 -1.711506 0
M  V30 12 C 1.013909 3.186551 -0.519571 0
M  V30 13 C 0.632750 4.420137 0.217279 0
M  V30 14 C 1.695795 4.820794 1.169648 0
M  V30 15 C 1.481199 6.030644 1.988106 0
M  V30 16 O 2.734514 4.195522 1.304072 0
M  V30 17 C 0.686589 1.942213 -0.022082 0
M  V30 18 S -0.280507 -0.638968 1.511013 0
M  V30 19 C -0.313951 -2.386776 1.466914 0
M  V30 20 N -0.822358 -3.297100 2.299804 0
M  V30 21 C -1.475446 -3.066891 3.451310 0
M  V30 22 C -1.807098 -1.759554 4.104649 0
M  V30 23 C -1.812596 -4.323511 3.965734 0
M  V30 24 N -1.344623 -5.262573 3.095644 0
M  V30 25 C -0.745852 -4.620716 2.089479 0
M  V30 26 H 0.084504 -6.559510 -1.469837 0
M  V30 27 H 1.613482 -6.082379 -0.708145 0
M  V30 28 H 1.029953 -7.819056 -0.511272 0
M  V30 29 H -0.336238 -7.062829 1.232532 0
M  V30 30 H 1.383048 -1.871527 -1.459662 0
M  V30 31 H 1.948721 -0.133824 -2.344282 0
M  V30 32 H 2.599413 2.079615 -3.348193 0
M  V30 33 H 1.983474 4.200692 -2.150224 0
M  V30 34 H -0.299381 4.209036 0.800936 0
M  V30 35 H 0.361860 5.202955 -0.514099 0
M  V30 36 H 0.613763 6.623824 1.669305 0
M  V30 37 H 1.352237 5.808476 3.064671 0
M  V30 38 H 2.371528 6.724180 1.945027 0
M  V30 39 H 0.154208 1.906221 0.903570 0
M  V30 40 H -2.710403 -1.886569 4.764095 0
M  V30 41 H -2.005041 -0.963131 3.358845 0
M  V30 42 H -0.993392 -1.399016 4.763947 0
M  V30 43 H -2.345201 -4.489121 4.884025 0
M  V30 END ATOM
M  V30 BEGIN BOND
M  V30 1 1 1 2
M  V30 2 1 2 3
M  V30 3 2 3 4
M  V30 4 1 4 5
M  V30 5 1 5 6
M  V30 6 2 6 7
M  V30 7 1 7 8
M  V30 8 2 8 9
M  V30 9 1 9 10
M  V30 10 2 10 11
M  V30 11 1 11 12
M  V30 12 1 12 13
M  V30 13 1 13 14
M  V30 14 1 14 15
M  V30 15 2 14 16
M  V30 16 2 12 17
M  V30 17 1 7 18
M  V30 18 1 18 19
M  V30 19 1 19 20
M  V30 20 1 20 21
M  V30 21 1 21 22
M  V30 22 2 21 23
M  V30 23 1 23 24
M  V30 24 2 24 25
M  V30 25 1 25 3
M  V30 26 2 19 5
M  V30 27 1 25 20
M  V30 28 1 17 8
M  V30 29 1 1 26
M  V30 30 1 1 27
M  V30 31 1 1 28
M  V30 32 1 2 29
M  V30 33 1 6 30
M  V30 34 1 9 31
M  V30 35 1 10 32
M  V30 36 1 11 33
M  V30 37 1 13 34
M  V30 38 1 13 35
M  V30 39 1 15 36
M  V30 40 1 15 37
M  V30 41 1 15 38
M  V30 42 1 17 39
M  V30 43 1 22 40
M  V30 44 1 22 41
M  V30 45 1 22 42
M  V30 46 1 23 43
M  V30 END BOND
M  V30 END CTAB
M  END
>  <Dataset>  (565) 
ChEMBL_Kinases

>  <Ligand_Instance>  (565) 
nan

>  <PDB_ID>  (565) 
nan

>  <Standardized_SMILES>  (565) 
CNc1nc2cc(-c3cccc(CC(C)=O)c3)sc2n2c(C)cnc12

>  <Name>  (565) 
nan

>  <Pocket>  (565) 
nan

>  <ATP_Site>  (565) 
nan

>  <Peripheral>  (565) 
nan

>  <Num_H_Atoms_ProtBoundConf>  (565) 
nan

>  <Num_Resolved_Atoms>  (565) 
nan

>  <Num_Not_Resolved_Atoms>  (565) 
nan

$$$$
CHEMBL183100
     RDKit          3D

  0  0  0  0  0  0  0  0  0  0999 V3000
M  V30 BEGIN CTAB
M  V30 COUNTS 56 58 0 0 0
M  V30 BEGIN ATOM
M  V30 1 C 4.361005 -6.108991 6.104130 0
M  V30 2 O 4.332051 -5.929805 4.709445 0
M  V30 3 C 3.712000 -4.801399 4.191344 0
M  V30 4 C 3.110598 -3.826064 4.983426 0
M  V30 5 C 2.519976 -2.740543 4.370435 0
M  V30 6 C 2.477637 -2.542816 3.018559 0
M  V30 7 C 1.858104 -1.402262 2.359786 0
M  V30 8 O 1.886278 -1.362379 1.109698 0
M  V30 9 N 1.229123 -0.340965 3.042676 0
M  V30 10 C 0.594760 0.813579 2.529154 0
M  V30 11 C 0.435017 1.169574 1.217085 0
M  V30 12 C -0.184180 2.297443 0.765282 0
M  V30 13 N -0.297829 2.571887 -0.646924 0
M  V30 14 C -1.524131 1.983259 -1.076310 0
M  V30 15 O -2.114058 1.418497 -0.106929 0
M  V30 16 C -2.018122 2.038382 -2.469676 0
M  V30 17 C -1.364760 2.654876 -3.517360 0
M  V30 18 C -1.971145 2.614880 -4.776528 0
M  V30 19 C -3.192734 1.969848 -4.946639 0
M  V30 20 C -3.850761 1.348985 -3.891537 0
M  V30 21 N -5.096306 0.691015 -4.061849 0
M  V30 22 C -5.732083 0.057469 -2.901266 0
M  V30 23 C -5.717045 0.653086 -5.362727 0
M  V30 24 C -3.246063 1.389585 -2.638734 0
M  V30 25 C -0.708297 3.181451 1.685337 0
M  V30 26 C -0.574112 2.869664 3.021716 0
M  V30 27 C 0.061109 1.715846 3.422102 0
M  V30 28 Cl 0.172776 1.422990 5.151525 0
M  V30 29 C 3.085773 -3.535418 2.285219 0
M  V30 30 C 3.696027 -4.649245 2.837030 0
M  V30 31 O 4.291563 -5.612134 2.021947 0
M  V30 32 C 4.314235 -5.522347 0.620014 0
M  V30 33 H 4.662297 -7.163296 6.370268 0
M  V30 34 H 3.323902 -5.967772 6.476196 0
M  V30 35 H 5.017172 -5.389479 6.629835 0
M  V30 36 H 3.130933 -3.959952 6.058326 0
M  V30 37 H 2.083660 -2.040666 5.038257 0
M  V30 38 H 1.262727 -0.472658 4.076542 0
M  V30 39 H 0.820275 0.523888 0.455531 0
M  V30 40 H 0.292720 3.078982 -1.372632 0
M  V30 41 H -0.420969 3.130754 -3.292941 0
M  V30 42 H -1.455243 3.098490 -5.590368 0
M  V30 43 H -3.649389 1.950093 -5.939140 0
M  V30 44 H -6.010675 0.834784 -2.139400 0
M  V30 45 H -6.593003 -0.563734 -3.215046 0
M  V30 46 H -4.964478 -0.642664 -2.489739 0
M  V30 47 H -5.885140 1.680985 -5.746827 0
M  V30 48 H -6.681014 0.080489 -5.300781 0
M  V30 49 H -5.082699 0.133828 -6.121560 0
M  V30 50 H -3.776483 0.899780 -1.831338 0
M  V30 51 H -1.210575 4.092499 1.394358 0
M  V30 52 H -0.977612 3.548177 3.757905 0
M  V30 53 H 3.110815 -3.479524 1.198085 0
M  V30 54 H 5.149339 -4.868466 0.258347 0
M  V30 55 H 3.355449 -5.257694 0.160134 0
M  V30 56 H 4.575090 -6.540658 0.239402 0
M  V30 END ATOM
M  V30 BEGIN BOND
M  V30 1 1 1 2
M  V30 2 1 2 3
M  V30 3 2 3 4
M  V30 4 1 4 5
M  V30 5 2 5 6
M  V30 6 1 6 7
M  V30 7 2 7 8
M  V30 8 1 7 9
M  V30 9 1 9 10
M  V30 10 2 10 11
M  V30 11 1 11 12
M  V30 12 1 12 13
M  V30 13 1 13 14
M  V30 14 2 14 15
M  V30 15 1 14 16
M  V30 16 2 16 17
M  V30 17 1 17 18
M  V30 18 2 18 19
M  V30 19 1 19 20
M  V30 20 1 20 21
M  V30 21 1 21 22
M  V30 22 1 21 23
M  V30 23 2 20 24
M  V30 24 2 12 25
M  V30 25 1 25 26
M  V30 26 2 26 27
M  V30 27 1 27 28
M  V30 28 1 6 29
M  V30 29 2 29 30
M  V30 30 1 30 31
M  V30 31 1 31 32
M  V30 32 1 30 3
M  V30 33 1 27 10
M  V30 34 1 24 16
M  V30 35 1 1 33
M  V30 36 1 1 34
M  V30 37 1 1 35
M  V30 38 1 4 36
M  V30 39 1 5 37
M  V30 40 1 9 38
M  V30 41 1 11 39
M  V30 42 1 13 40
M  V30 43 1 17 41
M  V30 44 1 18 42
M  V30 45 1 19 43
M  V30 46 1 22 44
M  V30 47 1 22 45
M  V30 48 1 22 46
M  V30 49 1 23 47
M  V30 50 1 23 48
M  V30 51 1 23 49
M  V30 52 1 24 50
M  V30 53 1 25 51
M  V30 54 1 26 52
M  V30 55 1 29 53
M  V30 56 1 32 54
M  V30 57 1 32 55
M  V30 58 1 32 56
M  V30 END BOND
M  V30 END CTAB
M  END
>  <Dataset>  (566) 
ChEMBL_Kinases

>  <Ligand_Instance>  (566) 
nan

>  <PDB_ID>  (566) 
nan

>  <Standardized_SMILES>  (566) 
COc1ccc(C(=O)Nc2cc(NC(=O)c3cccc(N(C)C)c3)ccc2Cl)cc1OC

>  <Name>  (566) 
nan

>  <Pocket>  (566) 
nan

>  <ATP_Site>  (566) 
nan

>  <Peripheral>  (566) 
nan

>  <Num_H_Atoms_ProtBoundConf>  (566) 
nan

>  <Num_Resolved_Atoms>  (566) 
nan

>  <Num_Not_Resolved_Atoms>  (566) 
nan

$$$$
CHEMBL183077
     RDKit          3D

  0  0  0  0  0  0  0  0  0  0999 V3000
M  V30 BEGIN CTAB
M  V30 COUNTS 40 42 0 0 0
M  V30 BEGIN ATOM
M  V30 1 C 1.374684 -7.290911 2.790103 0
M  V30 2 O 2.016763 -6.129478 2.289632 0
M  V30 3 C 1.259874 -5.022660 1.960223 0
M  V30 4 C 1.957288 -3.918187 1.474937 0
M  V30 5 C 1.255766 -2.763129 1.121648 0
M  V30 6 C -0.117470 -2.751869 1.265479 0
M  V30 7 C -0.918060 -1.561378 0.909698 0
M  V30 8 C -0.408564 -0.373536 0.413671 0
M  V30 9 C -1.488544 0.464981 0.218706 0
M  V30 10 C -1.653831 1.756196 -0.242971 0
M  V30 11 N -0.520185 2.515191 -0.647040 0
M  V30 12 C 0.335362 3.384054 0.075643 0
M  V30 13 O 0.239901 3.663278 1.300719 0
M  V30 14 C 1.453902 4.047131 -0.620892 0
M  V30 15 C 2.158984 4.897784 0.441543 0
M  V30 16 C 2.424289 3.075129 -1.224563 0
M  V30 17 N -2.925629 2.235352 -0.283813 0
M  V30 18 C -3.993891 1.515156 0.098786 0
M  V30 19 N -3.872933 0.239960 0.559296 0
M  V30 20 C -2.605957 -0.247232 0.603641 0
M  V30 21 O -2.240107 -1.440811 1.007440 0
M  V30 22 C -0.780883 -3.861176 1.748896 0
M  V30 23 C -0.111495 -5.030690 2.111014 0
M  V30 24 H 0.915341 -6.961729 3.759703 0
M  V30 25 H 2.102661 -8.108629 2.942250 0
M  V30 26 H 0.528657 -7.597741 2.140233 0
M  V30 27 H 3.035090 -3.944663 1.368596 0
M  V30 28 H 1.746951 -1.878715 0.740305 0
M  V30 29 H 0.603546 -0.105443 0.205018 0
M  V30 30 H -0.374944 2.332105 -1.671812 0
M  V30 31 H 1.079669 4.722468 -1.420236 0
M  V30 32 H 1.413080 5.409629 1.086106 0
M  V30 33 H 2.846027 4.297190 1.056817 0
M  V30 34 H 2.718898 5.729505 -0.066546 0
M  V30 35 H 3.452202 3.376730 -0.926439 0
M  V30 36 H 2.279716 2.034205 -0.885404 0
M  V30 37 H 2.438980 3.153670 -2.350346 0
M  V30 38 H -4.958413 2.019696 0.015392 0
M  V30 39 H -1.854652 -3.822602 1.850308 0
M  V30 40 H -0.608593 -5.907276 2.490086 0
M  V30 END ATOM
M  V30 BEGIN BOND
M  V30 1 1 1 2
M  V30 2 1 2 3
M  V30 3 2 3 4
M  V30 4 1 4 5
M  V30 5 2 5 6
M  V30 6 1 6 7
M  V30 7 2 7 8
M  V30 8 1 8 9
M  V30 9 2 9 10
M  V30 10 1 10 11
M  V30 11 1 11 12
M  V30 12 2 12 13
M  V30 13 1 12 14
M  V30 14 1 14 15
M  V30 15 1 14 16
M  V30 16 1 10 17
M  V30 17 2 17 18
M  V30 18 1 18 19
M  V30 19 2 19 20
M  V30 20 1 20 21
M  V30 21 1 6 22
M  V30 22 2 22 23
M  V30 23 1 23 3
M  V30 24 1 21 7
M  V30 25 1 20 9
M  V30 26 1 1 24
M  V30 27 1 1 25
M  V30 28 1 1 26
M  V30 29 1 4 27
M  V30 30 1 5 28
M  V30 31 1 8 29
M  V30 32 1 11 30
M  V30 33 1 14 31
M  V30 34 1 15 32
M  V30 35 1 15 33
M  V30 36 1 15 34
M  V30 37 1 16 35
M  V30 38 1 16 36
M  V30 39 1 16 37
M  V30 40 1 18 38
M  V30 41 1 22 39
M  V30 42 1 23 40
M  V30 END BOND
M  V30 END CTAB
M  END
>  <Dataset>  (567) 
ChEMBL_Kinases

>  <Ligand_Instance>  (567) 
nan

>  <PDB_ID>  (567) 
nan

>  <Standardized_SMILES>  (567) 
COc1ccc(-c2cc3c(NC(=O)C(C)C)ncnc3o2)cc1

>  <Name>  (567) 
nan

>  <Pocket>  (567) 
nan

>  <ATP_Site>  (567) 
nan

>  <Peripheral>  (567) 
nan

>  <Num_H_Atoms_ProtBoundConf>  (567) 
nan

>  <Num_Resolved_Atoms>  (567) 
nan

>  <Num_Not_Resolved_Atoms>  (567) 
nan

$$$$
CHEMBL183064
     RDKit          3D

  0  0  0  0  0  0  0  0  0  0999 V3000
M  V30 BEGIN CTAB
M  V30 COUNTS 53 58 0 0 0
M  V30 BEGIN ATOM
M  V30 1 C 0.940700 -0.527937 6.701980 0
M  V30 2 C 1.107545 -0.893914 5.256516 0
M  V30 3 C 1.480824 0.125529 4.381820 0
M  V30 4 C 1.635032 -0.197463 3.067736 0
M  V30 5 C 1.402513 -1.527482 2.722614 0
M  V30 6 C 1.493761 -2.093162 1.461626 0
M  V30 7 C 1.834905 -1.551706 0.154050 0
M  V30 8 C 2.905194 -1.947496 -0.617584 0
M  V30 9 C 3.080894 -1.325533 -1.833697 0
M  V30 10 N 2.219154 -0.377979 -2.209771 0
M  V30 11 C 1.161650 0.041636 -1.492555 0
M  V30 12 N 0.314817 1.058240 -1.998289 0
M  V30 13 C -0.826382 1.620032 -1.376173 0
M  V30 14 C -1.336617 1.296581 -0.140887 0
M  V30 15 C -2.437116 1.850096 0.439751 0
M  V30 16 C -3.118543 2.818321 -0.242429 0
M  V30 17 C -2.660387 3.190876 -1.488494 0
M  V30 18 C -1.542471 2.599606 -2.029780 0
M  V30 19 O -3.383047 4.172731 -2.137452 0
M  V30 20 C -4.788472 4.212603 -1.934842 0
M  V30 21 C -5.069118 4.323673 -0.460502 0
M  V30 22 O -4.238904 3.440694 0.251099 0
M  V30 23 N 1.032201 -0.591012 -0.320088 0
M  V30 24 C 1.176240 -3.448832 1.577560 0
M  V30 25 C 1.111696 -4.514388 0.581169 0
M  V30 26 C 2.002454 -5.576063 0.773923 0
M  V30 27 C 2.019271 -6.633822 -0.113593 0
M  V30 28 C 1.126031 -6.555871 -1.154145 0
M  V30 29 F 1.138934 -7.605234 -2.038949 0
M  V30 30 C 0.223536 -5.553432 -1.412192 0
M  V30 31 C 0.229945 -4.505891 -0.504746 0
M  V30 32 N 0.910741 -3.636133 2.891131 0
M  V30 33 N 1.041456 -2.514405 3.567507 0
M  V30 34 N 0.906011 -2.144939 4.831786 0
M  V30 35 H 0.387782 0.435963 6.783563 0
M  V30 36 H 1.937016 -0.352936 7.152422 0
M  V30 37 H 0.457135 -1.359254 7.244061 0
M  V30 38 H 1.656519 1.153651 4.671208 0
M  V30 39 H 1.920739 0.522657 2.321036 0
M  V30 40 H 3.543368 -2.724021 -0.220512 0
M  V30 41 H 3.907055 -1.615703 -2.454090 0
M  V30 42 H 0.569927 1.434040 -2.944890 0
M  V30 43 H -0.839616 0.538802 0.443092 0
M  V30 44 H -2.788173 1.551847 1.416389 0
M  V30 45 H -1.217904 2.933844 -3.028116 0
M  V30 46 H -5.238615 5.057969 -2.493727 0
M  V30 47 H -5.259863 3.264734 -2.295708 0
M  V30 48 H -4.908057 5.395206 -0.192333 0
M  V30 49 H -6.131371 4.020953 -0.231841 0
M  V30 50 H 2.686212 -5.577532 1.620493 0
M  V30 51 H 2.686945 -7.484474 -0.016391 0
M  V30 52 H -0.440296 -5.573798 -2.252563 0
M  V30 53 H -0.437186 -3.663853 -0.608589 0
M  V30 END ATOM
M  V30 BEGIN BOND
M  V30 1 1 1 2
M  V30 2 1 2 3
M  V30 3 2 3 4
M  V30 4 1 4 5
M  V30 5 2 5 6
M  V30 6 1 6 7
M  V30 7 2 7 8
M  V30 8 1 8 9
M  V30 9 2 9 10
M  V30 10 1 10 11
M  V30 11 1 11 12
M  V30 12 1 12 13
M  V30 13 2 13 14
M  V30 14 1 14 15
M  V30 15 2 15 16
M  V30 16 1 16 17
M  V30 17 2 17 18
M  V30 18 1 17 19
M  V30 19 1 19 20
M  V30 20 1 20 21
M  V30 21 1 21 22
M  V30 22 2 11 23
M  V30 23 1 6 24
M  V30 24 1 24 25
M  V30 25 2 25 26
M  V30 26 1 26 27
M  V30 27 2 27 28
M  V30 28 1 28 29
M  V30 29 1 28 30
M  V30 30 2 30 31
M  V30 31 2 24 32
M  V30 32 1 32 33
M  V30 33 1 33 34
M  V30 34 2 34 2
M  V30 35 1 33 5
M  V30 36 1 23 7
M  V30 37 1 31 25
M  V30 38 1 18 13
M  V30 39 1 22 16
M  V30 40 1 1 35
M  V30 41 1 1 36
M  V30 42 1 1 37
M  V30 43 1 3 38
M  V30 44 1 4 39
M  V30 45 1 8 40
M  V30 46 1 9 41
M  V30 47 1 12 42
M  V30 48 1 14 43
M  V30 49 1 15 44
M  V30 50 1 18 45
M  V30 51 1 20 46
M  V30 52 1 20 47
M  V30 53 1 21 48
M  V30 54 1 21 49
M  V30 55 1 26 50
M  V30 56 1 27 51
M  V30 57 1 30 52
M  V30 58 1 31 53
M  V30 END BOND
M  V30 END CTAB
M  END
>  <Dataset>  (568) 
ChEMBL_Kinases

>  <Ligand_Instance>  (568) 
nan

>  <PDB_ID>  (568) 
nan

>  <Standardized_SMILES>  (568) 
Cc1ccc2c(-c3ccnc(Nc4ccc5c(c4)OCCO5)n3)c(-c3ccc(F)cc3)nn2n1

>  <Name>  (568) 
nan

>  <Pocket>  (568) 
nan

>  <ATP_Site>  (568) 
nan

>  <Peripheral>  (568) 
nan

>  <Num_H_Atoms_ProtBoundConf>  (568) 
nan

>  <Num_Resolved_Atoms>  (568) 
nan

>  <Num_Not_Resolved_Atoms>  (568) 
nan

$$$$
CHEMBL1830598
     RDKit          3D

  0  0  0  0  0  0  0  0  0  0999 V3000
M  V30 BEGIN CTAB
M  V30 COUNTS 49 53 0 0 0
M  V30 BEGIN ATOM
M  V30 1 N 4.070846 -4.075054 1.642398 0
M  V30 2 S 4.665107 -3.072824 0.342999 0
M  V30 3 O 6.116823 -2.778104 0.584923 0
M  V30 4 O 4.467865 -3.847727 -0.921823 0
M  V30 5 C 3.734259 -1.571220 0.250631 0
M  V30 6 C 4.129392 -0.448219 0.967414 0
M  V30 7 C 3.406106 0.727907 0.899257 0
M  V30 8 C 2.276962 0.772186 0.103187 0
M  V30 9 N 1.443758 1.924561 -0.053264 0
M  V30 10 N 1.887137 3.157596 -0.319985 0
M  V30 11 C 0.874422 4.021183 -0.408334 0
M  V30 12 C 0.909930 5.480158 -0.687535 0
M  V30 13 F 0.334833 5.695134 -1.915848 0
M  V30 14 F 2.168244 6.011295 -0.557207 0
M  V30 15 F 0.114134 6.145029 0.243830 0
M  V30 16 C -0.290034 3.315881 -0.187996 0
M  V30 17 C 0.099882 2.027327 0.027248 0
M  V30 18 C -0.783390 0.897441 0.307155 0
M  V30 19 C -1.938224 0.716331 -0.437901 0
M  V30 20 C -2.754262 -0.366304 -0.146088 0
M  V30 21 C -2.419328 -1.238243 0.862409 0
M  V30 22 C -1.275975 -1.043559 1.586883 0
M  V30 23 C -0.863922 -1.867968 2.614762 0
M  V30 24 C -1.672063 -2.938223 2.902122 0
M  V30 25 C -2.824360 -3.132806 2.170592 0
M  V30 26 C -3.627311 -4.225626 2.481340 0
M  V30 27 C -4.788478 -4.454320 1.772134 0
M  V30 28 C -5.155686 -3.590893 0.745770 0
M  V30 29 C -4.371122 -2.523437 0.442429 0
M  V30 30 C -3.220683 -2.304443 1.151585 0
M  V30 31 C -0.427268 0.035631 1.323491 0
M  V30 32 C 1.876501 -0.346883 -0.615922 0
M  V30 33 C 2.599763 -1.525954 -0.548914 0
M  V30 34 H 3.029042 -4.105508 1.637258 0
M  V30 35 H 4.296181 -3.514471 2.518528 0
M  V30 36 H 4.995183 -0.459372 1.586590 0
M  V30 37 H 3.672143 1.627704 1.437168 0
M  V30 38 H -1.308778 3.700378 -0.185080 0
M  V30 39 H -2.151210 1.443656 -1.227370 0
M  V30 40 H -3.619358 -0.419741 -0.774700 0
M  V30 41 H 0.036189 -1.706571 3.178137 0
M  V30 42 H -1.371296 -3.604598 3.707778 0
M  V30 43 H -3.357090 -4.914266 3.282268 0
M  V30 44 H -5.382496 -5.309725 2.042262 0
M  V30 45 H -6.095576 -3.849569 0.234776 0
M  V30 46 H -4.751364 -1.926978 -0.365266 0
M  V30 47 H 0.478921 0.195123 1.893240 0
M  V30 48 H 1.013026 -0.396196 -1.256699 0
M  V30 49 H 2.345525 -2.443169 -1.085035 0
M  V30 END ATOM
M  V30 BEGIN BOND
M  V30 1 1 1 2
M  V30 2 2 2 3
M  V30 3 2 2 4
M  V30 4 1 2 5
M  V30 5 2 5 6
M  V30 6 1 6 7
M  V30 7 2 7 8
M  V30 8 1 8 9
M  V30 9 1 9 10
M  V30 10 2 10 11
M  V30 11 1 11 12
M  V30 12 1 12 13
M  V30 13 1 12 14
M  V30 14 1 12 15
M  V30 15 1 11 16
M  V30 16 2 16 17
M  V30 17 1 17 18
M  V30 18 2 18 19
M  V30 19 1 19 20
M  V30 20 2 20 21
M  V30 21 1 21 22
M  V30 22 1 22 23
M  V30 23 2 23 24
M  V30 24 1 24 25
M  V30 25 2 25 26
M  V30 26 1 26 27
M  V30 27 2 27 28
M  V30 28 1 28 29
M  V30 29 2 29 30
M  V30 30 2 22 31
M  V30 31 1 8 32
M  V30 32 2 32 33
M  V30 33 1 33 5
M  V30 34 1 17 9
M  V30 35 1 31 18
M  V30 36 1 30 21
M  V30 37 1 30 25
M  V30 38 1 1 34
M  V30 39 1 1 35
M  V30 40 1 6 36
M  V30 41 1 7 37
M  V30 42 1 16 38
M  V30 43 1 19 39
M  V30 44 1 20 40
M  V30 45 1 23 41
M  V30 46 1 24 42
M  V30 47 1 26 43
M  V30 48 1 27 44
M  V30 49 1 28 45
M  V30 50 1 29 46
M  V30 51 1 31 47
M  V30 52 1 32 48
M  V30 53 1 33 49
M  V30 END BOND
M  V30 END CTAB
M  END
>  <Dataset>  (569) 
ChEMBL_Kinases

>  <Ligand_Instance>  (569) 
nan

>  <PDB_ID>  (569) 
nan

>  <Standardized_SMILES>  (569) 
NS(=O)(=O)c1ccc(-n2nc(C(F)(F)F)cc2-c2ccc3c(ccc4ccccc43)c2)cc1

>  <Name>  (569) 
nan

>  <Pocket>  (569) 
nan

>  <ATP_Site>  (569) 
nan

>  <Peripheral>  (569) 
nan

>  <Num_H_Atoms_ProtBoundConf>  (569) 
nan

>  <Num_Resolved_Atoms>  (569) 
nan

>  <Num_Not_Resolved_Atoms>  (569) 
nan

$$$$
CHEMBL183038
     RDKit          3D

  0  0  0  0  0  0  0  0  0  0999 V3000
M  V30 BEGIN CTAB
M  V30 COUNTS 40 43 0 0 0
M  V30 BEGIN ATOM
M  V30 1 O 0.219885 -2.207361 2.999740 0
M  V30 2 C -0.843286 -2.391992 2.342077 0
M  V30 3 N -0.601382 -2.898107 1.013167 0
M  V30 4 C 0.776261 -3.102456 0.668790 0
M  V30 5 N 1.472557 -4.241839 0.861400 0
M  V30 6 C 2.780230 -4.272796 0.476831 0
M  V30 7 N 3.448402 -3.237877 -0.091514 0
M  V30 8 C 2.788437 -2.074647 -0.303551 0
M  V30 9 O 3.140571 -0.933095 -0.814044 0
M  V30 10 C 2.143641 -0.080125 -0.814366 0
M  V30 11 C 2.166623 1.294431 -1.307766 0
M  V30 12 C 3.337528 1.795576 -1.839299 0
M  V30 13 C 3.339027 3.082091 -2.295050 0
M  V30 14 C 2.180637 3.849436 -2.216223 0
M  V30 15 C 0.983215 3.361951 -1.681507 0
M  V30 16 C 1.017408 2.054830 -1.229257 0
M  V30 17 C 1.066973 -0.739314 -0.255429 0
M  V30 18 C 1.444963 -2.022619 0.084390 0
M  V30 19 C -2.242240 -2.175337 2.716458 0
M  V30 20 C -2.825346 -1.159412 1.739789 0
M  V30 21 C -2.215458 0.132939 2.253464 0
M  V30 22 C -1.948014 -0.085949 3.729411 0
M  V30 23 C -2.386542 -1.482401 4.039726 0
M  V30 24 H -1.314191 -3.121651 0.303153 0
M  V30 25 H 3.342345 -5.197910 0.634198 0
M  V30 26 H 4.250130 1.231267 -1.915636 0
M  V30 27 H 4.208919 3.559575 -2.727147 0
M  V30 28 H 2.193939 4.866456 -2.580172 0
M  V30 29 H 0.133837 4.029600 -1.660876 0
M  V30 30 H 0.075094 1.678001 -0.810868 0
M  V30 31 H 0.117953 -0.285015 -0.129155 0
M  V30 32 H -2.872896 -3.092527 2.654105 0
M  V30 33 H -2.435202 -1.434656 0.744374 0
M  V30 34 H -3.918796 -1.161462 1.810817 0
M  V30 35 H -2.889924 1.007396 2.094848 0
M  V30 36 H -1.269612 0.309693 1.736810 0
M  V30 37 H -2.507483 0.676629 4.292980 0
M  V30 38 H -0.886787 0.033233 4.008693 0
M  V30 39 H -1.810031 -1.971943 4.852614 0
M  V30 40 H -3.457904 -1.441055 4.319851 0
M  V30 END ATOM
M  V30 BEGIN BOND
M  V30 1 2 1 2
M  V30 2 1 2 3
M  V30 3 1 3 4
M  V30 4 2 4 5
M  V30 5 1 5 6
M  V30 6 2 6 7
M  V30 7 1 7 8
M  V30 8 1 8 9
M  V30 9 1 9 10
M  V30 10 1 10 11
M  V30 11 2 11 12
M  V30 12 1 12 13
M  V30 13 2 13 14
M  V30 14 1 14 15
M  V30 15 2 15 16
M  V30 16 2 10 17
M  V30 17 1 17 18
M  V30 18 1 2 19
M  V30 19 1 19 20
M  V30 20 1 20 21
M  V30 21 1 21 22
M  V30 22 1 22 23
M  V30 23 1 18 4
M  V30 24 1 23 19
M  V30 25 2 18 8
M  V30 26 1 16 11
M  V30 27 1 3 24
M  V30 28 1 6 25
M  V30 29 1 12 26
M  V30 30 1 13 27
M  V30 31 1 14 28
M  V30 32 1 15 29
M  V30 33 1 16 30
M  V30 34 1 17 31
M  V30 35 1 19 32
M  V30 36 1 20 33
M  V30 37 1 20 34
M  V30 38 1 21 35
M  V30 39 1 21 36
M  V30 40 1 22 37
M  V30 41 1 22 38
M  V30 42 1 23 39
M  V30 43 1 23 40
M  V30 END BOND
M  V30 END CTAB
M  END
>  <Dataset>  (570) 
ChEMBL_Kinases

>  <Ligand_Instance>  (570) 
nan

>  <PDB_ID>  (570) 
nan

>  <Standardized_SMILES>  (570) 
O=C(Nc1ncnc2oc(-c3ccccc3)cc12)C1CCCC1

>  <Name>  (570) 
nan

>  <Pocket>  (570) 
nan

>  <ATP_Site>  (570) 
nan

>  <Peripheral>  (570) 
nan

>  <Num_H_Atoms_ProtBoundConf>  (570) 
nan

>  <Num_Resolved_Atoms>  (570) 
nan

>  <Num_Not_Resolved_Atoms>  (570) 
nan

$$$$
CHEMBL183009
     RDKit          3D

  0  0  0  0  0  0  0  0  0  0999 V3000
M  V30 BEGIN CTAB
M  V30 COUNTS 43 45 0 0 0
M  V30 BEGIN ATOM
M  V30 1 N 2.997422 -3.944606 0.629012 0
M  V30 2 C 2.204402 -3.243645 1.072073 0
M  V30 3 C 1.242168 -2.378863 1.637781 0
M  V30 4 C 1.103866 -1.055809 1.325620 0
M  V30 5 C 1.953701 -0.431823 0.283890 0
M  V30 6 C 1.361848 -0.743972 -1.061751 0
M  V30 7 N 1.294073 -2.139192 -1.296774 0
M  V30 8 C 2.024871 0.007727 -2.161600 0
M  V30 9 C 1.561159 -0.410395 -3.415151 0
M  V30 10 C 2.042325 0.156075 -4.573702 0
M  V30 11 C 2.994408 1.146321 -4.446605 0
M  V30 12 C 3.480812 1.589605 -3.227583 0
M  V30 13 C 2.975172 0.998670 -2.088592 0
M  V30 14 C 0.156686 -0.320528 1.962810 0
M  V30 15 C -0.705847 -0.788189 2.920683 0
M  V30 16 C -1.747170 -0.095958 3.656909 0
M  V30 17 C -2.468907 -0.840246 4.568763 0
M  V30 18 C -3.490251 -0.244729 5.316597 0
M  V30 19 C -3.824988 1.090680 5.186645 0
M  V30 20 C -3.087430 1.805199 4.269691 0
M  V30 21 C -2.083998 1.223952 3.533482 0
M  V30 22 O -1.438341 2.032425 2.671275 0
M  V30 23 N -0.526915 -2.098920 3.189631 0
M  V30 24 C 0.398047 -2.879519 2.589139 0
M  V30 25 N 0.466236 -4.236733 2.978408 0
M  V30 26 H 2.014614 0.665707 0.435502 0
M  V30 27 H 2.956076 -0.912390 0.307201 0
M  V30 28 H 0.289793 -0.379254 -1.022144 0
M  V30 29 H 1.993034 -2.517407 -1.946216 0
M  V30 30 H 0.364574 -2.568023 -1.305432 0
M  V30 31 H 0.811404 -1.186295 -3.604139 0
M  V30 32 H 1.741548 -0.105252 -5.580212 0
M  V30 33 H 3.426808 1.647637 -5.324459 0
M  V30 34 H 4.224174 2.362037 -3.108736 0
M  V30 35 H 3.262444 1.243442 -1.066750 0
M  V30 36 H 0.074841 0.699233 1.700142 0
M  V30 37 H -2.311397 -1.910729 4.775316 0
M  V30 38 H -4.048356 -0.824942 6.023073 0
M  V30 39 H -4.611589 1.525764 5.769960 0
M  V30 40 H -3.351828 2.855755 4.168743 0
M  V30 41 H -0.668224 2.603986 2.980626 0
M  V30 42 H 0.122262 -5.005325 2.348518 0
M  V30 43 H 0.801438 -4.770853 3.817152 0
M  V30 END ATOM
M  V30 BEGIN BOND
M  V30 1 3 1 2
M  V30 2 1 2 3
M  V30 3 2 3 4
M  V30 4 1 4 5
M  V30 5 1 5 6
M  V30 6 1 6 7
M  V30 7 1 6 8
M  V30 8 2 8 9
M  V30 9 1 9 10
M  V30 10 2 10 11
M  V30 11 1 11 12
M  V30 12 2 12 13
M  V30 13 1 4 14
M  V30 14 2 14 15
M  V30 15 1 15 16
M  V30 16 2 16 17
M  V30 17 1 17 18
M  V30 18 2 18 19
M  V30 19 1 19 20
M  V30 20 2 20 21
M  V30 21 1 21 22
M  V30 22 1 15 23
M  V30 23 2 23 24
M  V30 24 1 24 25
M  V30 25 1 24 3
M  V30 26 1 13 8
M  V30 27 1 21 16
M  V30 28 1 5 26
M  V30 29 1 5 27
M  V30 30 1 6 28
M  V30 31 1 7 29
M  V30 32 1 7 30
M  V30 33 1 9 31
M  V30 34 1 10 32
M  V30 35 1 11 33
M  V30 36 1 12 34
M  V30 37 1 13 35
M  V30 38 1 14 36
M  V30 39 1 17 37
M  V30 40 1 18 38
M  V30 41 1 19 39
M  V30 42 1 20 40
M  V30 43 1 22 41
M  V30 44 1 25 42
M  V30 45 1 25 43
M  V30 END BOND
M  V30 END CTAB
M  END
>  <Dataset>  (571) 
ChEMBL_Kinases

>  <Ligand_Instance>  (571) 
nan

>  <PDB_ID>  (571) 
nan

>  <Standardized_SMILES>  (571) 
N#Cc1c(CC(N)c2ccccc2)cc(-c2ccccc2O)nc1N

>  <Name>  (571) 
nan

>  <Pocket>  (571) 
nan

>  <ATP_Site>  (571) 
nan

>  <Peripheral>  (571) 
nan

>  <Num_H_Atoms_ProtBoundConf>  (571) 
nan

>  <Num_Resolved_Atoms>  (571) 
nan

>  <Num_Not_Resolved_Atoms>  (571) 
nan

$$$$
CHEMBL1830064
     RDKit          3D

  0  0  0  0  0  0  0  0  0  0999 V3000
M  V30 BEGIN CTAB
M  V30 COUNTS 36 39 0 0 0
M  V30 BEGIN ATOM
M  V30 1 C -1.060022 -4.495423 1.995941 0
M  V30 2 O 0.347982 -4.661986 2.137220 0
M  V30 3 C 1.222095 -3.621295 1.779791 0
M  V30 4 C 2.563534 -3.971553 1.988918 0
M  V30 5 C 3.528900 -3.039035 1.678529 0
M  V30 6 C 3.104564 -1.807760 1.176425 0
M  V30 7 C 1.806731 -1.428339 0.958320 0
M  V30 8 C 0.924830 -2.377144 1.279582 0
M  V30 9 C 1.823287 -0.113421 0.447619 0
M  V30 10 C 0.774211 0.580082 0.120815 0
M  V30 11 N 0.831012 1.894050 -0.387333 0
M  V30 12 C -0.459293 2.424420 -0.663770 0
M  V30 13 C -0.842639 3.671405 -1.169765 0
M  V30 14 C -2.194963 3.873877 -1.321997 0
M  V30 15 C -3.134111 2.917802 -1.001026 0
M  V30 16 C -2.683018 1.715408 -0.508702 0
M  V30 17 C -1.341550 1.415918 -0.319309 0
M  V30 18 C -0.622295 0.259415 0.169725 0
M  V30 19 N -1.232696 -0.751103 0.529724 0
M  V30 20 O -2.570587 -0.913156 0.520113 0
M  V30 21 C 3.209054 0.309712 0.358248 0
M  V30 22 O 3.672195 1.389410 -0.036681 0
M  V30 23 N 4.027773 -0.755814 0.817280 0
M  V30 24 H -1.444909 -3.623124 2.561298 0
M  V30 25 H -1.546699 -5.395719 2.410328 0
M  V30 26 H -1.350470 -4.464816 0.918994 0
M  V30 27 H 2.883401 -4.918787 2.374828 0
M  V30 28 H 4.561947 -3.303030 1.837349 0
M  V30 29 H -0.112453 -2.344278 1.210472 0
M  V30 30 H 1.691315 2.441450 -0.553589 0
M  V30 31 H -0.104010 4.419791 -1.420831 0
M  V30 32 H -2.447424 4.848579 -1.714941 0
M  V30 33 H -4.178485 3.156906 -1.150785 0
M  V30 34 H -3.485289 1.028502 -0.285025 0
M  V30 35 H -3.029088 -1.755257 0.191791 0
M  V30 36 H 5.080836 -0.732561 0.865428 0
M  V30 END ATOM
M  V30 BEGIN BOND
M  V30 1 1 1 2
M  V30 2 1 2 3
M  V30 3 2 3 4
M  V30 4 1 4 5
M  V30 5 2 5 6
M  V30 6 1 6 7
M  V30 7 2 7 8
M  V30 8 1 7 9
M  V30 9 2 9 10
M  V30 10 1 10 11
M  V30 11 1 11 12
M  V30 12 2 12 13
M  V30 13 1 13 14
M  V30 14 2 14 15
M  V30 15 1 15 16
M  V30 16 2 16 17
M  V30 17 1 17 18
M  V30 18 2 18 19
M  V30 19 1 19 20
M  V30 20 1 9 21
M  V30 21 2 21 22
M  V30 22 1 21 23
M  V30 23 1 8 3
M  V30 24 1 18 10
M  V30 25 1 23 6
M  V30 26 1 17 12
M  V30 27 1 1 24
M  V30 28 1 1 25
M  V30 29 1 1 26
M  V30 30 1 4 27
M  V30 31 1 5 28
M  V30 32 1 8 29
M  V30 33 1 11 30
M  V30 34 1 13 31
M  V30 35 1 14 32
M  V30 36 1 15 33
M  V30 37 1 16 34
M  V30 38 1 20 35
M  V30 39 1 23 36
M  V30 END BOND
M  V30 END CTAB
M  END
>  <Dataset>  (572) 
ChEMBL_Kinases

>  <Ligand_Instance>  (572) 
nan

>  <PDB_ID>  (572) 
nan

>  <Standardized_SMILES>  (572) 
COc1ccc2c(c1)/C(=C1/Nc3ccccc3/C1=N\O)C(=O)N2

>  <Name>  (572) 
nan

>  <Pocket>  (572) 
nan

>  <ATP_Site>  (572) 
nan

>  <Peripheral>  (572) 
nan

>  <Num_H_Atoms_ProtBoundConf>  (572) 
nan

>  <Num_Resolved_Atoms>  (572) 
nan

>  <Num_Not_Resolved_Atoms>  (572) 
nan

$$$$
CHEMBL1834116
     RDKit          3D

  0  0  0  0  0  0  0  0  0  0999 V3000
M  V30 BEGIN CTAB
M  V30 COUNTS 45 48 0 0 0
M  V30 BEGIN ATOM
M  V30 1 N -0.689820 -0.004792 4.883086 0
M  V30 2 C -0.348597 -0.174867 3.511202 0
M  V30 3 C 0.837368 0.364769 3.055283 0
M  V30 4 F 1.689390 1.052648 3.872554 0
M  V30 5 C 1.184718 0.209831 1.728163 0
M  V30 6 N 2.396414 0.732938 1.154589 0
M  V30 7 C 2.188130 2.078393 0.644997 0
M  V30 8 C 3.449316 2.646617 0.038152 0
M  V30 9 N 3.855785 1.779530 -1.060689 0
M  V30 10 C 4.673517 0.695628 -1.044175 0
M  V30 11 C 4.782540 0.172217 -2.319587 0
M  V30 12 N 4.021444 0.947380 -3.122866 0
M  V30 13 C 3.466997 1.913676 -2.353879 0
M  V30 14 C 0.364206 -0.479896 0.837051 0
M  V30 15 F 0.715944 -0.629626 -0.479462 0
M  V30 16 C -0.835532 -1.030673 1.279658 0
M  V30 17 C -1.159253 -0.861254 2.611939 0
M  V30 18 C -2.326927 -1.370104 3.146420 0
M  V30 19 O -2.690091 -1.257535 4.345503 0
M  V30 20 C -3.140847 -2.053804 2.264232 0
M  V30 21 C -4.412178 -2.658049 2.654739 0
M  V30 22 O -5.270583 -3.305053 2.006729 0
M  V30 23 O -5.028546 -2.674500 3.898729 0
M  V30 24 C -2.835729 -2.234202 0.929511 0
M  V30 25 N -1.674761 -1.713994 0.452571 0
M  V30 26 C -1.300680 -1.869989 -0.935267 0
M  V30 27 C -0.323765 -3.004188 -1.303611 0
M  V30 28 C -1.759716 -3.160275 -1.610379 0
M  V30 29 H -1.113132 0.905927 5.169670 0
M  V30 30 H -0.555805 -0.717189 5.650166 0
M  V30 31 H 3.146130 0.005724 1.244970 0
M  V30 32 H 1.794546 2.724514 1.446659 0
M  V30 33 H 1.441438 1.992375 -0.179841 0
M  V30 34 H 3.161534 3.624908 -0.402821 0
M  V30 35 H 4.253309 2.797574 0.768800 0
M  V30 36 H 5.158289 0.313576 -0.156022 0
M  V30 37 H 5.348959 -0.683857 -2.663190 0
M  V30 38 H 2.802044 2.699967 -2.687993 0
M  V30 39 H -5.891885 -2.194282 4.125852 0
M  V30 40 H -3.462160 -2.766488 0.227328 0
M  V30 41 H -1.318128 -0.987838 -1.608338 0
M  V30 42 H 0.396507 -2.747152 -2.127784 0
M  V30 43 H 0.168549 -3.437463 -0.419623 0
M  V30 44 H -1.993778 -3.116702 -2.705734 0
M  V30 45 H -2.336324 -3.897425 -1.047144 0
M  V30 END ATOM
M  V30 BEGIN BOND
M  V30 1 1 1 2
M  V30 2 2 2 3
M  V30 3 1 3 4
M  V30 4 1 3 5
M  V30 5 1 5 6
M  V30 6 1 6 7
M  V30 7 1 7 8
M  V30 8 1 8 9
M  V30 9 1 9 10
M  V30 10 2 10 11
M  V30 11 1 11 12
M  V30 12 2 12 13
M  V30 13 2 5 14
M  V30 14 1 14 15
M  V30 15 1 14 16
M  V30 16 2 16 17
M  V30 17 1 17 18
M  V30 18 2 18 19
M  V30 19 1 18 20
M  V30 20 1 20 21
M  V30 21 2 21 22
M  V30 22 1 21 23
M  V30 23 2 20 24
M  V30 24 1 24 25
M  V30 25 1 25 26
M  V30 26 1 26 27
M  V30 27 1 27 28
M  V30 28 1 17 2
M  V30 29 1 28 26
M  V30 30 1 13 9
M  V30 31 1 25 16
M  V30 32 1 1 29
M  V30 33 1 1 30
M  V30 34 1 6 31
M  V30 35 1 7 32
M  V30 36 1 7 33
M  V30 37 1 8 34
M  V30 38 1 8 35
M  V30 39 1 10 36
M  V30 40 1 11 37
M  V30 41 1 13 38
M  V30 42 1 23 39
M  V30 43 1 24 40
M  V30 44 1 26 41
M  V30 45 1 27 42
M  V30 46 1 27 43
M  V30 47 1 28 44
M  V30 48 1 28 45
M  V30 END BOND
M  V30 END CTAB
M  END
>  <Dataset>  (573) 
ChEMBL_Kinases

>  <Ligand_Instance>  (573) 
nan

>  <PDB_ID>  (573) 
nan

>  <Standardized_SMILES>  (573) 
Nc1c(F)c(NCCn2ccnc2)c(F)c2c1c(=O)c(C(=O)O)cn2C1CC1

>  <Name>  (573) 
nan

>  <Pocket>  (573) 
nan

>  <ATP_Site>  (573) 
nan

>  <Peripheral>  (573) 
nan

>  <Num_H_Atoms_ProtBoundConf>  (573) 
nan

>  <Num_Resolved_Atoms>  (573) 
nan

>  <Num_Not_Resolved_Atoms>  (573) 
nan

$$$$
CHEMBL1825153
     RDKit          3D

  0  0  0  0  0  0  0  0  0  0999 V3000
M  V30 BEGIN CTAB
M  V30 COUNTS 54 58 0 0 0
M  V30 BEGIN ATOM
M  V30 1 C 0.253596 3.395369 -0.265705 0
M  V30 2 C 1.125929 2.740139 0.732204 0
M  V30 3 C 2.067164 3.525931 1.369694 0
M  V30 4 C 2.881135 2.882495 2.309587 0
M  V30 5 C 2.756437 1.517037 2.595624 0
M  V30 6 C 3.663099 0.963712 3.594964 0
M  V30 7 O 4.482591 1.738538 4.126090 0
M  V30 8 N 3.623903 -0.401450 3.956920 0
M  V30 9 C 4.530641 -0.921079 4.945886 0
M  V30 10 C 3.845402 -1.856521 5.955423 0
M  V30 11 C 4.895519 -2.353194 4.988871 0
M  V30 12 C 1.794124 0.796362 1.919670 0
M  V30 13 C 0.961263 1.391701 0.976510 0
M  V30 14 C -0.025336 0.550319 0.313345 0
M  V30 15 C -1.357178 0.855352 0.086505 0
M  V30 16 C -2.171506 -0.068520 -0.567211 0
M  V30 17 C -1.650313 -1.265797 -0.978353 0
M  V30 18 C -0.323131 -1.604418 -0.768153 0
M  V30 19 C 0.459602 -0.668748 -0.117764 0
M  V30 20 N -0.183717 -2.905335 -1.330128 0
M  V30 21 C -1.443328 -3.343998 -1.880178 0
M  V30 22 O -1.418493 -4.510099 -2.406043 0
M  V30 23 C -2.472863 -2.277966 -1.678810 0
M  V30 24 C -2.919807 -1.692721 -2.994403 0
M  V30 25 C -4.301365 -2.066641 -3.411375 0
M  V30 26 C -4.652477 -3.466347 -3.033164 0
M  V30 27 F -6.022386 -3.618546 -3.294100 0
M  V30 28 F -4.035790 -4.308005 -3.951519 0
M  V30 29 C -4.359484 -3.830483 -1.616123 0
M  V30 30 C -3.638178 -2.751503 -0.856778 0
M  V30 31 H -0.077178 2.730018 -1.089190 0
M  V30 32 H 0.801561 4.223850 -0.805695 0
M  V30 33 H -0.600884 3.946615 0.216198 0
M  V30 34 H 2.174583 4.573460 1.160822 0
M  V30 35 H 3.604727 3.510266 2.792316 0
M  V30 36 H 2.948607 -1.072621 3.528836 0
M  V30 37 H 5.234370 -0.188346 5.372680 0
M  V30 38 H 4.113109 -1.743845 7.026105 0
M  V30 39 H 2.840340 -2.216049 5.746651 0
M  V30 40 H 5.852795 -2.610852 5.471159 0
M  V30 41 H 4.624564 -3.047547 4.168564 0
M  V30 42 H 1.700035 -0.253091 2.141427 0
M  V30 43 H -1.682978 1.819957 0.444298 0
M  V30 44 H -3.172448 0.303232 -0.671301 0
M  V30 45 H 1.487419 -0.976303 0.024135 0
M  V30 46 H 0.763695 -3.356972 -1.277194 0
M  V30 47 H -2.915463 -0.578536 -2.874850 0
M  V30 48 H -2.158722 -1.881459 -3.786126 0
M  V30 49 H -4.302016 -2.041273 -4.541037 0
M  V30 50 H -5.058203 -1.318763 -3.059559 0
M  V30 51 H -3.755840 -4.759218 -1.564375 0
M  V30 52 H -5.295607 -4.039411 -1.089571 0
M  V30 53 H -3.284323 -3.112280 0.107017 0
M  V30 54 H -4.316239 -1.879866 -0.754099 0
M  V30 END ATOM
M  V30 BEGIN BOND
M  V30 1 1 1 2
M  V30 2 2 2 3
M  V30 3 1 3 4
M  V30 4 2 4 5
M  V30 5 1 5 6
M  V30 6 2 6 7
M  V30 7 1 6 8
M  V30 8 1 8 9
M  V30 9 1 9 10
M  V30 10 1 10 11
M  V30 11 1 5 12
M  V30 12 2 12 13
M  V30 13 1 13 14
M  V30 14 2 14 15
M  V30 15 1 15 16
M  V30 16 2 16 17
M  V30 17 1 17 18
M  V30 18 2 18 19
M  V30 19 1 18 20
M  V30 20 1 20 21
M  V30 21 2 21 22
M  V30 22 1 21 23
M  V30 23 1 23 24
M  V30 24 1 24 25
M  V30 25 1 25 26
M  V30 26 1 26 27
M  V30 27 1 26 28
M  V30 28 1 26 29
M  V30 29 1 29 30
M  V30 30 1 13 2
M  V30 31 1 19 14
M  V30 32 1 30 23
M  V30 33 1 11 9
M  V30 34 1 23 17
M  V30 35 1 1 31
M  V30 36 1 1 32
M  V30 37 1 1 33
M  V30 38 1 3 34
M  V30 39 1 4 35
M  V30 40 1 8 36
M  V30 41 1 9 37
M  V30 42 1 10 38
M  V30 43 1 10 39
M  V30 44 1 11 40
M  V30 45 1 11 41
M  V30 46 1 12 42
M  V30 47 1 15 43
M  V30 48 1 16 44
M  V30 49 1 19 45
M  V30 50 1 20 46
M  V30 51 1 24 47
M  V30 52 1 24 48
M  V30 53 1 25 49
M  V30 54 1 25 50
M  V30 55 1 29 51
M  V30 56 1 29 52
M  V30 57 1 30 53
M  V30 58 1 30 54
M  V30 END BOND
M  V30 END CTAB
M  END
>  <Dataset>  (574) 
ChEMBL_Kinases

>  <Ligand_Instance>  (574) 
nan

>  <PDB_ID>  (574) 
nan

>  <Standardized_SMILES>  (574) 
Cc1ccc(C(=O)NC2CC2)cc1-c1ccc2c(c1)NC(=O)C21CCC(F)(F)CC1

>  <Name>  (574) 
nan

>  <Pocket>  (574) 
nan

>  <ATP_Site>  (574) 
nan

>  <Peripheral>  (574) 
nan

>  <Num_H_Atoms_ProtBoundConf>  (574) 
nan

>  <Num_Resolved_Atoms>  (574) 
nan

>  <Num_Not_Resolved_Atoms>  (574) 
nan

$$$$
CHEMBL1825154
     RDKit          3D

  0  0  0  0  0  0  0  0  0  0999 V3000
M  V30 BEGIN CTAB
M  V30 COUNTS 53 57 0 0 0
M  V30 BEGIN ATOM
M  V30 1 C 0.768525 -1.265375 4.684812 0
M  V30 2 C 1.521430 -0.336681 3.803794 0
M  V30 3 C 2.619141 0.284145 4.362046 0
M  V30 4 C 3.367255 1.166591 3.574913 0
M  V30 5 C 2.985643 1.385975 2.274574 0
M  V30 6 C 3.791396 2.313682 1.484971 0
M  V30 7 O 4.780461 2.849387 2.047009 0
M  V30 8 N 3.522455 2.641825 0.129100 0
M  V30 9 C 4.344873 3.555268 -0.591386 0
M  V30 10 C 4.047150 4.904151 -0.582056 0
M  V30 11 C 5.017066 5.538904 -1.365408 0
M  V30 12 O 5.816272 4.607175 -1.793072 0
M  V30 13 N 5.462502 3.434363 -1.366422 0
M  V30 14 C 1.878978 0.739646 1.763935 0
M  V30 15 C 1.102653 -0.145850 2.504176 0
M  V30 16 C -0.058873 -0.796765 1.911330 0
M  V30 17 C 0.264130 -1.308912 0.648843 0
M  V30 18 C -0.667034 -1.973484 -0.125812 0
M  V30 19 C -1.961792 -2.134214 0.370843 0
M  V30 20 C -2.265671 -1.624563 1.615770 0
M  V30 21 C -1.321751 -0.963816 2.374250 0
M  V30 22 N -3.625402 -1.878374 1.961607 0
M  V30 23 C -4.172558 -2.582656 0.859345 0
M  V30 24 O -5.339297 -3.049169 0.642628 0
M  V30 25 C -3.162849 -2.790245 -0.213035 0
M  V30 26 C -2.982835 -4.263496 -0.420791 0
M  V30 27 C -3.706501 -4.777195 -1.641948 0
M  V30 28 C -3.178599 -4.079659 -2.873071 0
M  V30 29 F -1.913551 -4.615039 -3.146064 0
M  V30 30 F -3.977484 -4.464162 -3.936407 0
M  V30 31 C -3.086163 -2.600265 -2.730350 0
M  V30 32 C -3.654948 -2.071316 -1.440955 0
M  V30 33 H 1.465292 -1.781471 5.382939 0
M  V30 34 H -0.027526 -0.733277 5.234014 0
M  V30 35 H 0.276286 -2.013041 4.030019 0
M  V30 36 H 2.921683 0.111556 5.389468 0
M  V30 37 H 4.218599 1.632248 4.048011 0
M  V30 38 H 2.713034 2.208260 -0.343392 0
M  V30 39 H 3.254864 5.481667 -0.106288 0
M  V30 40 H 5.154888 6.593378 -1.621077 0
M  V30 41 H 1.573299 0.908843 0.738932 0
M  V30 42 H 1.241716 -1.250139 0.144869 0
M  V30 43 H -0.466740 -2.384896 -1.102048 0
M  V30 44 H -1.478669 -0.539916 3.342949 0
M  V30 45 H -4.173819 -1.635704 2.812410 0
M  V30 46 H -1.913125 -4.487594 -0.538314 0
M  V30 47 H -3.372840 -4.867356 0.439979 0
M  V30 48 H -3.436657 -5.851088 -1.737109 0
M  V30 49 H -4.797068 -4.741842 -1.552486 0
M  V30 50 H -2.050960 -2.228594 -2.908780 0
M  V30 51 H -3.690077 -2.154226 -3.549068 0
M  V30 52 H -4.759207 -1.966578 -1.473163 0
M  V30 53 H -3.281531 -1.014089 -1.351428 0
M  V30 END ATOM
M  V30 BEGIN BOND
M  V30 1 1 1 2
M  V30 2 2 2 3
M  V30 3 1 3 4
M  V30 4 2 4 5
M  V30 5 1 5 6
M  V30 6 2 6 7
M  V30 7 1 6 8
M  V30 8 1 8 9
M  V30 9 1 9 10
M  V30 10 2 10 11
M  V30 11 1 11 12
M  V30 12 1 12 13
M  V30 13 1 5 14
M  V30 14 2 14 15
M  V30 15 1 15 16
M  V30 16 2 16 17
M  V30 17 1 17 18
M  V30 18 2 18 19
M  V30 19 1 19 20
M  V30 20 2 20 21
M  V30 21 1 20 22
M  V30 22 1 22 23
M  V30 23 2 23 24
M  V30 24 1 23 25
M  V30 25 1 25 26
M  V30 26 1 26 27
M  V30 27 1 27 28
M  V30 28 1 28 29
M  V30 29 1 28 30
M  V30 30 1 28 31
M  V30 31 1 31 32
M  V30 32 1 15 2
M  V30 33 1 21 16
M  V30 34 1 32 25
M  V30 35 2 13 9
M  V30 36 1 25 19
M  V30 37 1 1 33
M  V30 38 1 1 34
M  V30 39 1 1 35
M  V30 40 1 3 36
M  V30 41 1 4 37
M  V30 42 1 8 38
M  V30 43 1 10 39
M  V30 44 1 11 40
M  V30 45 1 14 41
M  V30 46 1 17 42
M  V30 47 1 18 43
M  V30 48 1 21 44
M  V30 49 1 22 45
M  V30 50 1 26 46
M  V30 51 1 26 47
M  V30 52 1 27 48
M  V30 53 1 27 49
M  V30 54 1 31 50
M  V30 55 1 31 51
M  V30 56 1 32 52
M  V30 57 1 32 53
M  V30 END BOND
M  V30 END CTAB
M  END
>  <Dataset>  (575) 
ChEMBL_Kinases

>  <Ligand_Instance>  (575) 
nan

>  <PDB_ID>  (575) 
nan

>  <Standardized_SMILES>  (575) 
Cc1ccc(C(=O)Nc2ccon2)cc1-c1ccc2c(c1)NC(=O)C21CCC(F)(F)CC1

>  <Name>  (575) 
nan

>  <Pocket>  (575) 
nan

>  <ATP_Site>  (575) 
nan

>  <Peripheral>  (575) 
nan

>  <Num_H_Atoms_ProtBoundConf>  (575) 
nan

>  <Num_Resolved_Atoms>  (575) 
nan

>  <Num_Not_Resolved_Atoms>  (575) 
nan

$$$$
CHEMBL1825155
     RDKit          3D

  0  0  0  0  0  0  0  0  0  0999 V3000
M  V30 BEGIN CTAB
M  V30 COUNTS 50 54 0 0 0
M  V30 BEGIN ATOM
M  V30 1 C 0.187220 0.734003 4.448001 0
M  V30 2 C 1.271670 0.914903 3.460419 0
M  V30 3 N 2.401668 1.537727 3.854872 0
M  V30 4 C 3.427636 1.724930 2.976574 0
M  V30 5 C 3.301367 1.271909 1.679203 0
M  V30 6 C 4.437782 1.505418 0.791080 0
M  V30 7 O 5.433349 2.084161 1.237087 0
M  V30 8 N 4.489125 1.112965 -0.567498 0
M  V30 9 C 5.613993 1.363412 -1.383561 0
M  V30 10 C 5.965016 0.648655 -2.604900 0
M  V30 11 C 5.266950 1.984655 -2.765113 0
M  V30 12 C 2.141048 0.639730 1.298195 0
M  V30 13 C 1.088947 0.441385 2.177969 0
M  V30 14 C -0.120944 -0.235963 1.715205 0
M  V30 15 C -1.437675 0.118012 1.923657 0
M  V30 16 C -2.446770 -0.662345 1.398427 0
M  V30 17 C -2.188102 -1.796860 0.663745 0
M  V30 18 C -0.878340 -2.170220 0.442549 0
M  V30 19 C 0.120011 -1.393041 0.965539 0
M  V30 20 N -0.951491 -3.361454 -0.333957 0
M  V30 21 C -2.328645 -3.707728 -0.582129 0
M  V30 22 O -2.800469 -4.684971 -1.225048 0
M  V30 23 C -3.209561 -2.704727 0.054762 0
M  V30 24 C -4.088505 -3.334754 1.083634 0
M  V30 25 C -5.483707 -3.250490 0.510423 0
M  V30 26 C -5.470713 -1.936223 -0.228798 0
M  V30 27 C -4.102881 -1.982072 -0.920117 0
M  V30 28 H 0.668414 0.589965 5.444987 0
M  V30 29 H -0.471060 1.605819 4.559469 0
M  V30 30 H -0.412971 -0.188820 4.232848 0
M  V30 31 H 4.327352 2.238278 3.347340 0
M  V30 32 H 3.638783 0.613760 -0.964260 0
M  V30 33 H 6.447455 1.895951 -0.856570 0
M  V30 34 H 7.022555 0.669950 -2.941197 0
M  V30 35 H 5.454019 -0.255627 -2.981257 0
M  V30 36 H 4.213201 2.001825 -3.072882 0
M  V30 37 H 5.842488 2.880929 -3.057939 0
M  V30 38 H 2.059975 0.298028 0.298745 0
M  V30 39 H -1.560693 1.016615 2.506304 0
M  V30 40 H -3.460275 -0.303383 1.615115 0
M  V30 41 H 1.119806 -1.776861 0.732309 0
M  V30 42 H -0.130610 -3.906890 -0.675355 0
M  V30 43 H -3.985249 -2.726544 2.009709 0
M  V30 44 H -3.804331 -4.382811 1.294796 0
M  V30 45 H -6.246222 -3.261719 1.315770 0
M  V30 46 H -5.612122 -4.035033 -0.238798 0
M  V30 47 H -6.262436 -1.974158 -0.996845 0
M  V30 48 H -5.534187 -1.062488 0.440488 0
M  V30 49 H -4.255120 -2.516472 -1.868120 0
M  V30 50 H -3.795227 -0.922772 -1.045611 0
M  V30 END ATOM
M  V30 BEGIN BOND
M  V30 1 1 1 2
M  V30 2 2 2 3
M  V30 3 1 3 4
M  V30 4 2 4 5
M  V30 5 1 5 6
M  V30 6 2 6 7
M  V30 7 1 6 8
M  V30 8 1 8 9
M  V30 9 1 9 10
M  V30 10 1 10 11
M  V30 11 1 5 12
M  V30 12 2 12 13
M  V30 13 1 13 14
M  V30 14 2 14 15
M  V30 15 1 15 16
M  V30 16 2 16 17
M  V30 17 1 17 18
M  V30 18 2 18 19
M  V30 19 1 18 20
M  V30 20 1 20 21
M  V30 21 2 21 22
M  V30 22 1 21 23
M  V30 23 1 23 24
M  V30 24 1 24 25
M  V30 25 1 25 26
M  V30 26 1 26 27
M  V30 27 1 13 2
M  V30 28 1 19 14
M  V30 29 1 27 23
M  V30 30 1 11 9
M  V30 31 1 23 17
M  V30 32 1 1 28
M  V30 33 1 1 29
M  V30 34 1 1 30
M  V30 35 1 4 31
M  V30 36 1 8 32
M  V30 37 1 9 33
M  V30 38 1 10 34
M  V30 39 1 10 35
M  V30 40 1 11 36
M  V30 41 1 11 37
M  V30 42 1 12 38
M  V30 43 1 15 39
M  V30 44 1 16 40
M  V30 45 1 19 41
M  V30 46 1 20 42
M  V30 47 1 24 43
M  V30 48 1 24 44
M  V30 49 1 25 45
M  V30 50 1 25 46
M  V30 51 1 26 47
M  V30 52 1 26 48
M  V30 53 1 27 49
M  V30 54 1 27 50
M  V30 END BOND
M  V30 END CTAB
M  END
>  <Dataset>  (576) 
ChEMBL_Kinases

>  <Ligand_Instance>  (576) 
nan

>  <PDB_ID>  (576) 
nan

>  <Standardized_SMILES>  (576) 
Cc1ncc(C(=O)NC2CC2)cc1-c1ccc2c(c1)NC(=O)C21CCCC1

>  <Name>  (576) 
nan

>  <Pocket>  (576) 
nan

>  <ATP_Site>  (576) 
nan

>  <Peripheral>  (576) 
nan

>  <Num_H_Atoms_ProtBoundConf>  (576) 
nan

>  <Num_Resolved_Atoms>  (576) 
nan

>  <Num_Not_Resolved_Atoms>  (576) 
nan

$$$$
CHEMBL1825156
     RDKit          3D

  0  0  0  0  0  0  0  0  0  0999 V3000
M  V30 BEGIN CTAB
M  V30 COUNTS 50 54 0 0 0
M  V30 BEGIN ATOM
M  V30 1 C 0.924201 -2.442800 3.762381 0
M  V30 2 C 1.695146 -1.707954 2.765925 0
M  V30 3 C 3.052552 -1.581272 2.968868 0
M  V30 4 C 3.871883 -0.881579 2.118521 0
M  V30 5 C 3.274967 -0.298343 1.032185 0
M  V30 6 C 4.081450 0.458633 0.085233 0
M  V30 7 O 3.562207 1.011747 -0.919278 0
M  V30 8 N 5.482210 0.624121 0.223262 0
M  V30 9 C 6.293785 1.376222 -0.714824 0
M  V30 10 C 7.710083 1.054637 -0.964679 0
M  V30 11 C 7.314021 2.332919 -0.222388 0
M  V30 12 C 1.936492 -0.433738 0.847265 0
M  V30 13 C 1.075729 -1.135388 1.686472 0
M  V30 14 C -0.322731 -1.149691 1.327885 0
M  V30 15 C -1.335066 -1.944587 1.740311 0
M  V30 16 C -2.638173 -1.908238 1.320601 0
M  V30 17 C -3.011538 -0.979850 0.375246 0
M  V30 18 C -1.988147 -0.164426 -0.053912 0
M  V30 19 N -0.735066 -0.261907 0.406420 0
M  V30 20 N -2.466692 0.768438 -1.034319 0
M  V30 21 C -3.848473 0.493338 -1.197098 0
M  V30 22 O -4.617297 1.121212 -1.989337 0
M  V30 23 C -4.270310 -0.637180 -0.306491 0
M  V30 24 C -5.373777 -0.259911 0.625378 0
M  V30 25 C -6.268436 -1.481891 0.593642 0
M  V30 26 C -6.233361 -1.951786 -0.838130 0
M  V30 27 C -4.763151 -1.772884 -1.168586 0
M  V30 28 H 0.693343 -3.482185 3.554016 0
M  V30 29 H 1.558795 -2.508511 4.717615 0
M  V30 30 H 0.072462 -1.805737 4.125519 0
M  V30 31 H 3.515784 -2.057098 3.847508 0
M  V30 32 H 4.923185 -0.834339 2.354805 0
M  V30 33 H 6.008345 0.207884 1.017182 0
M  V30 34 H 5.665408 1.801587 -1.551794 0
M  V30 35 H 8.048386 1.133791 -2.016900 0
M  V30 36 H 8.147045 0.229408 -0.348405 0
M  V30 37 H 7.505022 2.384654 0.863703 0
M  V30 38 H 7.474429 3.310900 -0.755752 0
M  V30 39 H 1.549787 0.067437 -0.050952 0
M  V30 40 H -1.128853 -2.702191 2.446705 0
M  V30 41 H -3.389759 -2.580412 1.701550 0
M  V30 42 H -1.940636 1.513882 -1.548181 0
M  V30 43 H -5.040415 -0.014478 1.647332 0
M  V30 44 H -5.934095 0.595722 0.191048 0
M  V30 45 H -7.291926 -1.265076 0.926152 0
M  V30 46 H -5.761973 -2.281268 1.188227 0
M  V30 47 H -6.530218 -3.012703 -0.907224 0
M  V30 48 H -6.807621 -1.285095 -1.516400 0
M  V30 49 H -4.592303 -1.579706 -2.252586 0
M  V30 50 H -4.245179 -2.725749 -0.934457 0
M  V30 END ATOM
M  V30 BEGIN BOND
M  V30 1 1 1 2
M  V30 2 2 2 3
M  V30 3 1 3 4
M  V30 4 2 4 5
M  V30 5 1 5 6
M  V30 6 2 6 7
M  V30 7 1 6 8
M  V30 8 1 8 9
M  V30 9 1 9 10
M  V30 10 1 10 11
M  V30 11 1 5 12
M  V30 12 2 12 13
M  V30 13 1 13 14
M  V30 14 2 14 15
M  V30 15 1 15 16
M  V30 16 2 16 17
M  V30 17 1 17 18
M  V30 18 2 18 19
M  V30 19 1 18 20
M  V30 20 1 20 21
M  V30 21 2 21 22
M  V30 22 1 21 23
M  V30 23 1 23 24
M  V30 24 1 24 25
M  V30 25 1 25 26
M  V30 26 1 26 27
M  V30 27 1 13 2
M  V30 28 1 19 14
M  V30 29 1 27 23
M  V30 30 1 11 9
M  V30 31 1 23 17
M  V30 32 1 1 28
M  V30 33 1 1 29
M  V30 34 1 1 30
M  V30 35 1 3 31
M  V30 36 1 4 32
M  V30 37 1 8 33
M  V30 38 1 9 34
M  V30 39 1 10 35
M  V30 40 1 10 36
M  V30 41 1 11 37
M  V30 42 1 11 38
M  V30 43 1 12 39
M  V30 44 1 15 40
M  V30 45 1 16 41
M  V30 46 1 20 42
M  V30 47 1 24 43
M  V30 48 1 24 44
M  V30 49 1 25 45
M  V30 50 1 25 46
M  V30 51 1 26 47
M  V30 52 1 26 48
M  V30 53 1 27 49
M  V30 54 1 27 50
M  V30 END BOND
M  V30 END CTAB
M  END
>  <Dataset>  (577) 
ChEMBL_Kinases

>  <Ligand_Instance>  (577) 
nan

>  <PDB_ID>  (577) 
nan

>  <Standardized_SMILES>  (577) 
Cc1ccc(C(=O)NC2CC2)cc1-c1ccc2c(n1)NC(=O)C21CCCC1

>  <Name>  (577) 
nan

>  <Pocket>  (577) 
nan

>  <ATP_Site>  (577) 
nan

>  <Peripheral>  (577) 
nan

>  <Num_H_Atoms_ProtBoundConf>  (577) 
nan

>  <Num_Resolved_Atoms>  (577) 
nan

>  <Num_Not_Resolved_Atoms>  (577) 
nan

$$$$
CHEMBL1825157
     RDKit          3D

  0  0  0  0  0  0  0  0  0  0999 V3000
M  V30 BEGIN CTAB
M  V30 COUNTS 50 54 0 0 0
M  V30 BEGIN ATOM
M  V30 1 C 0.800663 -3.301090 2.502266 0
M  V30 2 C 1.680464 -2.252553 1.900179 0
M  V30 3 C 3.064234 -2.309093 2.108990 0
M  V30 4 C 3.974263 -1.402915 1.606997 0
M  V30 5 C 3.479085 -0.368256 0.844792 0
M  V30 6 C 4.339978 0.651621 0.259677 0
M  V30 7 O 3.914876 1.600111 -0.435451 0
M  V30 8 N 5.750055 0.656257 0.430204 0
M  V30 9 C 6.596728 1.670828 -0.153074 0
M  V30 10 C 7.955532 1.319546 -0.645320 0
M  V30 11 C 7.814122 2.152700 0.582101 0
M  V30 12 C 2.119367 -0.296148 0.628396 0
M  V30 13 C 1.210216 -1.210284 1.135896 0
M  V30 14 C -0.227199 -1.127699 0.902911 0
M  V30 15 C -0.825082 -0.136931 0.157423 0
M  V30 16 C -2.178496 -0.022068 -0.087121 0
M  V30 17 C -3.021225 -0.972238 0.453447 0
M  V30 18 C -2.424813 -1.965712 1.200588 0
M  V30 19 N -1.097549 -2.023072 1.402918 0
M  V30 20 C -4.435903 -0.742512 0.123478 0
M  V30 21 C -5.297425 -0.434704 1.318301 0
M  V30 22 C -6.684893 -0.645361 0.741902 0
M  V30 23 C -6.528486 -1.866644 -0.135977 0
M  V30 24 C -5.094465 -1.877523 -0.611902 0
M  V30 25 C -4.347705 0.491186 -0.702276 0
M  V30 26 O -5.351180 1.083121 -1.227253 0
M  V30 27 N -2.983900 0.903407 -0.813882 0
M  V30 28 H 1.451084 -4.034455 3.030923 0
M  V30 29 H 0.098910 -2.923939 3.243956 0
M  V30 30 H 0.333965 -3.896209 1.674997 0
M  V30 31 H 3.464376 -3.123199 2.710017 0
M  V30 32 H 5.026451 -1.503276 1.804654 0
M  V30 33 H 6.226890 -0.082913 0.989845 0
M  V30 34 H 6.085058 2.455946 -0.748135 0
M  V30 35 H 8.349773 1.809847 -1.559382 0
M  V30 36 H 8.181111 0.237987 -0.600975 0
M  V30 37 H 7.933859 1.750991 1.597204 0
M  V30 38 H 8.120993 3.224717 0.505018 0
M  V30 39 H 1.760160 0.529050 0.024899 0
M  V30 40 H -0.231065 0.640130 -0.296379 0
M  V30 41 H -3.032520 -2.758189 1.663166 0
M  V30 42 H -5.084376 -1.100797 2.167547 0
M  V30 43 H -5.182117 0.612667 1.662900 0
M  V30 44 H -7.409357 -0.852875 1.563844 0
M  V30 45 H -7.025615 0.245036 0.199731 0
M  V30 46 H -6.765497 -2.766955 0.478458 0
M  V30 47 H -7.258314 -1.853136 -0.963896 0
M  V30 48 H -5.108218 -1.709882 -1.713397 0
M  V30 49 H -4.621690 -2.855659 -0.418532 0
M  V30 50 H -2.613600 1.739701 -1.335403 0
M  V30 END ATOM
M  V30 BEGIN BOND
M  V30 1 1 1 2
M  V30 2 2 2 3
M  V30 3 1 3 4
M  V30 4 2 4 5
M  V30 5 1 5 6
M  V30 6 2 6 7
M  V30 7 1 6 8
M  V30 8 1 8 9
M  V30 9 1 9 10
M  V30 10 1 10 11
M  V30 11 1 5 12
M  V30 12 2 12 13
M  V30 13 1 13 14
M  V30 14 2 14 15
M  V30 15 1 15 16
M  V30 16 2 16 17
M  V30 17 1 17 18
M  V30 18 2 18 19
M  V30 19 1 17 20
M  V30 20 1 20 21
M  V30 21 1 21 22
M  V30 22 1 22 23
M  V30 23 1 23 24
M  V30 24 1 20 25
M  V30 25 2 25 26
M  V30 26 1 25 27
M  V30 27 1 13 2
M  V30 28 1 19 14
M  V30 29 1 24 20
M  V30 30 1 11 9
M  V30 31 1 27 16
M  V30 32 1 1 28
M  V30 33 1 1 29
M  V30 34 1 1 30
M  V30 35 1 3 31
M  V30 36 1 4 32
M  V30 37 1 8 33
M  V30 38 1 9 34
M  V30 39 1 10 35
M  V30 40 1 10 36
M  V30 41 1 11 37
M  V30 42 1 11 38
M  V30 43 1 12 39
M  V30 44 1 15 40
M  V30 45 1 18 41
M  V30 46 1 21 42
M  V30 47 1 21 43
M  V30 48 1 22 44
M  V30 49 1 22 45
M  V30 50 1 23 46
M  V30 51 1 23 47
M  V30 52 1 24 48
M  V30 53 1 24 49
M  V30 54 1 27 50
M  V30 END BOND
M  V30 END CTAB
M  END
>  <Dataset>  (578) 
ChEMBL_Kinases

>  <Ligand_Instance>  (578) 
nan

>  <PDB_ID>  (578) 
nan

>  <Standardized_SMILES>  (578) 
Cc1ccc(C(=O)NC2CC2)cc1-c1cc2c(cn1)C1(CCCC1)C(=O)N2

>  <Name>  (578) 
nan

>  <Pocket>  (578) 
nan

>  <ATP_Site>  (578) 
nan

>  <Peripheral>  (578) 
nan

>  <Num_H_Atoms_ProtBoundConf>  (578) 
nan

>  <Num_Resolved_Atoms>  (578) 
nan

>  <Num_Not_Resolved_Atoms>  (578) 
nan

$$$$
CHEMBL1825159
     RDKit          3D

  0  0  0  0  0  0  0  0  0  0999 V3000
M  V30 BEGIN CTAB
M  V30 COUNTS 51 55 0 0 0
M  V30 BEGIN ATOM
M  V30 1 C 1.000148 -2.538962 -2.133317 0
M  V30 2 C 1.720702 -1.515366 -1.348646 0
M  V30 3 C 2.999592 -1.164440 -1.728713 0
M  V30 4 C 3.687741 -0.210115 -1.007537 0
M  V30 5 C 3.115780 0.399843 0.089822 0
M  V30 6 C 3.770415 1.415759 0.906509 0
M  V30 7 O 3.246460 1.969526 1.905510 0
M  V30 8 N 5.078928 1.873195 0.636787 0
M  V30 9 C 5.811892 2.860463 1.369535 0
M  V30 10 C 7.250255 2.588119 1.764508 0
M  V30 11 C 6.825182 3.726526 0.797016 0
M  V30 12 C 1.839157 0.006167 0.416765 0
M  V30 13 C 1.093054 -0.944456 -0.263471 0
M  V30 14 C -0.242862 -1.275459 0.176690 0
M  V30 15 C -0.803083 -2.540595 0.315270 0
M  V30 16 N -2.076075 -2.621994 0.744256 0
M  V30 17 C -2.819004 -1.542561 1.040643 0
M  V30 18 C -2.317298 -0.245524 0.923238 0
M  V30 19 C -0.993863 -0.146624 0.477835 0
M  V30 20 N -3.349275 0.649476 1.310311 0
M  V30 21 C -4.502055 -0.117268 1.670528 0
M  V30 22 O -5.610229 0.316025 2.064671 0
M  V30 23 C -4.241852 -1.556918 1.523268 0
M  V30 24 C -5.139354 -2.134078 0.457091 0
M  V30 25 C -6.228058 -2.968916 1.044860 0
M  V30 26 O -5.741765 -4.035429 1.761239 0
M  V30 27 C -4.551906 -3.799070 2.405209 0
M  V30 28 C -4.375521 -2.346297 2.795652 0
M  V30 29 H -0.098586 -2.415609 -2.148277 0
M  V30 30 H 1.313430 -2.416236 -3.200596 0
M  V30 31 H 1.317179 -3.561793 -1.825243 0
M  V30 32 H 3.467098 -1.628310 -2.583694 0
M  V30 33 H 4.688960 0.078638 -1.288142 0
M  V30 34 H 5.632128 1.497046 -0.165808 0
M  V30 35 H 5.234523 3.274490 2.233045 0
M  V30 36 H 7.646139 1.649229 1.282199 0
M  V30 37 H 7.633717 2.868421 2.749102 0
M  V30 38 H 7.271785 3.638338 -0.190445 0
M  V30 39 H 6.980611 4.746218 1.228615 0
M  V30 40 H 1.367035 0.470127 1.274787 0
M  V30 41 H -0.151609 -3.351477 0.060966 0
M  V30 42 H -0.652564 0.876335 0.403702 0
M  V30 43 H -3.241631 1.692658 1.316362 0
M  V30 44 H -5.544216 -1.322066 -0.159112 0
M  V30 45 H -4.505540 -2.824115 -0.164345 0
M  V30 46 H -6.806037 -3.401859 0.176364 0
M  V30 47 H -6.898620 -2.314099 1.634776 0
M  V30 48 H -3.655639 -4.058382 1.801310 0
M  V30 49 H -4.518247 -4.391420 3.341329 0
M  V30 50 H -5.222057 -2.040817 3.412121 0
M  V30 51 H -3.457264 -2.293052 3.420117 0
M  V30 END ATOM
M  V30 BEGIN BOND
M  V30 1 1 1 2
M  V30 2 2 2 3
M  V30 3 1 3 4
M  V30 4 2 4 5
M  V30 5 1 5 6
M  V30 6 2 6 7
M  V30 7 1 6 8
M  V30 8 1 8 9
M  V30 9 1 9 10
M  V30 10 1 10 11
M  V30 11 1 5 12
M  V30 12 2 12 13
M  V30 13 1 13 14
M  V30 14 2 14 15
M  V30 15 1 15 16
M  V30 16 2 16 17
M  V30 17 1 17 18
M  V30 18 2 18 19
M  V30 19 1 18 20
M  V30 20 1 20 21
M  V30 21 2 21 22
M  V30 22 1 21 23
M  V30 23 1 23 24
M  V30 24 1 24 25
M  V30 25 1 25 26
M  V30 26 1 26 27
M  V30 27 1 27 28
M  V30 28 1 13 2
M  V30 29 1 19 14
M  V30 30 1 28 23
M  V30 31 1 11 9
M  V30 32 1 23 17
M  V30 33 1 1 29
M  V30 34 1 1 30
M  V30 35 1 1 31
M  V30 36 1 3 32
M  V30 37 1 4 33
M  V30 38 1 8 34
M  V30 39 1 9 35
M  V30 40 1 10 36
M  V30 41 1 10 37
M  V30 42 1 11 38
M  V30 43 1 11 39
M  V30 44 1 12 40
M  V30 45 1 15 41
M  V30 46 1 19 42
M  V30 47 1 20 43
M  V30 48 1 24 44
M  V30 49 1 24 45
M  V30 50 1 25 46
M  V30 51 1 25 47
M  V30 52 1 27 48
M  V30 53 1 27 49
M  V30 54 1 28 50
M  V30 55 1 28 51
M  V30 END BOND
M  V30 END CTAB
M  END
>  <Dataset>  (579) 
ChEMBL_Kinases

>  <Ligand_Instance>  (579) 
nan

>  <PDB_ID>  (579) 
nan

>  <Standardized_SMILES>  (579) 
Cc1ccc(C(=O)NC2CC2)cc1-c1cnc2c(c1)NC(=O)C21CCOCC1

>  <Name>  (579) 
nan

>  <Pocket>  (579) 
nan

>  <ATP_Site>  (579) 
nan

>  <Peripheral>  (579) 
nan

>  <Num_H_Atoms_ProtBoundConf>  (579) 
nan

>  <Num_Resolved_Atoms>  (579) 
nan

>  <Num_Not_Resolved_Atoms>  (579) 
nan

$$$$
CHEMBL1825160
     RDKit          3D

  0  0  0  0  0  0  0  0  0  0999 V3000
M  V30 BEGIN CTAB
M  V30 COUNTS 53 57 0 0 0
M  V30 BEGIN ATOM
M  V30 1 C -0.116433 3.034427 -1.460663 0
M  V30 2 C 1.082020 2.464666 -0.837380 0
M  V30 3 C 2.301655 3.096960 -0.971459 0
M  V30 4 C 3.440097 2.556769 -0.380183 0
M  V30 5 C 3.394205 1.390473 0.348973 0
M  V30 6 C 4.634898 0.890798 0.936908 0
M  V30 7 O 5.674737 1.569432 0.733839 0
M  V30 8 N 4.669926 -0.304985 1.702783 0
M  V30 9 C 5.858703 -0.872217 2.322305 0
M  V30 10 C 5.729713 -1.524490 3.660211 0
M  V30 11 C 5.984682 -2.347639 2.464234 0
M  V30 12 C 2.175182 0.787139 0.464842 0
M  V30 13 C 1.019145 1.286852 -0.104624 0
M  V30 14 C -0.222002 0.565994 0.081471 0
M  V30 15 C -0.224972 -0.813647 -0.083883 0
M  V30 16 N -1.320738 -1.580315 0.065289 0
M  V30 17 C -2.506540 -1.085168 0.386147 0
M  V30 18 C -2.538677 0.285253 0.558120 0
M  V30 19 C -1.443993 1.115900 0.416874 0
M  V30 20 N -3.858466 0.727871 0.902542 0
M  V30 21 C -4.638570 -0.463241 0.931459 0
M  V30 22 O -5.858373 -0.625002 1.181605 0
M  V30 23 C -3.846512 -1.682080 0.609489 0
M  V30 24 C -3.872074 -2.695235 1.713366 0
M  V30 25 C -4.416594 -4.029286 1.320595 0
M  V30 26 C -3.873861 -4.555724 0.025473 0
M  V30 27 F -4.828970 -5.388520 -0.527821 0
M  V30 28 F -2.742499 -5.355805 0.236249 0
M  V30 29 C -3.556241 -3.491961 -0.982872 0
M  V30 30 C -4.328669 -2.228489 -0.717406 0
M  V30 31 H 0.167090 3.533743 -2.434954 0
M  V30 32 H -0.513266 3.872929 -0.850621 0
M  V30 33 H -0.878701 2.293643 -1.768886 0
M  V30 34 H 2.335325 4.029803 -1.555323 0
M  V30 35 H 4.362683 3.125239 -0.538704 0
M  V30 36 H 3.808241 -0.870319 1.873004 0
M  V30 37 H 6.772279 -0.283665 2.148983 0
M  V30 38 H 6.568070 -1.418970 4.396532 0
M  V30 39 H 4.736928 -1.579750 4.138838 0
M  V30 40 H 6.992836 -2.817243 2.305523 0
M  V30 41 H 5.181518 -3.033993 2.138890 0
M  V30 42 H 2.107892 -0.125607 1.028592 0
M  V30 43 H 0.689934 -1.349642 -0.349932 0
M  V30 44 H -1.475453 2.181452 0.552195 0
M  V30 45 H -4.210214 1.688052 1.095516 0
M  V30 46 H -2.863438 -2.789926 2.140335 0
M  V30 47 H -4.534257 -2.326586 2.551322 0
M  V30 48 H -4.115879 -4.751889 2.116490 0
M  V30 49 H -5.532474 -4.023991 1.325565 0
M  V30 50 H -2.476009 -3.358590 -1.012490 0
M  V30 51 H -3.839542 -3.810769 -2.028758 0
M  V30 52 H -5.403091 -2.456149 -0.718353 0
M  V30 53 H -4.065182 -1.470486 -1.482642 0
M  V30 END ATOM
M  V30 BEGIN BOND
M  V30 1 1 1 2
M  V30 2 2 2 3
M  V30 3 1 3 4
M  V30 4 2 4 5
M  V30 5 1 5 6
M  V30 6 2 6 7
M  V30 7 1 6 8
M  V30 8 1 8 9
M  V30 9 1 9 10
M  V30 10 1 10 11
M  V30 11 1 5 12
M  V30 12 2 12 13
M  V30 13 1 13 14
M  V30 14 2 14 15
M  V30 15 1 15 16
M  V30 16 2 16 17
M  V30 17 1 17 18
M  V30 18 2 18 19
M  V30 19 1 18 20
M  V30 20 1 20 21
M  V30 21 2 21 22
M  V30 22 1 21 23
M  V30 23 1 23 24
M  V30 24 1 24 25
M  V30 25 1 25 26
M  V30 26 1 26 27
M  V30 27 1 26 28
M  V30 28 1 26 29
M  V30 29 1 29 30
M  V30 30 1 13 2
M  V30 31 1 19 14
M  V30 32 1 30 23
M  V30 33 1 11 9
M  V30 34 1 23 17
M  V30 35 1 1 31
M  V30 36 1 1 32
M  V30 37 1 1 33
M  V30 38 1 3 34
M  V30 39 1 4 35
M  V30 40 1 8 36
M  V30 41 1 9 37
M  V30 42 1 10 38
M  V30 43 1 10 39
M  V30 44 1 11 40
M  V30 45 1 11 41
M  V30 46 1 12 42
M  V30 47 1 15 43
M  V30 48 1 19 44
M  V30 49 1 20 45
M  V30 50 1 24 46
M  V30 51 1 24 47
M  V30 52 1 25 48
M  V30 53 1 25 49
M  V30 54 1 29 50
M  V30 55 1 29 51
M  V30 56 1 30 52
M  V30 57 1 30 53
M  V30 END BOND
M  V30 END CTAB
M  END
>  <Dataset>  (580) 
ChEMBL_Kinases

>  <Ligand_Instance>  (580) 
nan

>  <PDB_ID>  (580) 
nan

>  <Standardized_SMILES>  (580) 
Cc1ccc(C(=O)NC2CC2)cc1-c1cnc2c(c1)NC(=O)C21CCC(F)(F)CC1

>  <Name>  (580) 
nan

>  <Pocket>  (580) 
nan

>  <ATP_Site>  (580) 
nan

>  <Peripheral>  (580) 
nan

>  <Num_H_Atoms_ProtBoundConf>  (580) 
nan

>  <Num_Resolved_Atoms>  (580) 
nan

>  <Num_Not_Resolved_Atoms>  (580) 
nan

$$$$
CHEMBL1830063
     RDKit          3D

  0  0  0  0  0  0  0  0  0  0999 V3000
M  V30 BEGIN CTAB
M  V30 COUNTS 30 33 0 0 0
M  V30 BEGIN ATOM
M  V30 1 O 3.203844 -0.825597 2.258228 0
M  V30 2 C 2.485430 -1.621909 1.638833 0
M  V30 3 N 2.846196 -2.978626 1.414348 0
M  V30 4 C 1.745228 -3.536274 0.667161 0
M  V30 5 C 1.715831 -4.868514 0.245592 0
M  V30 6 C 0.634288 -5.325625 -0.460765 0
M  V30 7 C -0.387706 -4.412760 -0.718239 0
M  V30 8 C -0.274461 -3.121243 -0.265127 0
M  V30 9 C 0.760178 -2.623767 0.428944 0
M  V30 10 C 1.189531 -1.409091 1.024342 0
M  V30 11 C 0.542486 -0.286696 1.027305 0
M  V30 12 N 0.937238 0.932632 1.605978 0
M  V30 13 C -0.006490 1.991376 1.434008 0
M  V30 14 C 0.063911 3.293721 1.867950 0
M  V30 15 C -1.021494 4.071841 1.536150 0
M  V30 16 Br -1.021529 5.892190 2.091071 0
M  V30 17 C -2.101540 3.613297 0.830149 0
M  V30 18 C -2.082074 2.300058 0.440002 0
M  V30 19 C -1.044160 1.398490 0.709270 0
M  V30 20 C -0.731504 0.006115 0.448694 0
M  V30 21 O -1.585555 -0.593685 -0.181891 0
M  V30 22 H 3.730460 -3.427113 1.741195 0
M  V30 23 H 2.498182 -5.579897 0.438859 0
M  V30 24 H 0.592052 -6.347860 -0.794550 0
M  V30 25 H -1.224375 -4.845855 -1.288903 0
M  V30 26 H -1.126227 -2.589650 -0.549597 0
M  V30 27 H 1.846486 1.034737 2.113768 0
M  V30 28 H 0.896963 3.659498 2.416181 0
M  V30 29 H -2.948595 4.242625 0.577948 0
M  V30 30 H -2.929719 1.940437 -0.114001 0
M  V30 END ATOM
M  V30 BEGIN BOND
M  V30 1 2 1 2
M  V30 2 1 2 3
M  V30 3 1 3 4
M  V30 4 2 4 5
M  V30 5 1 5 6
M  V30 6 2 6 7
M  V30 7 1 7 8
M  V30 8 2 8 9
M  V30 9 1 9 10
M  V30 10 2 10 11
M  V30 11 1 11 12
M  V30 12 1 12 13
M  V30 13 2 13 14
M  V30 14 1 14 15
M  V30 15 1 15 16
M  V30 16 2 15 17
M  V30 17 1 17 18
M  V30 18 2 18 19
M  V30 19 1 19 20
M  V30 20 2 20 21
M  V30 21 1 10 2
M  V30 22 1 20 11
M  V30 23 1 9 4
M  V30 24 1 19 13
M  V30 25 1 3 22
M  V30 26 1 5 23
M  V30 27 1 6 24
M  V30 28 1 7 25
M  V30 29 1 8 26
M  V30 30 1 12 27
M  V30 31 1 14 28
M  V30 32 1 17 29
M  V30 33 1 18 30
M  V30 END BOND
M  V30 END CTAB
M  END
>  <Dataset>  (581) 
ChEMBL_Kinases

>  <Ligand_Instance>  (581) 
nan

>  <PDB_ID>  (581) 
nan

>  <Standardized_SMILES>  (581) 
O=C1Nc2ccccc2/C1=C1/Nc2cc(Br)ccc2C1=O

>  <Name>  (581) 
nan

>  <Pocket>  (581) 
nan

>  <ATP_Site>  (581) 
nan

>  <Peripheral>  (581) 
nan

>  <Num_H_Atoms_ProtBoundConf>  (581) 
nan

>  <Num_Resolved_Atoms>  (581) 
nan

>  <Num_Not_Resolved_Atoms>  (581) 
nan

$$$$
CHEMBL1825162
     RDKit          3D

  0  0  0  0  0  0  0  0  0  0999 V3000
M  V30 BEGIN CTAB
M  V30 COUNTS 49 53 0 0 0
M  V30 BEGIN ATOM
M  V30 1 C -2.794174 2.759711 -0.575862 0
M  V30 2 C -3.237066 1.347971 -0.665079 0
M  V30 3 C -4.599554 1.032299 -0.665842 0
M  V30 4 C -5.041867 -0.293024 -0.749225 0
M  V30 5 C -4.074602 -1.274196 -0.830627 0
M  V30 6 C -4.550788 -2.653461 -0.917196 0
M  V30 7 O -5.810341 -2.853039 -0.911652 0
M  V30 8 N -3.692139 -3.781124 -1.006923 0
M  V30 9 C -4.164166 -5.147971 -1.092729 0
M  V30 10 C -3.411643 -6.160671 -1.867959 0
M  V30 11 C -3.448582 -6.247248 -0.370239 0
M  V30 12 C -2.751695 -0.964571 -0.829676 0
M  V30 13 C -2.302161 0.336998 -0.748015 0
M  V30 14 C -0.869921 0.640072 -0.749149 0
M  V30 15 N -0.373819 1.888190 -0.671766 0
M  V30 16 C 0.947431 2.143694 -0.674441 0
M  V30 17 C 1.832455 1.087038 -0.759769 0
M  V30 18 C 1.340434 -0.207046 -0.840346 0
M  V30 19 N 0.006588 -0.377279 -0.831672 0
M  V30 20 N 2.493652 -1.040478 -0.914584 0
M  V30 21 C 3.688566 -0.250784 -0.879015 0
M  V30 22 O 4.855869 -0.756420 -0.931201 0
M  V30 23 C 3.313822 1.183562 -0.775680 0
M  V30 24 C 3.813237 1.912297 -2.001970 0
M  V30 25 C 5.077539 2.583191 -1.568702 0
M  V30 26 C 5.182612 2.432266 -0.070940 0
M  V30 27 C 3.872201 1.871302 0.424851 0
M  V30 28 H -2.224570 3.013461 0.314176 0
M  V30 29 H -3.707314 3.418574 -0.553067 0
M  V30 30 H -2.263249 3.065041 -1.513286 0
M  V30 31 H -5.288755 1.860135 -0.599116 0
M  V30 32 H -6.117217 -0.436919 -0.742668 0
M  V30 33 H -2.659698 -3.633925 -1.012587 0
M  V30 34 H -5.269935 -5.243271 -1.082154 0
M  V30 35 H -4.003543 -6.962066 -2.356738 0
M  V30 36 H -2.466409 -5.912841 -2.361908 0
M  V30 37 H -2.535467 -5.925403 0.204648 0
M  V30 38 H -3.977336 -7.067702 0.131963 0
M  V30 39 H -1.991134 -1.710903 -0.891983 0
M  V30 40 H 1.263896 3.192481 -0.607891 0
M  V30 41 H 2.453896 -2.080140 -0.984720 0
M  V30 42 H 3.020819 2.624161 -2.303418 0
M  V30 43 H 3.987435 1.157799 -2.814524 0
M  V30 44 H 4.991851 3.664407 -1.827106 0
M  V30 45 H 5.966725 2.130936 -2.091635 0
M  V30 46 H 6.012119 1.696819 0.120970 0
M  V30 47 H 5.433876 3.390028 0.431928 0
M  V30 48 H 3.203649 2.684823 0.739811 0
M  V30 49 H 4.015978 1.146957 1.254743 0
M  V30 END ATOM
M  V30 BEGIN BOND
M  V30 1 1 1 2
M  V30 2 2 2 3
M  V30 3 1 3 4
M  V30 4 2 4 5
M  V30 5 1 5 6
M  V30 6 2 6 7
M  V30 7 1 6 8
M  V30 8 1 8 9
M  V30 9 1 9 10
M  V30 10 1 10 11
M  V30 11 1 5 12
M  V30 12 2 12 13
M  V30 13 1 13 14
M  V30 14 2 14 15
M  V30 15 1 15 16
M  V30 16 2 16 17
M  V30 17 1 17 18
M  V30 18 2 18 19
M  V30 19 1 18 20
M  V30 20 1 20 21
M  V30 21 2 21 22
M  V30 22 1 21 23
M  V30 23 1 23 24
M  V30 24 1 24 25
M  V30 25 1 25 26
M  V30 26 1 26 27
M  V30 27 1 13 2
M  V30 28 1 19 14
M  V30 29 1 27 23
M  V30 30 1 11 9
M  V30 31 1 23 17
M  V30 32 1 1 28
M  V30 33 1 1 29
M  V30 34 1 1 30
M  V30 35 1 3 31
M  V30 36 1 4 32
M  V30 37 1 8 33
M  V30 38 1 9 34
M  V30 39 1 10 35
M  V30 40 1 10 36
M  V30 41 1 11 37
M  V30 42 1 11 38
M  V30 43 1 12 39
M  V30 44 1 16 40
M  V30 45 1 20 41
M  V30 46 1 24 42
M  V30 47 1 24 43
M  V30 48 1 25 44
M  V30 49 1 25 45
M  V30 50 1 26 46
M  V30 51 1 26 47
M  V30 52 1 27 48
M  V30 53 1 27 49
M  V30 END BOND
M  V30 END CTAB
M  END
>  <Dataset>  (582) 
ChEMBL_Kinases

>  <Ligand_Instance>  (582) 
nan

>  <PDB_ID>  (582) 
nan

>  <Standardized_SMILES>  (582) 
Cc1ccc(C(=O)NC2CC2)cc1-c1ncc2c(n1)NC(=O)C21CCCC1

>  <Name>  (582) 
nan

>  <Pocket>  (582) 
nan

>  <ATP_Site>  (582) 
nan

>  <Peripheral>  (582) 
nan

>  <Num_H_Atoms_ProtBoundConf>  (582) 
nan

>  <Num_Resolved_Atoms>  (582) 
nan

>  <Num_Not_Resolved_Atoms>  (582) 
nan

$$$$
CHEMBL182560
     RDKit          3D

  0  0  0  0  0  0  0  0  0  0999 V3000
M  V30 BEGIN CTAB
M  V30 COUNTS 41 43 0 0 0
M  V30 BEGIN ATOM
M  V30 1 C 1.855025 -5.977722 4.045410 0
M  V30 2 O 1.814727 -6.157008 2.620964 0
M  V30 3 C 1.626125 -5.057674 1.794464 0
M  V30 4 C 1.483042 -3.818652 2.394073 0
M  V30 5 C 1.298756 -2.763128 1.525891 0
M  V30 6 C 1.250214 -2.862635 0.150816 0
M  V30 7 C 1.053940 -1.709351 -0.724878 0
M  V30 8 C 0.900135 -0.413379 -0.221178 0
M  V30 9 C 0.746069 0.342239 -1.365824 0
M  V30 10 C 0.554356 1.717917 -1.472036 0
M  V30 11 N 0.501169 2.519482 -0.272818 0
M  V30 12 C -0.676851 2.856977 0.508692 0
M  V30 13 O -1.501352 2.242282 -0.203999 0
M  V30 14 C -0.146186 3.675724 1.593723 0
M  V30 15 C -1.154572 4.154371 2.591227 0
M  V30 16 S -1.984124 2.842104 3.465293 0
M  V30 17 C -3.063936 1.913370 2.365449 0
M  V30 18 N 0.426315 2.247299 -2.719329 0
M  V30 19 C 0.492229 1.408744 -3.789772 0
M  V30 20 N 0.678385 0.063059 -3.718677 0
M  V30 21 C 0.809003 -0.490323 -2.486379 0
M  V30 22 O 0.993975 -1.700901 -2.034337 0
M  V30 23 C 1.401885 -4.135190 -0.358464 0
M  V30 24 C 1.593157 -5.267686 0.430228 0
M  V30 25 H 2.737665 -5.419034 4.369138 0
M  V30 26 H 1.832016 -6.960521 4.558512 0
M  V30 27 H 0.936772 -5.410057 4.367769 0
M  V30 28 H 1.508740 -3.657444 3.454451 0
M  V30 29 H 1.184193 -1.778970 1.986015 0
M  V30 30 H 0.907491 -0.124326 0.822385 0
M  V30 31 H 1.561119 2.687801 -0.277463 0
M  V30 32 H 0.409531 4.577279 1.216074 0
M  V30 33 H 0.627759 3.111931 2.198096 0
M  V30 34 H -1.875737 4.814316 2.048438 0
M  V30 35 H -0.655769 4.819220 3.355139 0
M  V30 36 H -3.480320 2.588690 1.612473 0
M  V30 37 H -2.591859 1.005521 1.937012 0
M  V30 38 H -3.958306 1.616499 3.000687 0
M  V30 39 H 0.382323 1.897203 -4.752896 0
M  V30 40 H 1.368762 -4.251407 -1.443952 0
M  V30 41 H 1.706968 -6.242673 -0.015333 0
M  V30 END ATOM
M  V30 BEGIN BOND
M  V30 1 1 1 2
M  V30 2 1 2 3
M  V30 3 2 3 4
M  V30 4 1 4 5
M  V30 5 2 5 6
M  V30 6 1 6 7
M  V30 7 2 7 8
M  V30 8 1 8 9
M  V30 9 2 9 10
M  V30 10 1 10 11
M  V30 11 1 11 12
M  V30 12 2 12 13
M  V30 13 1 12 14
M  V30 14 1 14 15
M  V30 15 1 15 16
M  V30 16 1 16 17
M  V30 17 1 10 18
M  V30 18 2 18 19
M  V30 19 1 19 20
M  V30 20 2 20 21
M  V30 21 1 21 22
M  V30 22 1 6 23
M  V30 23 2 23 24
M  V30 24 1 24 3
M  V30 25 1 22 7
M  V30 26 1 21 9
M  V30 27 1 1 25
M  V30 28 1 1 26
M  V30 29 1 1 27
M  V30 30 1 4 28
M  V30 31 1 5 29
M  V30 32 1 8 30
M  V30 33 1 11 31
M  V30 34 1 14 32
M  V30 35 1 14 33
M  V30 36 1 15 34
M  V30 37 1 15 35
M  V30 38 1 17 36
M  V30 39 1 17 37
M  V30 40 1 17 38
M  V30 41 1 19 39
M  V30 42 1 23 40
M  V30 43 1 24 41
M  V30 END BOND
M  V30 END CTAB
M  END
>  <Dataset>  (583) 
ChEMBL_Kinases

>  <Ligand_Instance>  (583) 
nan

>  <PDB_ID>  (583) 
nan

>  <Standardized_SMILES>  (583) 
COc1ccc(-c2cc3c(NC(=O)CCSC)ncnc3o2)cc1

>  <Name>  (583) 
nan

>  <Pocket>  (583) 
nan

>  <ATP_Site>  (583) 
nan

>  <Peripheral>  (583) 
nan

>  <Num_H_Atoms_ProtBoundConf>  (583) 
nan

>  <Num_Resolved_Atoms>  (583) 
nan

>  <Num_Not_Resolved_Atoms>  (583) 
nan

$$$$
CHEMBL182678
     RDKit          3D

  0  0  0  0  0  0  0  0  0  0999 V3000
M  V30 BEGIN CTAB
M  V30 COUNTS 34 37 0 0 0
M  V30 BEGIN ATOM
M  V30 1 N -0.259383 -4.961003 3.273504 0
M  V30 2 C -0.066825 -3.696701 2.641927 0
M  V30 3 N 0.738845 -3.191202 1.987911 0
M  V30 4 C 0.727001 -1.965621 1.484678 0
M  V30 5 C 1.866699 -1.502641 0.662650 0
M  V30 6 C 1.535959 -1.213251 -0.637926 0
M  V30 7 C 2.540395 -0.767887 -1.500926 0
M  V30 8 Cl 2.215420 -0.374328 -3.171650 0
M  V30 9 C 3.795378 -0.657592 -0.957199 0
M  V30 10 C 4.114793 -0.955475 0.365511 0
M  V30 11 N 3.107971 -1.384924 1.168658 0
M  V30 12 C -0.395251 -1.186816 1.779318 0
M  V30 13 C -0.579780 0.195130 1.306515 0
M  V30 14 C 0.364674 1.107130 1.748682 0
M  V30 15 C 0.261804 2.423655 1.352000 0
M  V30 16 N -0.731414 2.830417 0.550867 0
M  V30 17 C -1.669568 1.949475 0.105993 0
M  V30 18 C -2.712743 2.326872 -0.722102 0
M  V30 19 C -3.640136 1.382211 -1.143284 0
M  V30 20 C -3.546752 0.064802 -0.753163 0
M  V30 21 C -2.518440 -0.342958 0.072146 0
M  V30 22 C -1.605025 0.608799 0.481526 0
M  V30 23 S -1.399952 -2.326553 2.806854 0
M  V30 24 H -0.175652 -5.796887 2.656490 0
M  V30 25 H -0.465026 -4.895250 4.295106 0
M  V30 26 H 0.524162 -1.313882 -1.034333 0
M  V30 27 H 4.581361 -0.312470 -1.621878 0
M  V30 28 H 5.128798 -0.848708 0.741683 0
M  V30 29 H 1.205856 0.872500 2.399317 0
M  V30 30 H 0.929263 3.252726 1.618604 0
M  V30 31 H -2.731275 3.382441 -0.995642 0
M  V30 32 H -4.404217 1.781434 -1.777934 0
M  V30 33 H -4.297480 -0.648379 -1.107060 0
M  V30 34 H -2.441064 -1.378550 0.381402 0
M  V30 END ATOM
M  V30 BEGIN BOND
M  V30 1 1 1 2
M  V30 2 2 2 3
M  V30 3 1 3 4
M  V30 4 1 4 5
M  V30 5 2 5 6
M  V30 6 1 6 7
M  V30 7 1 7 8
M  V30 8 2 7 9
M  V30 9 1 9 10
M  V30 10 2 10 11
M  V30 11 2 4 12
M  V30 12 1 12 13
M  V30 13 2 13 14
M  V30 14 1 14 15
M  V30 15 2 15 16
M  V30 16 1 16 17
M  V30 17 2 17 18
M  V30 18 1 18 19
M  V30 19 2 19 20
M  V30 20 1 20 21
M  V30 21 2 21 22
M  V30 22 1 12 23
M  V30 23 1 23 2
M  V30 24 1 11 5
M  V30 25 1 22 13
M  V30 26 1 22 17
M  V30 27 1 1 24
M  V30 28 1 1 25
M  V30 29 1 6 26
M  V30 30 1 9 27
M  V30 31 1 10 28
M  V30 32 1 14 29
M  V30 33 1 15 30
M  V30 34 1 18 31
M  V30 35 1 19 32
M  V30 36 1 20 33
M  V30 37 1 21 34
M  V30 END BOND
M  V30 END CTAB
M  END
>  <Dataset>  (584) 
ChEMBL_Kinases

>  <Ligand_Instance>  (584) 
nan

>  <PDB_ID>  (584) 
nan

>  <Standardized_SMILES>  (584) 
Nc1nc(-c2cc(Cl)ccn2)c(-c2ccnc3ccccc23)s1

>  <Name>  (584) 
nan

>  <Pocket>  (584) 
nan

>  <ATP_Site>  (584) 
nan

>  <Peripheral>  (584) 
nan

>  <Num_H_Atoms_ProtBoundConf>  (584) 
nan

>  <Num_Resolved_Atoms>  (584) 
nan

>  <Num_Not_Resolved_Atoms>  (584) 
nan

$$$$
CHEMBL182722
     RDKit          3D

  0  0  0  0  0  0  0  0  0  0999 V3000
M  V30 BEGIN CTAB
M  V30 COUNTS 43 45 0 0 0
M  V30 BEGIN ATOM
M  V30 1 C 1.026775 -5.742162 3.488992 0
M  V30 2 C 1.213328 -4.255276 3.332742 0
M  V30 3 C 2.024666 -3.634065 4.256645 0
M  V30 4 C 2.184891 -2.273814 4.099629 0
M  V30 5 C 1.557799 -1.603375 3.069923 0
M  V30 6 C 0.749915 -2.246454 2.156675 0
M  V30 7 C 0.060475 -1.594600 1.048039 0
M  V30 8 C 0.144276 -0.242562 0.790549 0
M  V30 9 C -0.504622 0.380544 -0.255484 0
M  V30 10 C -0.410978 1.837940 -0.528429 0
M  V30 11 C 0.750857 2.139545 -1.466281 0
M  V30 12 C 1.265027 3.541978 -1.220110 0
M  V30 13 C 1.879838 3.565083 0.154455 0
M  V30 14 N 1.171263 2.700281 1.080651 0
M  V30 15 C -0.215133 2.634982 0.740831 0
M  V30 16 C -1.290146 -0.365298 -1.110642 0
M  V30 17 C -1.993946 0.216534 -2.219405 0
M  V30 18 N -2.572244 0.686644 -3.112284 0
M  V30 19 C -1.359794 -1.715233 -0.834644 0
M  V30 20 N -2.152399 -2.556458 -1.673262 0
M  V30 21 N -0.719312 -2.295505 0.188298 0
M  V30 22 C 0.591816 -3.599742 2.314650 0
M  V30 23 O -0.202756 -4.297375 1.434316 0
M  V30 24 H 1.682500 -6.178048 2.679313 0
M  V30 25 H 1.324909 -6.090024 4.480951 0
M  V30 26 H 0.000164 -6.029443 3.179099 0
M  V30 27 H 2.523865 -4.154136 5.072594 0
M  V30 28 H 2.803075 -1.689348 4.773097 0
M  V30 29 H 1.698301 -0.544301 2.968906 0
M  V30 30 H 0.746663 0.387268 1.430563 0
M  V30 31 H -1.334959 2.183522 -1.063065 0
M  V30 32 H 0.506662 2.038661 -2.522389 0
M  V30 33 H 1.562579 1.443516 -1.148221 0
M  V30 34 H 0.440861 4.296135 -1.336453 0
M  V30 35 H 2.072537 3.741406 -1.951128 0
M  V30 36 H 1.868331 4.636883 0.485692 0
M  V30 37 H 2.928577 3.260109 0.064477 0
M  V30 38 H 1.285613 3.113447 2.044241 0
M  V30 39 H -0.814495 2.221505 1.581147 0
M  V30 40 H -0.652171 3.643955 0.540528 0
M  V30 41 H -1.625558 -2.615973 -2.566335 0
M  V30 42 H -3.055579 -2.932555 -1.263215 0
M  V30 43 H -1.186504 -4.393572 1.703133 0
M  V30 END ATOM
M  V30 BEGIN BOND
M  V30 1 1 1 2
M  V30 2 2 2 3
M  V30 3 1 3 4
M  V30 4 2 4 5
M  V30 5 1 5 6
M  V30 6 1 6 7
M  V30 7 2 7 8
M  V30 8 1 8 9
M  V30 9 1 9 10
M  V30 10 1 10 11
M  V30 11 1 11 12
M  V30 12 1 12 13
M  V30 13 1 13 14
M  V30 14 1 14 15
M  V30 15 2 9 16
M  V30 16 1 16 17
M  V30 17 3 17 18
M  V30 18 1 16 19
M  V30 19 1 19 20
M  V30 20 2 19 21
M  V30 21 2 6 22
M  V30 22 1 22 23
M  V30 23 1 22 2
M  V30 24 1 21 7
M  V30 25 1 15 10
M  V30 26 1 1 24
M  V30 27 1 1 25
M  V30 28 1 1 26
M  V30 29 1 3 27
M  V30 30 1 4 28
M  V30 31 1 5 29
M  V30 32 1 8 30
M  V30 33 1 10 31
M  V30 34 1 11 32
M  V30 35 1 11 33
M  V30 36 1 12 34
M  V30 37 1 12 35
M  V30 38 1 13 36
M  V30 39 1 13 37
M  V30 40 1 14 38
M  V30 41 1 15 39
M  V30 42 1 15 40
M  V30 43 1 20 41
M  V30 44 1 20 42
M  V30 45 1 23 43
M  V30 END BOND
M  V30 END CTAB
M  END
>  <Dataset>  (585) 
ChEMBL_Kinases

>  <Ligand_Instance>  (585) 
nan

>  <PDB_ID>  (585) 
nan

>  <Standardized_SMILES>  (585) 
Cc1cccc(-c2cc(C3CCCNC3)c(C#N)c(N)n2)c1O

>  <Name>  (585) 
nan

>  <Pocket>  (585) 
nan

>  <ATP_Site>  (585) 
nan

>  <Peripheral>  (585) 
nan

>  <Num_H_Atoms_ProtBoundConf>  (585) 
nan

>  <Num_Resolved_Atoms>  (585) 
nan

>  <Num_Not_Resolved_Atoms>  (585) 
nan

$$$$
CHEMBL182749
     RDKit          3D

  0  0  0  0  0  0  0  0  0  0999 V3000
M  V30 BEGIN CTAB
M  V30 COUNTS 56 58 0 0 0
M  V30 BEGIN ATOM
M  V30 1 C -0.166841 -0.349216 3.159041 0
M  V30 2 C 0.508765 -1.048475 4.283288 0
M  V30 3 C 1.764239 -0.460942 4.782746 0
M  V30 4 C 2.987576 -0.363374 4.009715 0
M  V30 5 C 3.056140 0.382902 2.751858 0
M  V30 6 O 2.303299 -0.140316 1.709455 0
M  V30 7 C 2.300556 0.466745 0.442672 0
M  V30 8 C 3.071352 1.620268 0.267558 0
M  V30 9 C 3.196633 2.351938 -0.893364 0
M  V30 10 C 2.490106 1.896179 -1.984819 0
M  V30 11 C 1.717148 0.765476 -1.863022 0
M  V30 12 O 1.001333 0.305198 -2.971910 0
M  V30 13 C 1.629713 0.075111 -0.678270 0
M  V30 14 C 0.789671 -1.098912 -0.629310 0
M  V30 15 C -0.568179 -0.895319 -0.533035 0
M  V30 16 C -1.522251 -1.882195 -0.503941 0
M  V30 17 C -2.974759 -1.911637 -0.403606 0
M  V30 18 C -3.734709 -2.005570 -1.689655 0
M  V30 19 C -3.346204 -0.879753 -2.608597 0
M  V30 20 C -3.424652 0.461701 -1.950125 0
M  V30 21 N -3.236730 0.483722 -0.564752 0
M  V30 22 C -3.445419 -0.633291 0.242748 0
M  V30 23 C -0.967608 -3.164900 -0.583971 0
M  V30 24 C -1.761039 -4.379746 -0.573047 0
M  V30 25 N -2.409132 -5.335742 -0.560748 0
M  V30 26 C 0.408414 -3.399801 -0.682433 0
M  V30 27 N 0.973668 -4.684241 -0.763166 0
M  V30 28 N 1.255502 -2.359223 -0.702799 0
M  V30 29 H 0.184159 0.689190 3.020819 0
M  V30 30 H -1.275887 -0.197928 3.396848 0
M  V30 31 H -0.151561 -0.940597 2.236537 0
M  V30 32 H 0.636363 -2.155250 4.030494 0
M  V30 33 H -0.249293 -1.071437 5.135965 0
M  V30 34 H 1.505635 0.605590 5.127861 0
M  V30 35 H 2.024436 -0.973580 5.793722 0
M  V30 36 H 3.362938 -1.442061 3.789594 0
M  V30 37 H 3.810034 -0.022377 4.730414 0
M  V30 38 H 2.751196 1.475795 2.879940 0
M  V30 39 H 4.161031 0.454299 2.460406 0
M  V30 40 H 3.644265 2.001014 1.127678 0
M  V30 41 H 3.821390 3.232046 -0.921053 0
M  V30 42 H 2.554848 2.435570 -2.920858 0
M  V30 43 H 0.214611 0.888908 -3.268672 0
M  V30 44 H -0.968975 0.101969 -0.469514 0
M  V30 45 H -3.326072 -2.783940 0.235052 0
M  V30 46 H -4.807091 -1.787865 -1.405245 0
M  V30 47 H -3.767394 -2.979023 -2.168825 0
M  V30 48 H -3.964804 -0.924439 -3.528748 0
M  V30 49 H -2.296002 -1.051552 -2.923012 0
M  V30 50 H -2.677991 1.150917 -2.442106 0
M  V30 51 H -4.415358 0.899385 -2.200988 0
M  V30 52 H -2.971359 1.377394 -0.145111 0
M  V30 53 H -2.884511 -0.483483 1.203231 0
M  V30 54 H -4.521745 -0.699009 0.538911 0
M  V30 55 H 1.662485 -5.141538 -0.116834 0
M  V30 56 H 0.671566 -5.280449 -1.582173 0
M  V30 END ATOM
M  V30 BEGIN BOND
M  V30 1 1 1 2
M  V30 2 1 2 3
M  V30 3 1 3 4
M  V30 4 1 4 5
M  V30 5 1 5 6
M  V30 6 1 6 7
M  V30 7 2 7 8
M  V30 8 1 8 9
M  V30 9 2 9 10
M  V30 10 1 10 11
M  V30 11 1 11 12
M  V30 12 2 11 13
M  V30 13 1 13 14
M  V30 14 2 14 15
M  V30 15 1 15 16
M  V30 16 1 16 17
M  V30 17 1 17 18
M  V30 18 1 18 19
M  V30 19 1 19 20
M  V30 20 1 20 21
M  V30 21 1 21 22
M  V30 22 2 16 23
M  V30 23 1 23 24
M  V30 24 3 24 25
M  V30 25 1 23 26
M  V30 26 1 26 27
M  V30 27 2 26 28
M  V30 28 1 13 7
M  V30 29 1 28 14
M  V30 30 1 22 17
M  V30 31 1 1 29
M  V30 32 1 1 30
M  V30 33 1 1 31
M  V30 34 1 2 32
M  V30 35 1 2 33
M  V30 36 1 3 34
M  V30 37 1 3 35
M  V30 38 1 4 36
M  V30 39 1 4 37
M  V30 40 1 5 38
M  V30 41 1 5 39
M  V30 42 1 8 40
M  V30 43 1 9 41
M  V30 44 1 10 42
M  V30 45 1 12 43
M  V30 46 1 15 44
M  V30 47 1 17 45
M  V30 48 1 18 46
M  V30 49 1 18 47
M  V30 50 1 19 48
M  V30 51 1 19 49
M  V30 52 1 20 50
M  V30 53 1 20 51
M  V30 54 1 21 52
M  V30 55 1 22 53
M  V30 56 1 22 54
M  V30 57 1 27 55
M  V30 58 1 27 56
M  V30 END BOND
M  V30 END CTAB
M  END
>  <Dataset>  (586) 
ChEMBL_Kinases

>  <Ligand_Instance>  (586) 
nan

>  <PDB_ID>  (586) 
nan

>  <Standardized_SMILES>  (586) 
CCCCCOc1cccc(O)c1-c1cc(C2CCCNC2)c(C#N)c(N)n1

>  <Name>  (586) 
nan

>  <Pocket>  (586) 
nan

>  <ATP_Site>  (586) 
nan

>  <Peripheral>  (586) 
nan

>  <Num_H_Atoms_ProtBoundConf>  (586) 
nan

>  <Num_Resolved_Atoms>  (586) 
nan

>  <Num_Not_Resolved_Atoms>  (586) 
nan

$$$$
CHEMBL182772
     RDKit          3D

  0  0  0  0  0  0  0  0  0  0999 V3000
M  V30 BEGIN CTAB
M  V30 COUNTS 63 66 0 0 0
M  V30 BEGIN ATOM
M  V30 1 C 1.466870 -1.132602 2.087582 0
M  V30 2 C 2.494004 -0.503966 2.637277 0
M  V30 3 C 3.541458 0.465247 2.263920 0
M  V30 4 N 3.428741 0.874891 0.864522 0
M  V30 5 C 3.734088 -0.206328 -0.057143 0
M  V30 6 C 3.049914 2.208222 0.482181 0
M  V30 7 N 4.013063 3.146292 0.384281 0
M  V30 8 C 3.686248 4.405654 0.024696 0
M  V30 9 C 2.357946 4.647054 -0.222593 0
M  V30 10 C 1.333858 3.727626 -0.137881 0
M  V30 11 N 0.011864 4.102539 -0.422806 0
M  V30 12 C -1.149332 3.291316 -0.390851 0
M  V30 13 C -1.188769 1.956165 -0.058747 0
M  V30 14 C -2.297895 1.134454 -0.022881 0
M  V30 15 N -2.173351 -0.246289 0.349242 0
M  V30 16 C -2.283463 -0.788549 1.649965 0
M  V30 17 O -2.517042 -0.060850 2.638378 0
M  V30 18 C -2.131062 -2.217251 1.905823 0
M  V30 19 C -2.274559 -2.672666 3.207292 0
M  V30 20 C -2.122380 -4.029062 3.460151 0
M  V30 21 N -1.838004 -4.944590 2.494411 0
M  V30 22 C -1.695734 -4.502656 1.211228 0
M  V30 23 N -1.390329 -5.376388 0.116750 0
M  V30 24 C -1.294189 -4.903344 -1.270212 0
M  V30 25 C -1.115257 -6.130083 -2.135341 0
M  V30 26 O 0.050307 -6.821578 -1.810723 0
M  V30 27 C 0.173013 -7.051932 -0.459979 0
M  V30 28 C -1.147435 -6.775847 0.272390 0
M  V30 29 C -1.843311 -3.171551 0.951690 0
M  V30 30 C -3.511080 1.740479 -0.364595 0
M  V30 31 C -3.537542 3.072246 -0.706147 0
M  V30 32 C -2.381566 3.816559 -0.715259 0
M  V30 33 C -2.471528 5.258591 -1.094729 0
M  V30 34 N 1.794813 2.522371 0.227090 0
M  V30 35 H 0.702519 -1.846203 2.377468 0
M  V30 36 H 0.831293 -1.341343 1.231189 0
M  V30 37 H 2.524133 -0.842341 3.669282 0
M  V30 38 H 4.520145 -0.087688 2.363556 0
M  V30 39 H 3.574409 1.293015 2.969753 0
M  V30 40 H 4.630752 -0.777752 0.253857 0
M  V30 41 H 2.898642 -0.956482 -0.001183 0
M  V30 42 H 3.886317 0.135233 -1.082852 0
M  V30 43 H 4.447278 5.140425 -0.050705 0
M  V30 44 H 2.159331 5.692484 -0.510704 0
M  V30 45 H -0.136331 5.107611 -0.691612 0
M  V30 46 H -0.273371 1.462823 0.208326 0
M  V30 47 H -1.982857 -0.847544 -0.481368 0
M  V30 48 H -2.502885 -2.023825 4.059412 0
M  V30 49 H -2.226529 -4.437321 4.474106 0
M  V30 50 H -0.474404 -4.184245 -1.397071 0
M  V30 51 H -2.272969 -4.450728 -1.518884 0
M  V30 52 H -1.995997 -6.778732 -2.024077 0
M  V30 53 H -1.105248 -5.813009 -3.198630 0
M  V30 54 H 0.561122 -8.055448 -0.283419 0
M  V30 55 H 0.907412 -6.331528 0.008875 0
M  V30 56 H -1.963929 -7.417226 -0.088543 0
M  V30 57 H -0.937175 -7.078985 1.337429 0
M  V30 58 H -1.731065 -2.824143 -0.065553 0
M  V30 59 H -4.401064 1.119573 -0.346064 0
M  V30 60 H -4.500805 3.504521 -0.965577 0
M  V30 61 H -2.049166 5.384055 -2.121535 0
M  V30 62 H -3.532069 5.578299 -1.121084 0
M  V30 63 H -1.985312 5.909763 -0.343079 0
M  V30 END ATOM
M  V30 BEGIN BOND
M  V30 1 2 1 2
M  V30 2 1 2 3
M  V30 3 1 3 4
M  V30 4 1 4 5
M  V30 5 1 4 6
M  V30 6 2 6 7
M  V30 7 1 7 8
M  V30 8 2 8 9
M  V30 9 1 9 10
M  V30 10 1 10 11
M  V30 11 1 11 12
M  V30 12 2 12 13
M  V30 13 1 13 14
M  V30 14 1 14 15
M  V30 15 1 15 16
M  V30 16 2 16 17
M  V30 17 1 16 18
M  V30 18 2 18 19
M  V30 19 1 19 20
M  V30 20 2 20 21
M  V30 21 1 21 22
M  V30 22 1 22 23
M  V30 23 1 23 24
M  V30 24 1 24 25
M  V30 25 1 25 26
M  V30 26 1 26 27
M  V30 27 1 27 28
M  V30 28 2 22 29
M  V30 29 2 14 30
M  V30 30 1 30 31
M  V30 31 2 31 32
M  V30 32 1 32 33
M  V30 33 2 10 34
M  V30 34 1 34 6
M  V30 35 1 32 12
M  V30 36 1 29 18
M  V30 37 1 28 23
M  V30 38 1 1 35
M  V30 39 1 1 36
M  V30 40 1 2 37
M  V30 41 1 3 38
M  V30 42 1 3 39
M  V30 43 1 5 40
M  V30 44 1 5 41
M  V30 45 1 5 42
M  V30 46 1 8 43
M  V30 47 1 9 44
M  V30 48 1 11 45
M  V30 49 1 13 46
M  V30 50 1 15 47
M  V30 51 1 19 48
M  V30 52 1 20 49
M  V30 53 1 24 50
M  V30 54 1 24 51
M  V30 55 1 25 52
M  V30 56 1 25 53
M  V30 57 1 27 54
M  V30 58 1 27 55
M  V30 59 1 28 56
M  V30 60 1 28 57
M  V30 61 1 29 58
M  V30 62 1 30 59
M  V30 63 1 31 60
M  V30 64 1 33 61
M  V30 65 1 33 62
M  V30 66 1 33 63
M  V30 END BOND
M  V30 END CTAB
M  END
>  <Dataset>  (587) 
ChEMBL_Kinases

>  <Ligand_Instance>  (587) 
nan

>  <PDB_ID>  (587) 
nan

>  <Standardized_SMILES>  (587) 
C=CCN(C)c1nccc(Nc2cc(NC(=O)c3ccnc(N4CCOCC4)c3)ccc2C)n1

>  <Name>  (587) 
nan

>  <Pocket>  (587) 
nan

>  <ATP_Site>  (587) 
nan

>  <Peripheral>  (587) 
nan

>  <Num_H_Atoms_ProtBoundConf>  (587) 
nan

>  <Num_Resolved_Atoms>  (587) 
nan

>  <Num_Not_Resolved_Atoms>  (587) 
nan

$$$$
CHEMBL182891
     RDKit          3D

  0  0  0  0  0  0  0  0  0  0999 V3000
M  V30 BEGIN CTAB
M  V30 COUNTS 47 50 0 0 0
M  V30 BEGIN ATOM
M  V30 1 C 1.125318 -7.933868 0.868026 0
M  V30 2 O -0.154507 -7.438803 0.605259 0
M  V30 3 C -0.469396 -6.124312 0.383945 0
M  V30 4 C 0.420178 -5.043982 0.379476 0
M  V30 5 C -0.013639 -3.754581 0.143087 0
M  V30 6 C -1.348805 -3.491332 -0.097767 0
M  V30 7 C -1.809027 -2.127295 -0.348015 0
M  V30 8 C -0.995352 -1.010216 -0.369069 0
M  V30 9 C -1.793191 0.083483 -0.635952 0
M  V30 10 C -1.618280 1.451619 -0.788636 0
M  V30 11 N -0.265607 1.924949 -0.641892 0
M  V30 12 C 0.344115 2.350037 0.585608 0
M  V30 13 O -0.529338 2.224749 1.480069 0
M  V30 14 C 1.744979 2.757274 0.282578 0
M  V30 15 C 2.400073 3.202383 1.567975 0
M  V30 16 C 1.727500 4.358587 2.235080 0
M  V30 17 C 1.656372 4.034370 3.713220 0
M  V30 18 C 2.729881 2.955475 3.847426 0
M  V30 19 C 2.353739 2.114313 2.619860 0
M  V30 20 N -2.682779 2.248465 -1.057710 0
M  V30 21 C -3.912281 1.728543 -1.179319 0
M  V30 22 N -4.122910 0.400467 -1.037414 0
M  V30 23 C -3.077467 -0.423714 -0.767691 0
M  V30 24 O -3.041084 -1.725403 -0.591097 0
M  V30 25 C -2.256996 -4.533606 -0.101174 0
M  V30 26 C -1.795594 -5.811917 0.138018 0
M  V30 27 H 1.667674 -8.028961 -0.099110 0
M  V30 28 H 0.986753 -8.938849 1.352761 0
M  V30 29 H 1.724977 -7.322994 1.560796 0
M  V30 30 H 1.453259 -5.306355 0.573542 0
M  V30 31 H 0.728416 -2.967345 0.154328 0
M  V30 32 H 0.061320 -0.936017 -0.215604 0
M  V30 33 H 0.030486 1.840383 -1.641891 0
M  V30 34 H 1.767016 3.553154 -0.460757 0
M  V30 35 H 2.268588 1.843288 -0.048891 0
M  V30 36 H 3.475996 3.426900 1.416772 0
M  V30 37 H 2.326428 5.264365 2.078647 0
M  V30 38 H 0.674026 4.489676 1.890468 0
M  V30 39 H 1.868864 4.890362 4.350712 0
M  V30 40 H 0.677737 3.559309 3.967312 0
M  V30 41 H 3.720989 3.386911 3.672661 0
M  V30 42 H 2.644305 2.383149 4.773731 0
M  V30 43 H 3.136897 1.381856 2.369903 0
M  V30 44 H 1.356383 1.687147 2.747948 0
M  V30 45 H -4.746267 2.386239 -1.394517 0
M  V30 46 H -3.311394 -4.354333 -0.287622 0
M  V30 47 H -2.538270 -6.597838 0.126517 0
M  V30 END ATOM
M  V30 BEGIN BOND
M  V30 1 1 1 2
M  V30 2 1 2 3
M  V30 3 2 3 4
M  V30 4 1 4 5
M  V30 5 2 5 6
M  V30 6 1 6 7
M  V30 7 2 7 8
M  V30 8 1 8 9
M  V30 9 2 9 10
M  V30 10 1 10 11
M  V30 11 1 11 12
M  V30 12 2 12 13
M  V30 13 1 12 14
M  V30 14 1 14 15
M  V30 15 1 15 16
M  V30 16 1 16 17
M  V30 17 1 17 18
M  V30 18 1 18 19
M  V30 19 1 10 20
M  V30 20 2 20 21
M  V30 21 1 21 22
M  V30 22 2 22 23
M  V30 23 1 23 24
M  V30 24 1 6 25
M  V30 25 2 25 26
M  V30 26 1 26 3
M  V30 27 1 24 7
M  V30 28 1 23 9
M  V30 29 1 19 15
M  V30 30 1 1 27
M  V30 31 1 1 28
M  V30 32 1 1 29
M  V30 33 1 4 30
M  V30 34 1 5 31
M  V30 35 1 8 32
M  V30 36 1 11 33
M  V30 37 1 14 34
M  V30 38 1 14 35
M  V30 39 1 15 36
M  V30 40 1 16 37
M  V30 41 1 16 38
M  V30 42 1 17 39
M  V30 43 1 17 40
M  V30 44 1 18 41
M  V30 45 1 18 42
M  V30 46 1 19 43
M  V30 47 1 19 44
M  V30 48 1 21 45
M  V30 49 1 25 46
M  V30 50 1 26 47
M  V30 END BOND
M  V30 END CTAB
M  END
>  <Dataset>  (588) 
ChEMBL_Kinases

>  <Ligand_Instance>  (588) 
nan

>  <PDB_ID>  (588) 
nan

>  <Standardized_SMILES>  (588) 
COc1ccc(-c2cc3c(NC(=O)CC4CCCC4)ncnc3o2)cc1

>  <Name>  (588) 
nan

>  <Pocket>  (588) 
nan

>  <ATP_Site>  (588) 
nan

>  <Peripheral>  (588) 
nan

>  <Num_H_Atoms_ProtBoundConf>  (588) 
nan

>  <Num_Resolved_Atoms>  (588) 
nan

>  <Num_Not_Resolved_Atoms>  (588) 
nan

$$$$
CHEMBL182904
     RDKit          3D

  0  0  0  0  0  0  0  0  0  0999 V3000
M  V30 BEGIN CTAB
M  V30 COUNTS 34 37 0 0 0
M  V30 BEGIN ATOM
M  V30 1 O -0.938525 -1.795047 3.346062 0
M  V30 2 C -1.658987 -2.314795 2.434484 0
M  V30 3 N -0.983825 -2.909709 1.337671 0
M  V30 4 C 0.435069 -2.940896 1.230915 0
M  V30 5 N 1.231228 -3.937036 1.715533 0
M  V30 6 C 2.569831 -3.882594 1.568142 0
M  V30 7 N 3.142497 -2.826002 0.930149 0
M  V30 8 C 2.396799 -1.820802 0.436075 0
M  V30 9 O 2.748507 -0.726681 -0.203475 0
M  V30 10 C 1.707415 -0.010972 -0.510637 0
M  V30 11 C 1.591795 1.266268 -1.211205 0
M  V30 12 C 0.389037 1.898161 -1.457707 0
M  V30 13 C 0.301661 3.104701 -2.121406 0
M  V30 14 C 1.453895 3.737518 -2.574190 0
M  V30 15 Cl 1.364108 5.269228 -3.418600 0
M  V30 16 C 2.696154 3.136469 -2.348299 0
M  V30 17 C 2.734576 1.913716 -1.671302 0
M  V30 18 C 0.594313 -0.689416 -0.035770 0
M  V30 19 C 1.006019 -1.856572 0.577638 0
M  V30 20 C -3.142506 -2.288706 2.534348 0
M  V30 21 C -3.762960 -0.966979 2.979155 0
M  V30 22 C -3.778285 -2.127787 3.881574 0
M  V30 23 H -1.570956 -3.342310 0.578493 0
M  V30 24 H 3.122292 -4.714494 1.982690 0
M  V30 25 H -0.504022 1.388224 -1.095940 0
M  V30 26 H -0.671036 3.558022 -2.288652 0
M  V30 27 H 3.615943 3.597380 -2.685111 0
M  V30 28 H 3.693650 1.425203 -1.483284 0
M  V30 29 H -0.464211 -0.428142 -0.088548 0
M  V30 30 H -3.686156 -2.761398 1.701366 0
M  V30 31 H -4.715718 -0.631941 2.489507 0
M  V30 32 H -3.052572 -0.123533 3.069289 0
M  V30 33 H -4.759245 -2.608804 4.095210 0
M  V30 34 H -3.107391 -2.133756 4.764068 0
M  V30 END ATOM
M  V30 BEGIN BOND
M  V30 1 2 1 2
M  V30 2 1 2 3
M  V30 3 1 3 4
M  V30 4 2 4 5
M  V30 5 1 5 6
M  V30 6 2 6 7
M  V30 7 1 7 8
M  V30 8 1 8 9
M  V30 9 1 9 10
M  V30 10 1 10 11
M  V30 11 2 11 12
M  V30 12 1 12 13
M  V30 13 2 13 14
M  V30 14 1 14 15
M  V30 15 1 14 16
M  V30 16 2 16 17
M  V30 17 2 10 18
M  V30 18 1 18 19
M  V30 19 1 2 20
M  V30 20 1 20 21
M  V30 21 1 21 22
M  V30 22 1 19 4
M  V30 23 1 22 20
M  V30 24 2 19 8
M  V30 25 1 17 11
M  V30 26 1 3 23
M  V30 27 1 6 24
M  V30 28 1 12 25
M  V30 29 1 13 26
M  V30 30 1 16 27
M  V30 31 1 17 28
M  V30 32 1 18 29
M  V30 33 1 20 30
M  V30 34 1 21 31
M  V30 35 1 21 32
M  V30 36 1 22 33
M  V30 37 1 22 34
M  V30 END BOND
M  V30 END CTAB
M  END
>  <Dataset>  (589) 
ChEMBL_Kinases

>  <Ligand_Instance>  (589) 
nan

>  <PDB_ID>  (589) 
nan

>  <Standardized_SMILES>  (589) 
O=C(Nc1ncnc2oc(-c3ccc(Cl)cc3)cc12)C1CC1

>  <Name>  (589) 
nan

>  <Pocket>  (589) 
nan

>  <ATP_Site>  (589) 
nan

>  <Peripheral>  (589) 
nan

>  <Num_H_Atoms_ProtBoundConf>  (589) 
nan

>  <Num_Resolved_Atoms>  (589) 
nan

>  <Num_Not_Resolved_Atoms>  (589) 
nan

$$$$
CHEMBL1825161
     RDKit          3D

  0  0  0  0  0  0  0  0  0  0999 V3000
M  V30 BEGIN CTAB
M  V30 COUNTS 46 49 0 0 0
M  V30 BEGIN ATOM
M  V30 1 C -0.665536 -1.644936 4.335787 0
M  V30 2 C 0.620099 -1.260420 3.696847 0
M  V30 3 C 1.820819 -1.236766 4.375332 0
M  V30 4 C 3.008420 -0.868492 3.735408 0
M  V30 5 C 2.985381 -0.521265 2.400734 0
M  V30 6 C 4.219545 -0.145159 1.760821 0
M  V30 7 O 5.265297 -0.154115 2.464191 0
M  V30 8 N 4.343515 0.230773 0.411007 0
M  V30 9 C 5.597876 0.608704 -0.222930 0
M  V30 10 C 5.590134 1.776722 -1.197215 0
M  V30 11 C 5.727863 0.398408 -1.683598 0
M  V30 12 C 1.762444 -0.560560 1.767482 0
M  V30 13 C 0.561830 -0.915197 2.347246 0
M  V30 14 C -0.639846 -0.900254 1.521385 0
M  V30 15 C -0.784205 0.218924 0.714179 0
M  V30 16 N -1.838885 0.384413 -0.107216 0
M  V30 17 C -2.790648 -0.565480 -0.151970 0
M  V30 18 C -2.711878 -1.705124 0.623642 0
M  V30 19 C -1.626611 -1.863118 1.461073 0
M  V30 20 N -3.826649 -2.562572 0.409552 0
M  V30 21 C -4.628630 -1.896256 -0.557507 0
M  V30 22 O -5.717718 -2.238512 -1.080596 0
M  V30 23 C -4.031099 -0.599915 -0.972900 0
M  V30 24 C -4.947308 0.559072 -0.682980 0
M  V30 25 C -3.671566 -0.671333 -2.458475 0
M  V30 26 H -0.804971 -2.741924 4.411687 0
M  V30 27 H -0.590511 -1.269865 5.398663 0
M  V30 28 H -1.529061 -1.115414 3.905859 0
M  V30 29 H 1.771174 -1.520785 5.423223 0
M  V30 30 H 3.887620 -0.886024 4.364685 0
M  V30 31 H 3.511754 0.249661 -0.193155 0
M  V30 32 H 6.478430 0.576982 0.461469 0
M  V30 33 H 6.429200 2.497919 -1.192512 0
M  V30 34 H 4.599048 2.284630 -1.251340 0
M  V30 35 H 6.735903 0.089011 -2.035634 0
M  V30 36 H 4.845346 -0.081130 -2.186995 0
M  V30 37 H 1.761283 -0.282384 0.709287 0
M  V30 38 H -0.041897 1.024021 0.708377 0
M  V30 39 H -1.473178 -2.717515 2.106674 0
M  V30 40 H -4.044698 -3.484990 0.845877 0
M  V30 41 H -5.828723 0.149745 -0.145176 0
M  V30 42 H -5.326641 0.912320 -1.666143 0
M  V30 43 H -4.460057 1.407423 -0.190579 0
M  V30 44 H -2.736919 -1.264737 -2.581373 0
M  V30 45 H -3.430733 0.332312 -2.847765 0
M  V30 46 H -4.486717 -1.073268 -3.066528 0
M  V30 END ATOM
M  V30 BEGIN BOND
M  V30 1 1 1 2
M  V30 2 2 2 3
M  V30 3 1 3 4
M  V30 4 2 4 5
M  V30 5 1 5 6
M  V30 6 2 6 7
M  V30 7 1 6 8
M  V30 8 1 8 9
M  V30 9 1 9 10
M  V30 10 1 10 11
M  V30 11 1 5 12
M  V30 12 2 12 13
M  V30 13 1 13 14
M  V30 14 2 14 15
M  V30 15 1 15 16
M  V30 16 2 16 17
M  V30 17 1 17 18
M  V30 18 2 18 19
M  V30 19 1 18 20
M  V30 20 1 20 21
M  V30 21 2 21 22
M  V30 22 1 21 23
M  V30 23 1 23 24
M  V30 24 1 23 25
M  V30 25 1 13 2
M  V30 26 1 19 14
M  V30 27 1 11 9
M  V30 28 1 23 17
M  V30 29 1 1 26
M  V30 30 1 1 27
M  V30 31 1 1 28
M  V30 32 1 3 29
M  V30 33 1 4 30
M  V30 34 1 8 31
M  V30 35 1 9 32
M  V30 36 1 10 33
M  V30 37 1 10 34
M  V30 38 1 11 35
M  V30 39 1 11 36
M  V30 40 1 12 37
M  V30 41 1 15 38
M  V30 42 1 19 39
M  V30 43 1 20 40
M  V30 44 1 24 41
M  V30 45 1 24 42
M  V30 46 1 24 43
M  V30 47 1 25 44
M  V30 48 1 25 45
M  V30 49 1 25 46
M  V30 END BOND
M  V30 END CTAB
M  END
>  <Dataset>  (590) 
ChEMBL_Kinases

>  <Ligand_Instance>  (590) 
nan

>  <PDB_ID>  (590) 
nan

>  <Standardized_SMILES>  (590) 
Cc1ccc(C(=O)NC2CC2)cc1-c1cnc2c(c1)NC(=O)C2(C)C

>  <Name>  (590) 
nan

>  <Pocket>  (590) 
nan

>  <ATP_Site>  (590) 
nan

>  <Peripheral>  (590) 
nan

>  <Num_H_Atoms_ProtBoundConf>  (590) 
nan

>  <Num_Resolved_Atoms>  (590) 
nan

>  <Num_Not_Resolved_Atoms>  (590) 
nan

$$$$
CHEMBL1834115
     RDKit          3D

  0  0  0  0  0  0  0  0  0  0999 V3000
M  V30 BEGIN CTAB
M  V30 COUNTS 54 57 0 0 0
M  V30 BEGIN ATOM
M  V30 1 N -2.208339 -1.740465 3.708653 0
M  V30 2 C -1.238674 -1.996529 2.698656 0
M  V30 3 C 0.053299 -1.596935 2.979659 0
M  V30 4 F 0.378852 -0.996256 4.148634 0
M  V30 5 C 1.027766 -1.824268 2.030569 0
M  V30 6 N 2.389206 -1.454876 2.212499 0
M  V30 7 C 2.926474 -0.165661 1.821467 0
M  V30 8 C 2.266000 0.994499 2.508014 0
M  V30 9 C 2.811751 2.316866 2.105092 0
M  V30 10 C 2.689248 2.676440 0.667169 0
M  V30 11 C 1.323937 2.753100 0.140330 0
M  V30 12 C 0.712875 4.009167 0.254775 0
M  V30 13 C -0.562723 4.296972 -0.178033 0
M  V30 14 C -1.306974 3.296183 -0.766868 0
M  V30 15 C -0.739191 2.045460 -0.897312 0
M  V30 16 C 0.541294 1.786375 -0.454302 0
M  V30 17 C 0.739976 -2.438782 0.814038 0
M  V30 18 F 1.690052 -2.662438 -0.115659 0
M  V30 19 C -0.553564 -2.840533 0.529019 0
M  V30 20 C -1.517375 -2.612237 1.475289 0
M  V30 21 C -2.835071 -2.973426 1.290392 0
M  V30 22 O -3.742998 -2.774055 2.147341 0
M  V30 23 C -3.148188 -3.579375 0.104247 0
M  V30 24 C -4.524366 -3.987486 -0.156761 0
M  V30 25 O -5.389775 -3.762177 0.737445 0
M  V30 26 O -4.900001 -4.603067 -1.335165 0
M  V30 27 C -2.146925 -3.787336 -0.814651 0
M  V30 28 N -0.858558 -3.437759 -0.641710 0
M  V30 29 C 0.173735 -3.672383 -1.633485 0
M  V30 30 C 0.509701 -2.550155 -2.563807 0
M  V30 31 C -0.247228 -3.700566 -3.116641 0
M  V30 32 H -3.042767 -1.106366 3.639218 0
M  V30 33 H -2.337992 -2.077737 4.686459 0
M  V30 34 H 2.818926 -2.298420 2.658559 0
M  V30 35 H 2.846138 -0.019118 0.728717 0
M  V30 36 H 4.016720 -0.202898 2.039451 0
M  V30 37 H 1.171528 0.896163 2.394102 0
M  V30 38 H 2.457895 0.874382 3.594189 0
M  V30 39 H 3.922756 2.271653 2.312587 0
M  V30 40 H 2.456226 3.154183 2.724742 0
M  V30 41 H 3.266087 1.972819 0.019749 0
M  V30 42 H 3.211075 3.653410 0.534366 0
M  V30 43 H 1.238787 4.862334 0.712871 0
M  V30 44 H -0.989875 5.283967 -0.066687 0
M  V30 45 H -2.314322 3.424996 -1.136969 0
M  V30 46 H -1.289010 1.216290 -1.358165 0
M  V30 47 H 1.022473 0.822140 -0.539008 0
M  V30 48 H -5.873844 -4.579727 -1.669066 0
M  V30 49 H -2.445573 -4.268590 -1.733624 0
M  V30 50 H 0.955256 -4.428117 -1.395704 0
M  V30 51 H 1.548769 -2.411222 -2.922112 0
M  V30 52 H -0.032712 -1.593386 -2.403112 0
M  V30 53 H 0.302324 -4.387513 -3.794734 0
M  V30 54 H -1.332120 -3.600992 -3.316022 0
M  V30 END ATOM
M  V30 BEGIN BOND
M  V30 1 1 1 2
M  V30 2 2 2 3
M  V30 3 1 3 4
M  V30 4 1 3 5
M  V30 5 1 5 6
M  V30 6 1 6 7
M  V30 7 1 7 8
M  V30 8 1 8 9
M  V30 9 1 9 10
M  V30 10 1 10 11
M  V30 11 2 11 12
M  V30 12 1 12 13
M  V30 13 2 13 14
M  V30 14 1 14 15
M  V30 15 2 15 16
M  V30 16 2 5 17
M  V30 17 1 17 18
M  V30 18 1 17 19
M  V30 19 2 19 20
M  V30 20 1 20 21
M  V30 21 2 21 22
M  V30 22 1 21 23
M  V30 23 1 23 24
M  V30 24 2 24 25
M  V30 25 1 24 26
M  V30 26 2 23 27
M  V30 27 1 27 28
M  V30 28 1 28 29
M  V30 29 1 29 30
M  V30 30 1 30 31
M  V30 31 1 20 2
M  V30 32 1 31 29
M  V30 33 1 16 11
M  V30 34 1 28 19
M  V30 35 1 1 32
M  V30 36 1 1 33
M  V30 37 1 6 34
M  V30 38 1 7 35
M  V30 39 1 7 36
M  V30 40 1 8 37
M  V30 41 1 8 38
M  V30 42 1 9 39
M  V30 43 1 9 40
M  V30 44 1 10 41
M  V30 45 1 10 42
M  V30 46 1 12 43
M  V30 47 1 13 44
M  V30 48 1 14 45
M  V30 49 1 15 46
M  V30 50 1 16 47
M  V30 51 1 26 48
M  V30 52 1 27 49
M  V30 53 1 29 50
M  V30 54 1 30 51
M  V30 55 1 30 52
M  V30 56 1 31 53
M  V30 57 1 31 54
M  V30 END BOND
M  V30 END CTAB
M  END
>  <Dataset>  (591) 
ChEMBL_Kinases

>  <Ligand_Instance>  (591) 
nan

>  <PDB_ID>  (591) 
nan

>  <Standardized_SMILES>  (591) 
Nc1c(F)c(NCCCCc2ccccc2)c(F)c2c1c(=O)c(C(=O)O)cn2C1CC1

>  <Name>  (591) 
nan

>  <Pocket>  (591) 
nan

>  <ATP_Site>  (591) 
nan

>  <Peripheral>  (591) 
nan

>  <Num_H_Atoms_ProtBoundConf>  (591) 
nan

>  <Num_Resolved_Atoms>  (591) 
nan

>  <Num_Not_Resolved_Atoms>  (591) 
nan

$$$$
CHEMBL1834114
     RDKit          3D

  0  0  0  0  0  0  0  0  0  0999 V3000
M  V30 BEGIN CTAB
M  V30 COUNTS 51 54 0 0 0
M  V30 BEGIN ATOM
M  V30 1 N -1.312795 -1.873310 4.160555 0
M  V30 2 C -0.685781 -1.842024 2.905757 0
M  V30 3 C 0.652005 -1.531042 2.723357 0
M  V30 4 F 1.388167 -1.241992 3.843146 0
M  V30 5 C 1.264147 -1.503355 1.468130 0
M  V30 6 N 2.633237 -1.177087 1.303821 0
M  V30 7 C 3.591691 -0.142234 1.087879 0
M  V30 8 C 3.655939 0.933385 2.102666 0
M  V30 9 C 2.437886 1.749314 2.315411 0
M  V30 10 C 1.956033 2.496027 1.148089 0
M  V30 11 C 2.433322 3.775075 0.929203 0
M  V30 12 C 2.064824 4.580240 -0.120337 0
M  V30 13 C 1.156620 4.125200 -1.048861 0
M  V30 14 C 0.656163 2.856000 -0.868168 0
M  V30 15 C 1.049155 2.075171 0.198260 0
M  V30 16 C 0.483528 -1.803367 0.365531 0
M  V30 17 F 1.060103 -1.783095 -0.874066 0
M  V30 18 C -0.870962 -2.128500 0.445495 0
M  V30 19 C -1.348157 -2.119142 1.738298 0
M  V30 20 C -2.703668 -2.439339 1.867328 0
M  V30 21 O -3.259171 -2.465935 2.988998 0
M  V30 22 C -3.498757 -2.739562 0.794636 0
M  V30 23 C -4.915667 -3.075484 0.916298 0
M  V30 24 O -5.644056 -3.351016 -0.071160 0
M  V30 25 O -5.459749 -3.082273 2.210682 0
M  V30 26 C -2.948794 -2.727690 -0.463518 0
M  V30 27 N -1.641774 -2.420648 -0.605386 0
M  V30 28 C -1.008328 -2.391237 -1.893075 0
M  V30 29 C -1.641341 -3.306909 -2.921497 0
M  V30 30 C -0.283657 -3.569371 -2.424138 0
M  V30 31 H -1.663142 -2.626282 4.797781 0
M  V30 32 H -1.598544 -1.089140 4.801844 0
M  V30 33 H 2.930647 -2.196633 1.405681 0
M  V30 34 H 4.596773 -0.629364 1.067571 0
M  V30 35 H 3.439521 0.224949 0.049000 0
M  V30 36 H 4.483270 1.617336 1.840153 0
M  V30 37 H 3.944692 0.481814 3.073652 0
M  V30 38 H 2.701583 2.506803 3.111127 0
M  V30 39 H 1.567328 1.213840 2.746273 0
M  V30 40 H 3.158319 4.214041 1.618915 0
M  V30 41 H 2.446018 5.576149 -0.277688 0
M  V30 42 H 0.775709 4.629438 -1.910767 0
M  V30 43 H -0.074519 2.396246 -1.551462 0
M  V30 44 H 0.645707 1.080999 0.326463 0
M  V30 45 H -6.369770 -3.432577 2.399444 0
M  V30 46 H -3.570589 -2.964020 -1.317958 0
M  V30 47 H -0.819404 -1.362564 -2.267480 0
M  V30 48 H -1.730950 -2.929645 -3.970568 0
M  V30 49 H -2.416001 -4.035575 -2.625271 0
M  V30 50 H 0.571202 -3.316896 -3.107107 0
M  V30 51 H -0.030309 -4.361425 -1.708278 0
M  V30 END ATOM
M  V30 BEGIN BOND
M  V30 1 1 1 2
M  V30 2 2 2 3
M  V30 3 1 3 4
M  V30 4 1 3 5
M  V30 5 1 5 6
M  V30 6 1 6 7
M  V30 7 1 7 8
M  V30 8 1 8 9
M  V30 9 1 9 10
M  V30 10 2 10 11
M  V30 11 1 11 12
M  V30 12 2 12 13
M  V30 13 1 13 14
M  V30 14 2 14 15
M  V30 15 2 5 16
M  V30 16 1 16 17
M  V30 17 1 16 18
M  V30 18 2 18 19
M  V30 19 1 19 20
M  V30 20 2 20 21
M  V30 21 1 20 22
M  V30 22 1 22 23
M  V30 23 2 23 24
M  V30 24 1 23 25
M  V30 25 2 22 26
M  V30 26 1 26 27
M  V30 27 1 27 28
M  V30 28 1 28 29
M  V30 29 1 29 30
M  V30 30 1 19 2
M  V30 31 1 30 28
M  V30 32 1 15 10
M  V30 33 1 27 18
M  V30 34 1 1 31
M  V30 35 1 1 32
M  V30 36 1 6 33
M  V30 37 1 7 34
M  V30 38 1 7 35
M  V30 39 1 8 36
M  V30 40 1 8 37
M  V30 41 1 9 38
M  V30 42 1 9 39
M  V30 43 1 11 40
M  V30 44 1 12 41
M  V30 45 1 13 42
M  V30 46 1 14 43
M  V30 47 1 15 44
M  V30 48 1 25 45
M  V30 49 1 26 46
M  V30 50 1 28 47
M  V30 51 1 29 48
M  V30 52 1 29 49
M  V30 53 1 30 50
M  V30 54 1 30 51
M  V30 END BOND
M  V30 END CTAB
M  END
>  <Dataset>  (592) 
ChEMBL_Kinases

>  <Ligand_Instance>  (592) 
nan

>  <PDB_ID>  (592) 
nan

>  <Standardized_SMILES>  (592) 
Nc1c(F)c(NCCCc2ccccc2)c(F)c2c1c(=O)c(C(=O)O)cn2C1CC1

>  <Name>  (592) 
nan

>  <Pocket>  (592) 
nan

>  <ATP_Site>  (592) 
nan

>  <Peripheral>  (592) 
nan

>  <Num_H_Atoms_ProtBoundConf>  (592) 
nan

>  <Num_Resolved_Atoms>  (592) 
nan

>  <Num_Not_Resolved_Atoms>  (592) 
nan

$$$$
CHEMBL1834113
     RDKit          3D

  0  0  0  0  0  0  0  0  0  0999 V3000
M  V30 BEGIN CTAB
M  V30 COUNTS 48 51 0 0 0
M  V30 BEGIN ATOM
M  V30 1 N -0.802956 -0.081211 5.095820 0
M  V30 2 C -0.605456 -0.288707 3.706973 0
M  V30 3 C 0.601173 0.058393 3.135825 0
M  V30 4 F 1.586412 0.590776 3.896598 0
M  V30 5 C 0.822051 -0.135596 1.760619 0
M  V30 6 N 2.057154 0.210442 1.150135 0
M  V30 7 C 3.357316 -0.330136 0.820200 0
M  V30 8 C 4.269256 0.656424 0.140681 0
M  V30 9 C 3.772507 1.184449 -1.129048 0
M  V30 10 C 4.150595 0.403027 -2.213625 0
M  V30 11 C 3.753789 0.775640 -3.504541 0
M  V30 12 C 2.987323 1.921881 -3.684248 0
M  V30 13 C 2.616011 2.696757 -2.579809 0
M  V30 14 C 3.014741 2.318571 -1.302354 0
M  V30 15 C -0.192198 -0.681739 0.986968 0
M  V30 16 F -0.034681 -0.891153 -0.361374 0
M  V30 17 C -1.412278 -1.043742 1.511907 0
M  V30 18 C -1.553803 -0.824859 2.858929 0
M  V30 19 C -2.736645 -1.144352 3.521894 0
M  V30 20 O -2.978751 -0.985038 4.765147 0
M  V30 21 C -3.777956 -1.689778 2.802971 0
M  V30 22 C -5.033533 -2.049111 3.419249 0
M  V30 23 O -6.080916 -2.547180 2.935691 0
M  V30 24 O -5.438931 -1.943958 4.733620 0
M  V30 25 C -3.619894 -1.903149 1.453073 0
M  V30 26 N -2.463585 -1.578681 0.865939 0
M  V30 27 C -2.248800 -1.792817 -0.566029 0
M  V30 28 C -3.013952 -3.010741 -1.108166 0
M  V30 29 C -1.558706 -3.042503 -0.965022 0
M  V30 30 H -0.944151 0.735829 5.729477 0
M  V30 31 H -0.828105 -0.908799 5.731914 0
M  V30 32 H 1.755115 1.206755 0.928358 0
M  V30 33 H 3.826583 -0.690648 1.755086 0
M  V30 34 H 3.209967 -1.238209 0.193936 0
M  V30 35 H 5.252893 0.161338 0.058340 0
M  V30 36 H 4.417672 1.486171 0.866427 0
M  V30 37 H 4.733343 -0.495524 -2.235183 0
M  V30 38 H 4.011499 0.213252 -4.409536 0
M  V30 39 H 2.619340 2.318717 -4.596846 0
M  V30 40 H 2.021821 3.598348 -2.648892 0
M  V30 41 H 2.749518 2.894269 -0.428188 0
M  V30 42 H -5.613485 -2.744801 5.353068 0
M  V30 43 H -4.440038 -2.327622 0.905532 0
M  V30 44 H -2.318902 -0.925419 -1.249811 0
M  V30 45 H -3.446534 -2.948828 -2.129756 0
M  V30 46 H -3.645848 -3.610440 -0.443819 0
M  V30 47 H -0.943299 -3.097304 -1.885675 0
M  V30 48 H -1.108652 -3.646208 -0.147730 0
M  V30 END ATOM
M  V30 BEGIN BOND
M  V30 1 1 1 2
M  V30 2 2 2 3
M  V30 3 1 3 4
M  V30 4 1 3 5
M  V30 5 1 5 6
M  V30 6 1 6 7
M  V30 7 1 7 8
M  V30 8 1 8 9
M  V30 9 2 9 10
M  V30 10 1 10 11
M  V30 11 2 11 12
M  V30 12 1 12 13
M  V30 13 2 13 14
M  V30 14 2 5 15
M  V30 15 1 15 16
M  V30 16 1 15 17
M  V30 17 2 17 18
M  V30 18 1 18 19
M  V30 19 2 19 20
M  V30 20 1 19 21
M  V30 21 1 21 22
M  V30 22 2 22 23
M  V30 23 1 22 24
M  V30 24 2 21 25
M  V30 25 1 25 26
M  V30 26 1 26 27
M  V30 27 1 27 28
M  V30 28 1 28 29
M  V30 29 1 18 2
M  V30 30 1 29 27
M  V30 31 1 14 9
M  V30 32 1 26 17
M  V30 33 1 1 30
M  V30 34 1 1 31
M  V30 35 1 6 32
M  V30 36 1 7 33
M  V30 37 1 7 34
M  V30 38 1 8 35
M  V30 39 1 8 36
M  V30 40 1 10 37
M  V30 41 1 11 38
M  V30 42 1 12 39
M  V30 43 1 13 40
M  V30 44 1 14 41
M  V30 45 1 24 42
M  V30 46 1 25 43
M  V30 47 1 27 44
M  V30 48 1 28 45
M  V30 49 1 28 46
M  V30 50 1 29 47
M  V30 51 1 29 48
M  V30 END BOND
M  V30 END CTAB
M  END
>  <Dataset>  (593) 
ChEMBL_Kinases

>  <Ligand_Instance>  (593) 
nan

>  <PDB_ID>  (593) 
nan

>  <Standardized_SMILES>  (593) 
Nc1c(F)c(NCCc2ccccc2)c(F)c2c1c(=O)c(C(=O)O)cn2C1CC1

>  <Name>  (593) 
nan

>  <Pocket>  (593) 
nan

>  <ATP_Site>  (593) 
nan

>  <Peripheral>  (593) 
nan

>  <Num_H_Atoms_ProtBoundConf>  (593) 
nan

>  <Num_Resolved_Atoms>  (593) 
nan

>  <Num_Not_Resolved_Atoms>  (593) 
nan

$$$$
CHEMBL1834112
     RDKit          3D

  0  0  0  0  0  0  0  0  0  0999 V3000
M  V30 BEGIN CTAB
M  V30 COUNTS 51 54 0 0 0
M  V30 BEGIN ATOM
M  V30 1 N 0.673981 -4.582466 2.951243 0
M  V30 2 C 0.268104 -3.480682 2.145595 0
M  V30 3 C 1.170253 -2.505352 1.773568 0
M  V30 4 F 2.454599 -2.630759 2.200127 0
M  V30 5 C 0.850711 -1.408249 0.994225 0
M  V30 6 N 1.831946 -0.435584 0.645254 0
M  V30 7 C 1.505041 0.721307 -0.173818 0
M  V30 8 C 2.745816 1.560147 -0.368207 0
M  V30 9 N 3.289070 2.033803 0.882554 0
M  V30 10 C 4.468844 2.821419 0.573430 0
M  V30 11 C 4.203615 4.033042 -0.221841 0
M  V30 12 O 2.958943 4.531935 -0.241583 0
M  V30 13 C 2.016586 4.034259 0.589999 0
M  V30 14 C 2.402478 2.974980 1.543231 0
M  V30 15 C -0.449686 -1.324681 0.589753 0
M  V30 16 F -0.831555 -0.263180 -0.183951 0
M  V30 17 C -1.423044 -2.242719 0.906334 0
M  V30 18 C -1.028726 -3.326601 1.697550 0
M  V30 19 C -1.918107 -4.317470 2.082838 0
M  V30 20 O -1.587602 -5.294571 2.789355 0
M  V30 21 C -3.219474 -4.210130 1.663083 0
M  V30 22 C -4.217327 -5.212370 2.026215 0
M  V30 23 O -5.429514 -5.210207 1.697003 0
M  V30 24 O -3.826445 -6.294050 2.815115 0
M  V30 25 C -3.557919 -3.127104 0.887520 0
M  V30 26 N -2.716729 -2.145680 0.495164 0
M  V30 27 C -3.103923 -1.026688 -0.316304 0
M  V30 28 C -4.281634 -1.301798 -1.252449 0
M  V30 29 C -2.908674 -1.056990 -1.812947 0
M  V30 30 H 0.694505 -5.302426 2.211737 0
M  V30 31 H 0.697683 -5.317186 2.210845 0
M  V30 32 H 2.807036 -0.572598 0.995475 0
M  V30 33 H 0.735861 1.349183 0.289019 0
M  V30 34 H 1.145140 0.432914 -1.182508 0
M  V30 35 H 3.514669 0.902304 -0.825038 0
M  V30 36 H 2.514416 2.348102 -1.095486 0
M  V30 37 H 4.921621 3.108284 1.561583 0
M  V30 38 H 5.221367 2.136570 0.099699 0
M  V30 39 H 4.913502 4.843211 0.117830 0
M  V30 40 H 4.541489 3.843954 -1.282692 0
M  V30 41 H 1.612473 4.904223 1.186929 0
M  V30 42 H 1.142079 3.696441 -0.003610 0
M  V30 43 H 1.493274 2.485036 1.938043 0
M  V30 44 H 2.994529 3.427671 2.368399 0
M  V30 45 H -4.509488 -6.781618 3.389290 0
M  V30 46 H -4.590710 -3.071175 0.572876 0
M  V30 47 H -3.090809 -0.019969 0.142505 0
M  V30 48 H -5.009408 -0.485017 -1.385833 0
M  V30 49 H -4.710885 -2.307609 -1.315169 0
M  V30 50 H -2.715786 -0.125729 -2.356649 0
M  V30 51 H -2.414482 -1.934834 -2.290637 0
M  V30 END ATOM
M  V30 BEGIN BOND
M  V30 1 1 1 2
M  V30 2 2 2 3
M  V30 3 1 3 4
M  V30 4 1 3 5
M  V30 5 1 5 6
M  V30 6 1 6 7
M  V30 7 1 7 8
M  V30 8 1 8 9
M  V30 9 1 9 10
M  V30 10 1 10 11
M  V30 11 1 11 12
M  V30 12 1 12 13
M  V30 13 1 13 14
M  V30 14 2 5 15
M  V30 15 1 15 16
M  V30 16 1 15 17
M  V30 17 2 17 18
M  V30 18 1 18 19
M  V30 19 2 19 20
M  V30 20 1 19 21
M  V30 21 1 21 22
M  V30 22 2 22 23
M  V30 23 1 22 24
M  V30 24 2 21 25
M  V30 25 1 25 26
M  V30 26 1 26 27
M  V30 27 1 27 28
M  V30 28 1 28 29
M  V30 29 1 18 2
M  V30 30 1 29 27
M  V30 31 1 14 9
M  V30 32 1 26 17
M  V30 33 1 1 30
M  V30 34 1 1 31
M  V30 35 1 6 32
M  V30 36 1 7 33
M  V30 37 1 7 34
M  V30 38 1 8 35
M  V30 39 1 8 36
M  V30 40 1 10 37
M  V30 41 1 10 38
M  V30 42 1 11 39
M  V30 43 1 11 40
M  V30 44 1 13 41
M  V30 45 1 13 42
M  V30 46 1 14 43
M  V30 47 1 14 44
M  V30 48 1 24 45
M  V30 49 1 25 46
M  V30 50 1 27 47
M  V30 51 1 28 48
M  V30 52 1 28 49
M  V30 53 1 29 50
M  V30 54 1 29 51
M  V30 END BOND
M  V30 END CTAB
M  END
>  <Dataset>  (594) 
ChEMBL_Kinases

>  <Ligand_Instance>  (594) 
nan

>  <PDB_ID>  (594) 
nan

>  <Standardized_SMILES>  (594) 
Nc1c(F)c(NCCN2CCOCC2)c(F)c2c1c(=O)c(C(=O)O)cn2C1CC1

>  <Name>  (594) 
nan

>  <Pocket>  (594) 
nan

>  <ATP_Site>  (594) 
nan

>  <Peripheral>  (594) 
nan

>  <Num_H_Atoms_ProtBoundConf>  (594) 
nan

>  <Num_Resolved_Atoms>  (594) 
nan

>  <Num_Not_Resolved_Atoms>  (594) 
nan

$$$$
CHEMBL1834111
     RDKit          3D

  0  0  0  0  0  0  0  0  0  0999 V3000
M  V30 BEGIN CTAB
M  V30 COUNTS 52 56 0 0 0
M  V30 BEGIN ATOM
M  V30 1 N -0.966682 -2.520086 4.192708 0
M  V30 2 C -0.531899 -2.330861 2.854646 0
M  V30 3 C 0.689224 -1.765716 2.544850 0
M  V30 4 F 1.434026 -1.426269 3.630474 0
M  V30 5 C 1.201072 -1.538756 1.289627 0
M  V30 6 N 2.439205 -0.950622 1.009584 0
M  V30 7 C 3.484185 -0.408754 1.782982 0
M  V30 8 C 3.290877 0.908896 2.438791 0
M  V30 9 C 3.031151 2.019135 1.489940 0
M  V30 10 C 4.034886 2.897563 1.054920 0
M  V30 11 N 3.577622 3.809916 0.175228 0
M  V30 12 C 2.270580 3.558019 0.009914 0
M  V30 13 C 1.263612 4.131034 -0.738855 0
M  V30 14 C -0.030172 3.654715 -0.706557 0
M  V30 15 C -0.364789 2.559656 0.098918 0
M  V30 16 C 0.649586 1.995349 0.842266 0
M  V30 17 C 1.931896 2.476197 0.802126 0
M  V30 18 C 0.356757 -1.941150 0.284703 0
M  V30 19 F 0.746039 -1.773232 -1.023330 0
M  V30 20 C -0.876400 -2.513093 0.492012 0
M  V30 21 C -1.312822 -2.704044 1.785540 0
M  V30 22 C -2.555674 -3.280518 2.041853 0
M  V30 23 O -2.933085 -3.444744 3.229660 0
M  V30 24 C -3.301935 -3.639056 0.941729 0
M  V30 25 C -4.608001 -4.245225 1.159069 0
M  V30 26 O -5.113653 -4.469624 2.283894 0
M  V30 27 O -5.402406 -4.625839 0.060732 0
M  V30 28 C -2.847888 -3.440051 -0.336582 0
M  V30 29 N -1.631399 -2.875331 -0.568251 0
M  V30 30 C -1.195341 -2.684960 -1.936263 0
M  V30 31 C -1.403639 -1.379130 -2.632243 0
M  V30 32 C -2.310901 -2.516932 -2.936868 0
M  V30 33 H -0.585030 -3.332517 4.727181 0
M  V30 34 H -1.630108 -1.998502 4.819830 0
M  V30 35 H 2.677029 -0.877761 -0.026915 0
M  V30 36 H 4.472490 -0.444377 1.269309 0
M  V30 37 H 3.642274 -1.147878 2.644960 0
M  V30 38 H 4.256336 1.119315 2.994291 0
M  V30 39 H 2.493978 0.945654 3.194070 0
M  V30 40 H 5.070537 2.885404 1.360664 0
M  V30 41 H 4.114213 4.556525 -0.285169 0
M  V30 42 H 1.503001 4.985818 -1.373195 0
M  V30 43 H -0.845825 4.075952 -1.278347 0
M  V30 44 H -1.377030 2.161033 0.146274 0
M  V30 45 H 0.388675 1.169375 1.460926 0
M  V30 46 H -6.003347 -5.463105 0.092442 0
M  V30 47 H -3.492313 -3.749616 -1.138660 0
M  V30 48 H -0.360152 -3.323695 -2.313738 0
M  V30 49 H -0.650472 -1.107566 -3.400291 0
M  V30 50 H -1.752450 -0.546511 -1.976429 0
M  V30 51 H -3.354314 -2.356762 -2.611253 0
M  V30 52 H -2.217184 -2.983816 -3.939480 0
M  V30 END ATOM
M  V30 BEGIN BOND
M  V30 1 1 1 2
M  V30 2 2 2 3
M  V30 3 1 3 4
M  V30 4 1 3 5
M  V30 5 1 5 6
M  V30 6 1 6 7
M  V30 7 1 7 8
M  V30 8 1 8 9
M  V30 9 2 9 10
M  V30 10 1 10 11
M  V30 11 1 11 12
M  V30 12 2 12 13
M  V30 13 1 13 14
M  V30 14 2 14 15
M  V30 15 1 15 16
M  V30 16 2 16 17
M  V30 17 2 5 18
M  V30 18 1 18 19
M  V30 19 1 18 20
M  V30 20 2 20 21
M  V30 21 1 21 22
M  V30 22 2 22 23
M  V30 23 1 22 24
M  V30 24 1 24 25
M  V30 25 2 25 26
M  V30 26 1 25 27
M  V30 27 2 24 28
M  V30 28 1 28 29
M  V30 29 1 29 30
M  V30 30 1 30 31
M  V30 31 1 31 32
M  V30 32 1 21 2
M  V30 33 1 32 30
M  V30 34 1 17 9
M  V30 35 1 29 20
M  V30 36 1 17 12
M  V30 37 1 1 33
M  V30 38 1 1 34
M  V30 39 1 6 35
M  V30 40 1 7 36
M  V30 41 1 7 37
M  V30 42 1 8 38
M  V30 43 1 8 39
M  V30 44 1 10 40
M  V30 45 1 11 41
M  V30 46 1 13 42
M  V30 47 1 14 43
M  V30 48 1 15 44
M  V30 49 1 16 45
M  V30 50 1 27 46
M  V30 51 1 28 47
M  V30 52 1 30 48
M  V30 53 1 31 49
M  V30 54 1 31 50
M  V30 55 1 32 51
M  V30 56 1 32 52
M  V30 END BOND
M  V30 END CTAB
M  END
>  <Dataset>  (595) 
ChEMBL_Kinases

>  <Ligand_Instance>  (595) 
nan

>  <PDB_ID>  (595) 
nan

>  <Standardized_SMILES>  (595) 
Nc1c(F)c(NCCc2c[nH]c3ccccc23)c(F)c2c1c(=O)c(C(=O)O)cn2C1CC1

>  <Name>  (595) 
nan

>  <Pocket>  (595) 
nan

>  <ATP_Site>  (595) 
nan

>  <Peripheral>  (595) 
nan

>  <Num_H_Atoms_ProtBoundConf>  (595) 
nan

>  <Num_Resolved_Atoms>  (595) 
nan

>  <Num_Not_Resolved_Atoms>  (595) 
nan

$$$$
CHEMBL1834110
     RDKit          3D

  0  0  0  0  0  0  0  0  0  0999 V3000
M  V30 BEGIN CTAB
M  V30 COUNTS 48 51 0 0 0
M  V30 BEGIN ATOM
M  V30 1 N 0.032221 -1.872439 4.721298 0
M  V30 2 C -0.086626 -1.505210 3.348386 0
M  V30 3 C 1.105832 -1.195937 2.740732 0
M  V30 4 F 2.301074 -1.236996 3.395923 0
M  V30 5 C 1.102763 -0.822346 1.394152 0
M  V30 6 N 2.299452 -0.501737 0.687265 0
M  V30 7 C 2.523595 -0.050164 -0.683916 0
M  V30 8 C 1.997318 1.326189 -0.816245 0
M  V30 9 C 2.955202 2.429956 -1.045675 0
M  V30 10 C 4.392470 2.079773 -1.183970 0
M  V30 11 C 4.765438 0.847974 -0.386754 0
M  V30 12 C 3.953557 -0.271904 -1.020086 0
M  V30 13 C -0.132275 -0.796563 0.775152 0
M  V30 14 F -0.279976 -0.468748 -0.529019 0
M  V30 15 C -1.321777 -1.109368 1.397659 0
M  V30 16 C -1.315905 -1.477291 2.726126 0
M  V30 17 C -2.418554 -1.816759 3.481652 0
M  V30 18 O -2.306055 -2.137351 4.684782 0
M  V30 19 C -3.625289 -1.773756 2.814617 0
M  V30 20 C -4.855148 -2.114396 3.520402 0
M  V30 21 O -4.793803 -2.443671 4.733220 0
M  V30 22 O -6.069559 -2.065522 2.828830 0
M  V30 23 C -3.652391 -1.408011 1.484992 0
M  V30 24 N -2.523304 -1.083911 0.796070 0
M  V30 25 C -2.611006 -0.706452 -0.601302 0
M  V30 26 C -3.738910 -1.391714 -1.416075 0
M  V30 27 C -2.354808 -1.806007 -1.654181 0
M  V30 28 H -0.046023 -1.465606 5.683074 0
M  V30 29 H 0.279493 -2.894017 4.667381 0
M  V30 30 H 3.165930 -0.619360 1.289656 0
M  V30 31 H 1.907075 -0.769805 -1.298996 0
M  V30 32 H 1.312217 1.577022 0.051134 0
M  V30 33 H 1.291410 1.342713 -1.702357 0
M  V30 34 H 2.896858 3.128312 -0.154757 0
M  V30 35 H 2.643360 3.113359 -1.893993 0
M  V30 36 H 5.068056 2.939147 -0.920987 0
M  V30 37 H 4.584520 1.823448 -2.261086 0
M  V30 38 H 4.462366 1.031949 0.661668 0
M  V30 39 H 5.858852 0.692021 -0.499223 0
M  V30 40 H 4.063408 -0.147019 -2.122348 0
M  V30 41 H 4.322187 -1.260131 -0.754588 0
M  V30 42 H -6.950166 -2.117205 3.332412 0
M  V30 43 H -4.629284 -1.394426 1.021478 0
M  V30 44 H -2.386144 0.340761 -0.894752 0
M  V30 45 H -4.429513 -2.057171 -0.897480 0
M  V30 46 H -4.191903 -0.742848 -2.218804 0
M  V30 47 H -2.047168 -2.800034 -1.237982 0
M  V30 48 H -1.775046 -1.515959 -2.548758 0
M  V30 END ATOM
M  V30 BEGIN BOND
M  V30 1 1 1 2
M  V30 2 2 2 3
M  V30 3 1 3 4
M  V30 4 1 3 5
M  V30 5 1 5 6
M  V30 6 1 6 7
M  V30 7 1 7 8
M  V30 8 1 8 9
M  V30 9 1 9 10
M  V30 10 1 10 11
M  V30 11 1 11 12
M  V30 12 2 5 13
M  V30 13 1 13 14
M  V30 14 1 13 15
M  V30 15 2 15 16
M  V30 16 1 16 17
M  V30 17 2 17 18
M  V30 18 1 17 19
M  V30 19 1 19 20
M  V30 20 2 20 21
M  V30 21 1 20 22
M  V30 22 2 19 23
M  V30 23 1 23 24
M  V30 24 1 24 25
M  V30 25 1 25 26
M  V30 26 1 26 27
M  V30 27 1 16 2
M  V30 28 1 27 25
M  V30 29 1 12 7
M  V30 30 1 24 15
M  V30 31 1 1 28
M  V30 32 1 1 29
M  V30 33 1 6 30
M  V30 34 1 7 31
M  V30 35 1 8 32
M  V30 36 1 8 33
M  V30 37 1 9 34
M  V30 38 1 9 35
M  V30 39 1 10 36
M  V30 40 1 10 37
M  V30 41 1 11 38
M  V30 42 1 11 39
M  V30 43 1 12 40
M  V30 44 1 12 41
M  V30 45 1 22 42
M  V30 46 1 23 43
M  V30 47 1 25 44
M  V30 48 1 26 45
M  V30 49 1 26 46
M  V30 50 1 27 47
M  V30 51 1 27 48
M  V30 END BOND
M  V30 END CTAB
M  END
>  <Dataset>  (596) 
ChEMBL_Kinases

>  <Ligand_Instance>  (596) 
nan

>  <PDB_ID>  (596) 
nan

>  <Standardized_SMILES>  (596) 
Nc1c(F)c(NC2CCCCC2)c(F)c2c1c(=O)c(C(=O)O)cn2C1CC1

>  <Name>  (596) 
nan

>  <Pocket>  (596) 
nan

>  <ATP_Site>  (596) 
nan

>  <Peripheral>  (596) 
nan

>  <Num_H_Atoms_ProtBoundConf>  (596) 
nan

>  <Num_Resolved_Atoms>  (596) 
nan

>  <Num_Not_Resolved_Atoms>  (596) 
nan

$$$$
CHEMBL1834109
     RDKit          3D

  0  0  0  0  0  0  0  0  0  0999 V3000
M  V30 BEGIN CTAB
M  V30 COUNTS 41 43 0 0 0
M  V30 BEGIN ATOM
M  V30 1 C -0.311137 -5.586468 -0.021046 0
M  V30 2 C -0.359978 -4.137451 0.420589 0
M  V30 3 C -1.840098 -3.742294 0.362142 0
M  V30 4 N 0.386385 -3.266162 -0.479759 0
M  V30 5 C 0.662021 -1.853433 -0.389401 0
M  V30 6 C 1.393502 -1.213726 -1.397301 0
M  V30 7 F 1.822854 -1.945528 -2.448877 0
M  V30 8 C 1.614360 0.131449 -1.223074 0
M  V30 9 N 2.371235 0.720735 -2.296214 0
M  V30 10 C 1.169529 0.841971 -0.153325 0
M  V30 11 C 1.488617 2.183949 -0.153410 0
M  V30 12 O 2.142356 2.761674 -1.052074 0
M  V30 13 C 1.048452 2.946937 0.928274 0
M  V30 14 C 1.334909 4.377897 1.021651 0
M  V30 15 O 0.980433 5.146130 1.956369 0
M  V30 16 O 2.063534 4.962781 -0.004515 0
M  V30 17 C 0.331501 2.281381 1.900741 0
M  V30 18 N 0.027399 0.970248 1.887698 0
M  V30 19 C -0.729238 0.320800 2.938748 0
M  V30 20 C -0.567597 0.961970 4.326887 0
M  V30 21 C 0.018777 -0.368861 4.016504 0
M  V30 22 C 0.447566 0.226936 0.848646 0
M  V30 23 C 0.212134 -1.124100 0.697459 0
M  V30 24 F -0.493656 -1.687383 1.705399 0
M  V30 25 H -0.915678 -6.145706 0.722500 0
M  V30 26 H -0.810671 -5.669035 -0.990794 0
M  V30 27 H 0.705468 -6.014857 0.020564 0
M  V30 28 H 0.007345 -3.988473 1.453627 0
M  V30 29 H -2.262127 -3.681501 1.384346 0
M  V30 30 H -1.985717 -2.800842 -0.219818 0
M  V30 31 H -2.430877 -4.518282 -0.208161 0
M  V30 32 H 0.783242 -3.756412 -1.328481 0
M  V30 33 H 3.425967 0.620434 -2.284661 0
M  V30 34 H 1.577006 1.137561 -2.863067 0
M  V30 35 H 2.691341 5.759810 0.167891 0
M  V30 36 H 0.008087 2.907955 2.720200 0
M  V30 37 H -1.798432 0.049063 2.726583 0
M  V30 38 H 0.047102 1.852551 4.453190 0
M  V30 39 H -1.437787 0.949718 5.015873 0
M  V30 40 H 1.126914 -0.450552 3.853197 0
M  V30 41 H -0.392209 -1.256934 4.539981 0
M  V30 END ATOM
M  V30 BEGIN BOND
M  V30 1 1 1 2
M  V30 2 1 2 3
M  V30 3 1 2 4
M  V30 4 1 4 5
M  V30 5 2 5 6
M  V30 6 1 6 7
M  V30 7 1 6 8
M  V30 8 1 8 9
M  V30 9 2 8 10
M  V30 10 1 10 11
M  V30 11 2 11 12
M  V30 12 1 11 13
M  V30 13 1 13 14
M  V30 14 2 14 15
M  V30 15 1 14 16
M  V30 16 2 13 17
M  V30 17 1 17 18
M  V30 18 1 18 19
M  V30 19 1 19 20
M  V30 20 1 20 21
M  V30 21 1 18 22
M  V30 22 2 22 23
M  V30 23 1 23 24
M  V30 24 1 23 5
M  V30 25 1 22 10
M  V30 26 1 21 19
M  V30 27 1 1 25
M  V30 28 1 1 26
M  V30 29 1 1 27
M  V30 30 1 2 28
M  V30 31 1 3 29
M  V30 32 1 3 30
M  V30 33 1 3 31
M  V30 34 1 4 32
M  V30 35 1 9 33
M  V30 36 1 9 34
M  V30 37 1 16 35
M  V30 38 1 17 36
M  V30 39 1 19 37
M  V30 40 1 20 38
M  V30 41 1 20 39
M  V30 42 1 21 40
M  V30 43 1 21 41
M  V30 END BOND
M  V30 END CTAB
M  END
>  <Dataset>  (597) 
ChEMBL_Kinases

>  <Ligand_Instance>  (597) 
nan

>  <PDB_ID>  (597) 
nan

>  <Standardized_SMILES>  (597) 
CC(C)Nc1c(F)c(N)c2c(=O)c(C(=O)O)cn(C3CC3)c2c1F

>  <Name>  (597) 
nan

>  <Pocket>  (597) 
nan

>  <ATP_Site>  (597) 
nan

>  <Peripheral>  (597) 
nan

>  <Num_H_Atoms_ProtBoundConf>  (597) 
nan

>  <Num_Resolved_Atoms>  (597) 
nan

>  <Num_Not_Resolved_Atoms>  (597) 
nan

$$$$
CHEMBL1834040
     RDKit          3D

  0  0  0  0  0  0  0  0  0  0999 V3000
M  V30 BEGIN CTAB
M  V30 COUNTS 36 38 0 0 0
M  V30 BEGIN ATOM
M  V30 1 N 1.854415 -6.427184 0.031499 0
M  V30 2 C 1.479401 -5.386846 0.930868 0
M  V30 3 N 1.123262 -5.677399 2.211487 0
M  V30 4 C 0.760279 -4.719237 3.098319 0
M  V30 5 N 0.387853 -5.027094 4.438853 0
M  V30 6 N 0.765092 -3.438213 2.655012 0
M  V30 7 C 1.112910 -3.121302 1.393256 0
M  V30 8 C 1.099826 -1.721125 0.969774 0
M  V30 9 C 1.456308 -1.394323 -0.324085 0
M  V30 10 C 1.454746 -0.083297 -0.756084 0
M  V30 11 C 1.091897 0.924475 0.113436 0
M  V30 12 O 1.003645 2.297783 -0.053440 0
M  V30 13 C -0.172451 2.922291 -0.442142 0
M  V30 14 C -0.551448 3.825649 0.559113 0
M  V30 15 C -1.707799 4.597874 0.430717 0
M  V30 16 C -2.480285 4.470371 -0.687350 0
M  V30 17 C -2.101777 3.590127 -1.652122 0
M  V30 18 C -0.975119 2.818253 -1.558307 0
M  V30 19 N -0.464677 1.868964 -2.479242 0
M  V30 20 C 0.732818 0.595768 1.416788 0
M  V30 21 C 0.732670 -0.732768 1.860541 0
M  V30 22 N 1.470094 -4.082530 0.526719 0
M  V30 23 H 1.097619 -6.421609 -0.698486 0
M  V30 24 H 2.693857 -7.064015 0.074682 0
M  V30 25 H -0.570407 -5.341618 4.764974 0
M  V30 26 H 1.106347 -4.944025 5.193270 0
M  V30 27 H 1.751306 -2.124563 -1.061096 0
M  V30 28 H 1.711722 0.304256 -1.730615 0
M  V30 29 H -0.040792 4.040810 1.508198 0
M  V30 30 H -2.046253 5.309175 1.171753 0
M  V30 31 H -3.396889 5.043806 -0.851178 0
M  V30 32 H -2.664855 3.438721 -2.560917 0
M  V30 33 H -0.534334 0.851211 -2.668356 0
M  V30 34 H 0.148877 2.452011 -3.113171 0
M  V30 35 H 0.422465 1.270572 2.223345 0
M  V30 36 H 0.463342 -1.041843 2.858972 0
M  V30 END ATOM
M  V30 BEGIN BOND
M  V30 1 1 1 2
M  V30 2 2 2 3
M  V30 3 1 3 4
M  V30 4 1 4 5
M  V30 5 2 4 6
M  V30 6 1 6 7
M  V30 7 1 7 8
M  V30 8 2 8 9
M  V30 9 1 9 10
M  V30 10 2 10 11
M  V30 11 1 11 12
M  V30 12 1 12 13
M  V30 13 2 13 14
M  V30 14 1 14 15
M  V30 15 2 15 16
M  V30 16 1 16 17
M  V30 17 2 17 18
M  V30 18 1 18 19
M  V30 19 1 11 20
M  V30 20 2 20 21
M  V30 21 2 7 22
M  V30 22 1 22 2
M  V30 23 1 21 8
M  V30 24 1 18 13
M  V30 25 1 1 23
M  V30 26 1 1 24
M  V30 27 1 5 25
M  V30 28 1 5 26
M  V30 29 1 9 27
M  V30 30 1 10 28
M  V30 31 1 14 29
M  V30 32 1 15 30
M  V30 33 1 16 31
M  V30 34 1 17 32
M  V30 35 1 19 33
M  V30 36 1 19 34
M  V30 37 1 20 35
M  V30 38 1 21 36
M  V30 END BOND
M  V30 END CTAB
M  END
>  <Dataset>  (598) 
ChEMBL_Kinases

>  <Ligand_Instance>  (598) 
nan

>  <PDB_ID>  (598) 
nan

>  <Standardized_SMILES>  (598) 
Nc1nc(N)nc(-c2ccc(Oc3ccccc3N)cc2)n1

>  <Name>  (598) 
nan

>  <Pocket>  (598) 
nan

>  <ATP_Site>  (598) 
nan

>  <Peripheral>  (598) 
nan

>  <Num_H_Atoms_ProtBoundConf>  (598) 
nan

>  <Num_Resolved_Atoms>  (598) 
nan

>  <Num_Not_Resolved_Atoms>  (598) 
nan

$$$$
CHEMBL183354
     RDKit          3D

  0  0  0  0  0  0  0  0  0  0999 V3000
M  V30 BEGIN CTAB
M  V30 COUNTS 32 35 0 0 0
M  V30 BEGIN ATOM
M  V30 1 C -0.173158 -3.190109 3.657883 0
M  V30 2 C 0.913593 -3.836141 3.090955 0
M  V30 3 C 1.148584 -3.756510 1.730729 0
M  V30 4 C 0.257431 -3.010590 0.975972 0
M  V30 5 C 0.263019 -2.757342 -0.474591 0
M  V30 6 N 0.163730 -3.748499 -1.378353 0
M  V30 7 N 0.194136 -3.247421 -2.609706 0
M  V30 8 C 0.315486 -1.903005 -2.523104 0
M  V30 9 C 0.362393 -1.554251 -1.182537 0
M  V30 10 C 0.481776 -0.321215 -0.409609 0
M  V30 11 C 1.565056 -0.090521 0.417394 0
M  V30 12 C 1.610687 1.114753 1.127326 0
M  V30 13 C 0.554485 1.967604 0.929612 0
M  V30 14 N 0.627404 3.122818 1.628701 0
M  V30 15 C -0.366117 4.050015 1.513163 0
M  V30 16 C -1.444947 3.815235 0.686763 0
M  V30 17 C -1.562945 2.642931 -0.050969 0
M  V30 18 C -0.526117 1.748590 0.110900 0
M  V30 19 N -0.512549 0.576449 -0.542228 0
M  V30 20 N -0.798063 -2.388707 1.558110 0
M  V30 21 C -1.039197 -2.456688 2.876308 0
M  V30 22 H -0.330107 -3.272564 4.731145 0
M  V30 23 H 1.627630 -4.423306 3.636206 0
M  V30 24 H 1.929643 -4.189163 1.144406 0
M  V30 25 H 0.146339 -3.656264 -3.570192 0
M  V30 26 H 0.379485 -1.093453 -3.242657 0
M  V30 27 H 2.367399 -0.830766 0.515472 0
M  V30 28 H 2.436681 1.344038 1.788057 0
M  V30 29 H -0.354873 4.984719 2.048238 0
M  V30 30 H -2.258971 4.545552 0.575500 0
M  V30 31 H -2.394890 2.429765 -0.706251 0
M  V30 32 H -1.885136 -1.960251 3.354732 0
M  V30 END ATOM
M  V30 BEGIN BOND
M  V30 1 2 1 2
M  V30 2 1 2 3
M  V30 3 2 3 4
M  V30 4 1 4 5
M  V30 5 2 5 6
M  V30 6 1 6 7
M  V30 7 1 7 8
M  V30 8 2 8 9
M  V30 9 1 9 10
M  V30 10 2 10 11
M  V30 11 1 11 12
M  V30 12 2 12 13
M  V30 13 1 13 14
M  V30 14 2 14 15
M  V30 15 1 15 16
M  V30 16 2 16 17
M  V30 17 1 17 18
M  V30 18 2 18 19
M  V30 19 1 4 20
M  V30 20 2 20 21
M  V30 21 1 21 1
M  V30 22 1 9 5
M  V30 23 1 19 10
M  V30 24 1 18 13
M  V30 25 1 1 22
M  V30 26 1 2 23
M  V30 27 1 3 24
M  V30 28 1 7 25
M  V30 29 1 8 26
M  V30 30 1 11 27
M  V30 31 1 12 28
M  V30 32 1 15 29
M  V30 33 1 16 30
M  V30 34 1 17 31
M  V30 35 1 21 32
M  V30 END BOND
M  V30 END CTAB
M  END
>  <Dataset>  (599) 
ChEMBL_Kinases

>  <Ligand_Instance>  (599) 
nan

>  <PDB_ID>  (599) 
nan

>  <Standardized_SMILES>  (599) 
c1ccc(-c2n[nH]cc2-c2ccc3ncccc3n2)nc1

>  <Name>  (599) 
nan

>  <Pocket>  (599) 
nan

>  <ATP_Site>  (599) 
nan

>  <Peripheral>  (599) 
nan

>  <Num_H_Atoms_ProtBoundConf>  (599) 
nan

>  <Num_Resolved_Atoms>  (599) 
nan

>  <Num_Not_Resolved_Atoms>  (599) 
nan

$$$$
CHEMBL183341
     RDKit          3D

  0  0  0  0  0  0  0  0  0  0999 V3000
M  V30 BEGIN CTAB
M  V30 COUNTS 47 49 0 0 0
M  V30 BEGIN ATOM
M  V30 1 C -0.002778 -4.961851 -0.117365 0
M  V30 2 C 0.687930 -4.236276 -1.256526 0
M  V30 3 O 0.359064 -2.864624 -1.112522 0
M  V30 4 C 0.804931 -1.870574 -1.969814 0
M  V30 5 C 1.622939 -2.277131 -3.025206 0
M  V30 6 C 2.089765 -1.318079 -3.903830 0
M  V30 7 C 1.782026 0.018718 -3.781438 0
M  V30 8 C 0.968998 0.421035 -2.732060 0
M  V30 9 O 0.576987 1.748117 -2.488965 0
M  V30 10 C 0.478219 -0.523181 -1.823214 0
M  V30 11 C -0.382395 -0.203692 -0.687769 0
M  V30 12 C 0.180067 0.105693 0.532464 0
M  V30 13 C -0.502311 0.433646 1.715357 0
M  V30 14 C 0.207355 0.741446 2.957491 0
M  V30 15 C 0.482790 2.212129 3.185635 0
M  V30 16 C 1.128517 2.284164 4.568023 0
M  V30 17 N 1.820875 1.067563 4.919438 0
M  V30 18 C 0.935582 -0.064208 5.125771 0
M  V30 19 C -0.284411 0.070030 4.192436 0
M  V30 20 C -1.870352 0.417573 1.535400 0
M  V30 21 C -2.713195 0.730402 2.623836 0
M  V30 22 N -3.404711 0.988827 3.486527 0
M  V30 23 C -2.465187 0.108767 0.314957 0
M  V30 24 N -3.884081 0.105416 0.179590 0
M  V30 25 N -1.725852 -0.193269 -0.764479 0
M  V30 26 H -0.971032 -4.476402 0.141506 0
M  V30 27 H -0.189654 -6.015660 -0.386556 0
M  V30 28 H 0.664388 -4.971019 0.775942 0
M  V30 29 H 1.782785 -4.424556 -1.223163 0
M  V30 30 H 0.318885 -4.560383 -2.251004 0
M  V30 31 H 1.903963 -3.314382 -3.179545 0
M  V30 32 H 2.731630 -1.607880 -4.738743 0
M  V30 33 H 2.130905 0.793135 -4.451452 0
M  V30 34 H -0.199254 2.177637 -2.976300 0
M  V30 35 H 1.267455 0.093560 0.580575 0
M  V30 36 H 1.253434 0.317209 2.802254 0
M  V30 37 H -0.437438 2.822244 3.242059 0
M  V30 38 H 1.125547 2.616237 2.401347 0
M  V30 39 H 0.400905 2.531952 5.363655 0
M  V30 40 H 1.897688 3.083269 4.567579 0
M  V30 41 H 2.329758 1.240459 5.788784 0
M  V30 42 H 0.642665 -0.221542 6.170166 0
M  V30 43 H 1.485809 -0.968376 4.793595 0
M  V30 44 H -0.996529 0.676095 4.787326 0
M  V30 45 H -0.735068 -0.906358 3.957225 0
M  V30 46 H -4.352350 0.914460 0.632825 0
M  V30 47 H -4.355176 -0.684612 -0.350214 0
M  V30 END ATOM
M  V30 BEGIN BOND
M  V30 1 1 1 2
M  V30 2 1 2 3
M  V30 3 1 3 4
M  V30 4 2 4 5
M  V30 5 1 5 6
M  V30 6 2 6 7
M  V30 7 1 7 8
M  V30 8 1 8 9
M  V30 9 2 8 10
M  V30 10 1 10 11
M  V30 11 2 11 12
M  V30 12 1 12 13
M  V30 13 1 13 14
M  V30 14 1 14 15
M  V30 15 1 15 16
M  V30 16 1 16 17
M  V30 17 1 17 18
M  V30 18 1 18 19
M  V30 19 2 13 20
M  V30 20 1 20 21
M  V30 21 3 21 22
M  V30 22 1 20 23
M  V30 23 1 23 24
M  V30 24 2 23 25
M  V30 25 1 10 4
M  V30 26 1 25 11
M  V30 27 1 19 14
M  V30 28 1 1 26
M  V30 29 1 1 27
M  V30 30 1 1 28
M  V30 31 1 2 29
M  V30 32 1 2 30
M  V30 33 1 5 31
M  V30 34 1 6 32
M  V30 35 1 7 33
M  V30 36 1 9 34
M  V30 37 1 12 35
M  V30 38 1 14 36
M  V30 39 1 15 37
M  V30 40 1 15 38
M  V30 41 1 16 39
M  V30 42 1 16 40
M  V30 43 1 17 41
M  V30 44 1 18 42
M  V30 45 1 18 43
M  V30 46 1 19 44
M  V30 47 1 19 45
M  V30 48 1 24 46
M  V30 49 1 24 47
M  V30 END BOND
M  V30 END CTAB
M  END
>  <Dataset>  (600) 
ChEMBL_Kinases

>  <Ligand_Instance>  (600) 
nan

>  <PDB_ID>  (600) 
nan

>  <Standardized_SMILES>  (600) 
CCOc1cccc(O)c1-c1cc(C2CCNCC2)c(C#N)c(N)n1

>  <Name>  (600) 
nan

>  <Pocket>  (600) 
nan

>  <ATP_Site>  (600) 
nan

>  <Peripheral>  (600) 
nan

>  <Num_H_Atoms_ProtBoundConf>  (600) 
nan

>  <Num_Resolved_Atoms>  (600) 
nan

>  <Num_Not_Resolved_Atoms>  (600) 
nan

$$$$
CHEMBL183187
     RDKit          3D

  0  0  0  0  0  0  0  0  0  0999 V3000
M  V30 BEGIN CTAB
M  V30 COUNTS 41 43 0 0 0
M  V30 BEGIN ATOM
M  V30 1 N 1.387132 -4.569713 2.392269 0
M  V30 2 C 1.170059 -3.431848 2.306025 0
M  V30 3 C 0.881643 -2.011077 2.187197 0
M  V30 4 C 0.602534 -1.425198 0.947636 0
M  V30 5 C 0.615867 -2.313291 -0.218924 0
M  V30 6 C -0.720613 -2.946631 -0.532275 0
M  V30 7 C -0.393871 -4.241268 -1.255282 0
M  V30 8 N 0.762834 -3.954471 -2.106044 0
M  V30 9 C 0.697273 -2.582744 -2.622932 0
M  V30 10 C 0.987801 -1.579297 -1.509733 0
M  V30 11 C 0.346180 -0.066668 0.978360 0
M  V30 12 C 0.366471 0.654736 2.157287 0
M  V30 13 C 0.079194 2.081878 2.055989 0
M  V30 14 C 1.233155 2.840578 1.850018 0
M  V30 15 O 2.531059 2.327493 1.747369 0
M  V30 16 C 1.172760 4.207604 1.727980 0
M  V30 17 C -0.041653 4.854449 1.808281 0
M  V30 18 C -1.181242 4.104325 2.011769 0
M  V30 19 C -1.140970 2.730070 2.136833 0
M  V30 20 O -2.209198 1.881773 2.341284 0
M  V30 21 N 0.645955 0.024146 3.335901 0
M  V30 22 C 0.904029 -1.297905 3.369948 0
M  V30 23 N 1.192281 -1.929136 4.612776 0
M  V30 24 H 1.407127 -3.082414 -0.082128 0
M  V30 25 H -1.343629 -3.092997 0.366279 0
M  V30 26 H -1.305223 -2.316000 -1.234704 0
M  V30 27 H -0.067193 -5.033255 -0.539153 0
M  V30 28 H -1.236593 -4.590577 -1.879040 0
M  V30 29 H 0.854410 -4.605730 -2.903884 0
M  V30 30 H 1.424233 -2.526397 -3.449645 0
M  V30 31 H -0.343395 -2.449020 -3.035398 0
M  V30 32 H 0.250251 -0.743520 -1.685322 0
M  V30 33 H 2.019564 -1.220152 -1.516820 0
M  V30 34 H 0.131973 0.376404 0.017601 0
M  V30 35 H 2.716506 1.783974 0.898917 0
M  V30 36 H 2.028318 4.846621 1.568046 0
M  V30 37 H -0.118714 5.934685 1.715263 0
M  V30 38 H -2.171307 4.556632 2.084317 0
M  V30 39 H -3.172064 2.167805 2.151299 0
M  V30 40 H 0.537758 -2.557893 5.139897 0
M  V30 41 H 2.052133 -1.902021 5.217823 0
M  V30 END ATOM
M  V30 BEGIN BOND
M  V30 1 3 1 2
M  V30 2 1 2 3
M  V30 3 2 3 4
M  V30 4 1 4 5
M  V30 5 1 5 6
M  V30 6 1 6 7
M  V30 7 1 7 8
M  V30 8 1 8 9
M  V30 9 1 9 10
M  V30 10 1 4 11
M  V30 11 2 11 12
M  V30 12 1 12 13
M  V30 13 2 13 14
M  V30 14 1 14 15
M  V30 15 1 14 16
M  V30 16 2 16 17
M  V30 17 1 17 18
M  V30 18 2 18 19
M  V30 19 1 19 20
M  V30 20 1 12 21
M  V30 21 2 21 22
M  V30 22 1 22 23
M  V30 23 1 22 3
M  V30 24 1 10 5
M  V30 25 1 19 13
M  V30 26 1 5 24
M  V30 27 1 6 25
M  V30 28 1 6 26
M  V30 29 1 7 27
M  V30 30 1 7 28
M  V30 31 1 8 29
M  V30 32 1 9 30
M  V30 33 1 9 31
M  V30 34 1 10 32
M  V30 35 1 10 33
M  V30 36 1 11 34
M  V30 37 1 15 35
M  V30 38 1 16 36
M  V30 39 1 17 37
M  V30 40 1 18 38
M  V30 41 1 20 39
M  V30 42 1 23 40
M  V30 43 1 23 41
M  V30 END BOND
M  V30 END CTAB
M  END
>  <Dataset>  (601) 
ChEMBL_Kinases

>  <Ligand_Instance>  (601) 
nan

>  <PDB_ID>  (601) 
nan

>  <Standardized_SMILES>  (601) 
N#Cc1c(C2CCNCC2)cc(-c2c(O)cccc2O)nc1N

>  <Name>  (601) 
nan

>  <Pocket>  (601) 
nan

>  <ATP_Site>  (601) 
nan

>  <Peripheral>  (601) 
nan

>  <Num_H_Atoms_ProtBoundConf>  (601) 
nan

>  <Num_Resolved_Atoms>  (601) 
nan

>  <Num_Not_Resolved_Atoms>  (601) 
nan

$$$$
CHEMBL183171
     RDKit          3D

  0  0  0  0  0  0  0  0  0  0999 V3000
M  V30 BEGIN CTAB
M  V30 COUNTS 40 43 0 0 0
M  V30 BEGIN ATOM
M  V30 1 O 0.234549 -2.822652 1.856258 0
M  V30 2 C -0.977430 -2.472473 1.643896 0
M  V30 3 N -1.269690 -2.427037 0.241932 0
M  V30 4 C -0.131304 -2.784334 -0.541464 0
M  V30 5 N 0.149265 -4.056123 -0.922506 0
M  V30 6 C 1.241651 -4.342918 -1.665350 0
M  V30 7 N 2.098029 -3.355097 -2.055148 0
M  V30 8 C 1.853309 -2.067571 -1.694491 0
M  V30 9 O 2.479716 -0.910660 -1.910640 0
M  V30 10 C 1.850097 0.073809 -1.352409 0
M  V30 11 C 2.240641 1.479569 -1.378489 0
M  V30 12 C 3.364283 1.911378 -2.027273 0
M  V30 13 C 3.722716 3.248500 -2.043740 0
M  V30 14 C 2.953454 4.211639 -1.399653 0
M  V30 15 Cl 3.404813 5.904617 -1.418935 0
M  V30 16 C 1.801455 3.794227 -0.730478 0
M  V30 17 C 1.485124 2.444234 -0.742934 0
M  V30 18 C 0.728823 -0.416872 -0.714579 0
M  V30 19 C 0.734252 -1.781262 -0.934699 0
M  V30 20 C -1.939155 -2.158940 2.710122 0
M  V30 21 C -2.514359 -0.813900 2.714814 0
M  V30 22 C -2.016576 -0.094775 3.970923 0
M  V30 23 C -1.834234 -1.272834 4.908387 0
M  V30 24 C -1.188021 -2.292190 4.020129 0
M  V30 25 H -2.243467 -2.149030 -0.044806 0
M  V30 26 H 1.436392 -5.368682 -1.952542 0
M  V30 27 H 4.011914 1.230946 -2.548806 0
M  V30 28 H 4.593641 3.629243 -2.539294 0
M  V30 29 H 1.191816 4.523048 -0.225510 0
M  V30 30 H 0.572356 2.173993 -0.203115 0
M  V30 31 H -0.010075 0.126686 -0.156599 0
M  V30 32 H -2.722135 -2.967160 2.720217 0
M  V30 33 H -2.256639 -0.145724 1.880997 0
M  V30 34 H -3.618861 -0.868856 2.807077 0
M  V30 35 H -2.748362 0.620329 4.369797 0
M  V30 36 H -1.013705 0.364058 3.818829 0
M  V30 37 H -1.229767 -1.020095 5.802703 0
M  V30 38 H -2.851332 -1.669416 5.182907 0
M  V30 39 H -1.268218 -3.329400 4.406261 0
M  V30 40 H -0.111489 -1.996720 3.854037 0
M  V30 END ATOM
M  V30 BEGIN BOND
M  V30 1 2 1 2
M  V30 2 1 2 3
M  V30 3 1 3 4
M  V30 4 2 4 5
M  V30 5 1 5 6
M  V30 6 2 6 7
M  V30 7 1 7 8
M  V30 8 1 8 9
M  V30 9 1 9 10
M  V30 10 1 10 11
M  V30 11 2 11 12
M  V30 12 1 12 13
M  V30 13 2 13 14
M  V30 14 1 14 15
M  V30 15 1 14 16
M  V30 16 2 16 17
M  V30 17 2 10 18
M  V30 18 1 18 19
M  V30 19 1 2 20
M  V30 20 1 20 21
M  V30 21 1 21 22
M  V30 22 1 22 23
M  V30 23 1 23 24
M  V30 24 1 19 4
M  V30 25 1 24 20
M  V30 26 2 19 8
M  V30 27 1 17 11
M  V30 28 1 3 25
M  V30 29 1 6 26
M  V30 30 1 12 27
M  V30 31 1 13 28
M  V30 32 1 16 29
M  V30 33 1 17 30
M  V30 34 1 18 31
M  V30 35 1 20 32
M  V30 36 1 21 33
M  V30 37 1 21 34
M  V30 38 1 22 35
M  V30 39 1 22 36
M  V30 40 1 23 37
M  V30 41 1 23 38
M  V30 42 1 24 39
M  V30 43 1 24 40
M  V30 END BOND
M  V30 END CTAB
M  END
>  <Dataset>  (602) 
ChEMBL_Kinases

>  <Ligand_Instance>  (602) 
nan

>  <PDB_ID>  (602) 
nan

>  <Standardized_SMILES>  (602) 
O=C(Nc1ncnc2oc(-c3ccc(Cl)cc3)cc12)C1CCCC1

>  <Name>  (602) 
nan

>  <Pocket>  (602) 
nan

>  <ATP_Site>  (602) 
nan

>  <Peripheral>  (602) 
nan

>  <Num_H_Atoms_ProtBoundConf>  (602) 
nan

>  <Num_Resolved_Atoms>  (602) 
nan

>  <Num_Not_Resolved_Atoms>  (602) 
nan

$$$$
CHEMBL1831229
     RDKit          3D

  0  0  0  0  0  0  0  0  0  0999 V3000
M  V30 BEGIN CTAB
M  V30 COUNTS 54 56 0 0 0
M  V30 BEGIN ATOM
M  V30 1 C 4.774883 -6.000999 3.290320 0
M  V30 2 O 4.370646 -4.737034 2.790108 0
M  V30 3 C 3.381112 -4.584977 1.839719 0
M  V30 4 O 3.043825 -5.777668 1.631561 0
M  V30 5 C 2.933670 -3.303101 1.297324 0
M  V30 6 C 3.544333 -2.158762 1.766676 0
M  V30 7 C 3.075298 -0.981932 1.215933 0
M  V30 8 C 2.070237 -0.935348 0.264821 0
M  V30 9 N 1.664967 0.344937 -0.235459 0
M  V30 10 C 0.614580 1.126335 0.373989 0
M  V30 11 O 0.195916 0.461574 1.350588 0
M  V30 12 C 0.448437 2.388887 -0.385604 0
M  V30 13 C -0.649174 3.223719 0.237075 0
M  V30 14 C -0.279857 3.533645 1.629495 0
M  V30 15 O 0.608142 4.412709 1.868447 0
M  V30 16 N -1.021412 2.750858 2.556433 0
M  V30 17 C -0.801212 2.668942 3.979273 0
M  V30 18 C -1.985669 2.108547 1.733402 0
M  V30 19 S -3.067263 1.092441 2.404986 0
M  V30 20 N -1.875095 2.450472 0.379276 0
M  V30 21 C -2.745690 2.155791 -0.740767 0
M  V30 22 C -2.965540 0.731895 -0.988693 0
M  V30 23 C -2.095024 -0.039223 -1.766276 0
M  V30 24 C -2.263882 -1.371479 -2.036608 0
M  V30 25 C -3.353391 -2.030878 -1.525335 0
M  V30 26 O -3.548573 -3.375936 -1.781917 0
M  V30 27 C -2.692918 -4.161468 -2.553135 0
M  V30 28 C -4.255058 -1.349874 -0.753918 0
M  V30 29 C -4.028559 -0.009966 -0.518507 0
M  V30 30 C 1.502127 -2.130807 -0.159710 0
M  V30 31 C 1.937489 -3.344863 0.362818 0
M  V30 32 H 5.144115 -6.678830 2.501754 0
M  V30 33 H 3.922747 -6.521044 3.807746 0
M  V30 34 H 5.523502 -5.807886 4.091519 0
M  V30 35 H 4.326885 -2.127913 2.500911 0
M  V30 36 H 3.518243 -0.031905 1.545057 0
M  V30 37 H 2.258894 0.573695 -1.083733 0
M  V30 38 H 0.232260 2.132224 -1.435658 0
M  V30 39 H 1.411111 2.975033 -0.375729 0
M  V30 40 H -0.835762 4.130366 -0.367581 0
M  V30 41 H -1.747910 2.315062 4.450493 0
M  V30 42 H 0.020102 1.968066 4.211686 0
M  V30 43 H -0.517995 3.663828 4.394806 0
M  V30 44 H -2.371420 2.635048 -1.678510 0
M  V30 45 H -3.745330 2.655006 -0.572551 0
M  V30 46 H -1.216465 0.398651 -2.206581 0
M  V30 47 H -1.570736 -1.932877 -2.640404 0
M  V30 48 H -2.282393 -3.668874 -3.440319 0
M  V30 49 H -1.817598 -4.475001 -1.913429 0
M  V30 50 H -3.221410 -5.115805 -2.783878 0
M  V30 51 H -5.115152 -1.861952 -0.348175 0
M  V30 52 H -4.781446 0.473438 0.088070 0
M  V30 53 H 0.710548 -2.096598 -0.908986 0
M  V30 54 H 1.508826 -4.281621 0.045875 0
M  V30 END ATOM
M  V30 BEGIN BOND
M  V30 1 1 1 2
M  V30 2 1 2 3
M  V30 3 2 3 4
M  V30 4 1 3 5
M  V30 5 2 5 6
M  V30 6 1 6 7
M  V30 7 2 7 8
M  V30 8 1 8 9
M  V30 9 1 9 10
M  V30 10 2 10 11
M  V30 11 1 10 12
M  V30 12 1 12 13
M  V30 13 1 13 14
M  V30 14 2 14 15
M  V30 15 1 14 16
M  V30 16 1 16 17
M  V30 17 1 16 18
M  V30 18 2 18 19
M  V30 19 1 18 20
M  V30 20 1 20 21
M  V30 21 1 21 22
M  V30 22 2 22 23
M  V30 23 1 23 24
M  V30 24 2 24 25
M  V30 25 1 25 26
M  V30 26 1 26 27
M  V30 27 1 25 28
M  V30 28 2 28 29
M  V30 29 1 8 30
M  V30 30 2 30 31
M  V30 31 1 31 5
M  V30 32 1 20 13
M  V30 33 1 29 22
M  V30 34 1 1 32
M  V30 35 1 1 33
M  V30 36 1 1 34
M  V30 37 1 6 35
M  V30 38 1 7 36
M  V30 39 1 9 37
M  V30 40 1 12 38
M  V30 41 1 12 39
M  V30 42 1 13 40
M  V30 43 1 17 41
M  V30 44 1 17 42
M  V30 45 1 17 43
M  V30 46 1 21 44
M  V30 47 1 21 45
M  V30 48 1 23 46
M  V30 49 1 24 47
M  V30 50 1 27 48
M  V30 51 1 27 49
M  V30 52 1 27 50
M  V30 53 1 28 51
M  V30 54 1 29 52
M  V30 55 1 30 53
M  V30 56 1 31 54
M  V30 END BOND
M  V30 END CTAB
M  END
>  <Dataset>  (603) 
ChEMBL_Kinases

>  <Ligand_Instance>  (603) 
nan

>  <PDB_ID>  (603) 
nan

>  <Standardized_SMILES>  (603) 
COC(=O)c1ccc(NC(=O)CC2C(=O)N(C)C(=S)N2Cc2ccc(OC)cc2)cc1

>  <Name>  (603) 
nan

>  <Pocket>  (603) 
nan

>  <ATP_Site>  (603) 
nan

>  <Peripheral>  (603) 
nan

>  <Num_H_Atoms_ProtBoundConf>  (603) 
nan

>  <Num_Resolved_Atoms>  (603) 
nan

>  <Num_Not_Resolved_Atoms>  (603) 
nan

$$$$
CHEMBL1831225
     RDKit          3D

  0  0  0  0  0  0  0  0  0  0999 V3000
M  V30 BEGIN CTAB
M  V30 COUNTS 44 46 0 0 0
M  V30 BEGIN ATOM
M  V30 1 C -1.431466 -6.148558 -0.457912 0
M  V30 2 C -0.980416 -4.841091 0.059775 0
M  V30 3 C -1.863606 -3.827778 0.395197 0
M  V30 4 C -1.419436 -2.614896 0.874315 0
M  V30 5 S -2.727316 -1.455497 1.241352 0
M  V30 6 C -3.096815 -0.535481 -0.277405 0
M  V30 7 C -1.913870 0.288146 -0.609246 0
M  V30 8 O -0.960762 -0.172969 -1.302630 0
M  V30 9 N -1.856970 1.626283 -0.133979 0
M  V30 10 N -0.963208 2.691638 -0.215992 0
M  V30 11 C -0.017353 2.961356 0.591055 0
M  V30 12 C 1.099426 3.758188 1.045920 0
M  V30 13 C 2.400684 3.473373 0.671697 0
M  V30 14 F 2.611608 2.412751 -0.134504 0
M  V30 15 C 3.409069 4.286418 1.141193 0
M  V30 16 C 3.051906 5.338039 1.958696 0
M  V30 17 C 1.770960 5.659184 2.357055 0
M  V30 18 C 0.770426 4.814364 1.863550 0
M  V30 19 Cl -0.876031 5.194009 2.351291 0
M  V30 20 C -0.061801 -2.395552 1.028309 0
M  V30 21 C 0.307165 -1.165561 1.514104 0
M  V30 22 C 1.655153 -0.974883 1.660000 0
M  V30 23 C 2.597503 -1.942225 1.346087 0
M  V30 24 C 2.164049 -3.160991 0.861102 0
M  V30 25 C 3.068363 -4.274668 0.487769 0
M  V30 26 C 0.805446 -3.424493 0.686480 0
M  V30 27 N 0.317908 -4.604029 0.216941 0
M  V30 28 H -0.823280 -6.419498 -1.365275 0
M  V30 29 H -2.493283 -6.112552 -0.749678 0
M  V30 30 H -1.337189 -6.925686 0.327759 0
M  V30 31 H -2.910399 -4.091990 0.240498 0
M  V30 32 H -3.326617 -1.216117 -1.132029 0
M  V30 33 H -3.945209 0.143805 -0.053667 0
M  V30 34 H -2.629583 2.035443 0.440747 0
M  V30 35 H 0.003814 2.209673 1.398147 0
M  V30 36 H 4.434104 4.089512 0.867206 0
M  V30 37 H 3.830292 5.980908 2.331718 0
M  V30 38 H 1.563576 6.500827 3.000299 0
M  V30 39 H -0.427572 -0.414554 1.760465 0
M  V30 40 H 2.012088 -0.009467 2.045199 0
M  V30 41 H 3.662685 -1.785068 1.464094 0
M  V30 42 H 3.075705 -4.314664 -0.636037 0
M  V30 43 H 4.126633 -4.072165 0.773767 0
M  V30 44 H 2.721505 -5.234305 0.944154 0
M  V30 END ATOM
M  V30 BEGIN BOND
M  V30 1 1 1 2
M  V30 2 2 2 3
M  V30 3 1 3 4
M  V30 4 1 4 5
M  V30 5 1 5 6
M  V30 6 1 6 7
M  V30 7 2 7 8
M  V30 8 1 7 9
M  V30 9 1 9 10
M  V30 10 2 10 11
M  V30 11 1 11 12
M  V30 12 2 12 13
M  V30 13 1 13 14
M  V30 14 1 13 15
M  V30 15 2 15 16
M  V30 16 1 16 17
M  V30 17 2 17 18
M  V30 18 1 18 19
M  V30 19 2 4 20
M  V30 20 1 20 21
M  V30 21 2 21 22
M  V30 22 1 22 23
M  V30 23 2 23 24
M  V30 24 1 24 25
M  V30 25 1 24 26
M  V30 26 2 26 27
M  V30 27 1 27 2
M  V30 28 1 18 12
M  V30 29 1 26 20
M  V30 30 1 1 28
M  V30 31 1 1 29
M  V30 32 1 1 30
M  V30 33 1 3 31
M  V30 34 1 6 32
M  V30 35 1 6 33
M  V30 36 1 9 34
M  V30 37 1 11 35
M  V30 38 1 15 36
M  V30 39 1 16 37
M  V30 40 1 17 38
M  V30 41 1 21 39
M  V30 42 1 22 40
M  V30 43 1 23 41
M  V30 44 1 25 42
M  V30 45 1 25 43
M  V30 46 1 25 44
M  V30 END BOND
M  V30 END CTAB
M  END
>  <Dataset>  (604) 
ChEMBL_Kinases

>  <Ligand_Instance>  (604) 
nan

>  <PDB_ID>  (604) 
nan

>  <Standardized_SMILES>  (604) 
Cc1cc(SCC(=O)N/N=C/c2c(F)cccc2Cl)c2cccc(C)c2n1

>  <Name>  (604) 
nan

>  <Pocket>  (604) 
nan

>  <ATP_Site>  (604) 
nan

>  <Peripheral>  (604) 
nan

>  <Num_H_Atoms_ProtBoundConf>  (604) 
nan

>  <Num_Resolved_Atoms>  (604) 
nan

>  <Num_Not_Resolved_Atoms>  (604) 
nan

$$$$
CHEMBL1831216
     RDKit          3D

  0  0  0  0  0  0  0  0  0  0999 V3000
M  V30 BEGIN CTAB
M  V30 COUNTS 27 28 0 0 0
M  V30 BEGIN ATOM
M  V30 1 C -0.595109 -5.959455 0.995062 0
M  V30 2 O -0.522811 -4.556087 1.071782 0
M  V30 3 C 0.261438 -3.814248 0.204793 0
M  V30 4 O 1.004534 -4.130598 -0.736345 0
M  V30 5 C 0.161381 -2.346493 0.498817 0
M  V30 6 S 1.055906 -1.076912 -0.440003 0
M  V30 7 C 0.442226 0.275068 0.465057 0
M  V30 8 C 0.743746 1.701828 0.265908 0
M  V30 9 C 0.186614 2.698426 1.060432 0
M  V30 10 C 0.508599 4.026200 0.824702 0
M  V30 11 C 1.384097 4.289660 -0.209096 0
M  V30 12 F 1.724799 5.581463 -0.471838 0
M  V30 13 C 1.945747 3.313500 -1.006713 0
M  V30 14 C 1.616391 1.995734 -0.760845 0
M  V30 15 C -0.365022 -0.269917 1.382796 0
M  V30 16 C -0.563523 -1.611358 1.466706 0
M  V30 17 N -1.385277 -2.328959 2.381736 0
M  V30 18 H -0.152796 -6.342237 0.031006 0
M  V30 19 H -1.634158 -6.350584 1.052101 0
M  V30 20 H -0.029299 -6.449546 1.832314 0
M  V30 21 H -0.492389 2.397609 1.850892 0
M  V30 22 H 0.064968 4.786059 1.453400 0
M  V30 23 H 2.628472 3.545005 -1.809813 0
M  V30 24 H 2.060996 1.231377 -1.391249 0
M  V30 25 H -0.895662 0.377589 2.104170 0
M  V30 26 H -1.111001 -2.289270 3.403665 0
M  V30 27 H -2.197209 -2.838217 1.958797 0
M  V30 END ATOM
M  V30 BEGIN BOND
M  V30 1 1 1 2
M  V30 2 1 2 3
M  V30 3 2 3 4
M  V30 4 1 3 5
M  V30 5 1 5 6
M  V30 6 1 6 7
M  V30 7 1 7 8
M  V30 8 2 8 9
M  V30 9 1 9 10
M  V30 10 2 10 11
M  V30 11 1 11 12
M  V30 12 1 11 13
M  V30 13 2 13 14
M  V30 14 2 7 15
M  V30 15 1 15 16
M  V30 16 1 16 17
M  V30 17 2 16 5
M  V30 18 1 14 8
M  V30 19 1 1 18
M  V30 20 1 1 19
M  V30 21 1 1 20
M  V30 22 1 9 21
M  V30 23 1 10 22
M  V30 24 1 13 23
M  V30 25 1 14 24
M  V30 26 1 15 25
M  V30 27 1 17 26
M  V30 28 1 17 27
M  V30 END BOND
M  V30 END CTAB
M  END
>  <Dataset>  (605) 
ChEMBL_Kinases

>  <Ligand_Instance>  (605) 
nan

>  <PDB_ID>  (605) 
nan

>  <Standardized_SMILES>  (605) 
COC(=O)c1sc(-c2ccc(F)cc2)cc1N

>  <Name>  (605) 
nan

>  <Pocket>  (605) 
nan

>  <ATP_Site>  (605) 
nan

>  <Peripheral>  (605) 
nan

>  <Num_H_Atoms_ProtBoundConf>  (605) 
nan

>  <Num_Resolved_Atoms>  (605) 
nan

>  <Num_Not_Resolved_Atoms>  (605) 
nan

$$$$
CHEMBL1831198
     RDKit          3D

  0  0  0  0  0  0  0  0  0  0999 V3000
M  V30 BEGIN CTAB
M  V30 COUNTS 36 38 0 0 0
M  V30 BEGIN ATOM
M  V30 1 N -0.745801 -3.386294 4.078259 0
M  V30 2 C 0.556281 -3.160217 3.620774 0
M  V30 3 O 1.523439 -3.725251 4.179515 0
M  V30 4 C 0.776808 -2.267067 2.495462 0
M  V30 5 S 2.485410 -1.975124 1.910038 0
M  V30 6 C 2.021884 -0.862218 0.607770 0
M  V30 7 C 2.982503 -0.234314 -0.289707 0
M  V30 8 C 4.314136 -0.533730 -0.100088 0
M  V30 9 C 5.191318 0.088493 -0.979474 0
M  V30 10 C 4.738149 0.950698 -1.975809 0
M  V30 11 C 3.378050 1.209252 -2.111559 0
M  V30 12 C 2.474055 0.598880 -1.243127 0
M  V30 13 C 0.701953 -0.793176 0.698913 0
M  V30 14 C 0.010408 -1.496750 1.653292 0
M  V30 15 S -1.719436 -1.520430 1.908655 0
M  V30 16 O -2.107398 -1.132346 3.287382 0
M  V30 17 O -2.279917 -2.904958 1.640224 0
M  V30 18 C -2.462222 -0.457605 0.717330 0
M  V30 19 C -2.886512 -0.868397 -0.537685 0
M  V30 20 C -3.456484 0.047627 -1.395052 0
M  V30 21 C -3.625735 1.373506 -1.054759 0
M  V30 22 F -4.197722 2.229396 -1.950907 0
M  V30 23 C -3.211889 1.824370 0.197690 0
M  V30 24 C -2.643675 0.873610 1.031207 0
M  V30 25 H -1.732386 -3.694026 4.207599 0
M  V30 26 H -0.756951 -2.824864 4.980542 0
M  V30 27 H 4.677493 -1.201763 0.670238 0
M  V30 28 H 6.272759 -0.097287 -0.895806 0
M  V30 29 H 5.443357 1.437370 -2.666158 0
M  V30 30 H 3.055661 1.876864 -2.886824 0
M  V30 31 H 1.417519 0.805311 -1.355425 0
M  V30 32 H 0.181227 -0.154844 -0.014092 0
M  V30 33 H -2.730066 -1.921617 -0.754945 0
M  V30 34 H -3.773486 -0.328559 -2.371826 0
M  V30 35 H -3.329398 2.851235 0.493975 0
M  V30 36 H -2.329668 1.247353 1.999361 0
M  V30 END ATOM
M  V30 BEGIN BOND
M  V30 1 1 1 2
M  V30 2 2 2 3
M  V30 3 1 2 4
M  V30 4 1 4 5
M  V30 5 1 5 6
M  V30 6 1 6 7
M  V30 7 2 7 8
M  V30 8 1 8 9
M  V30 9 2 9 10
M  V30 10 1 10 11
M  V30 11 2 11 12
M  V30 12 2 6 13
M  V30 13 1 13 14
M  V30 14 1 14 15
M  V30 15 2 15 16
M  V30 16 2 15 17
M  V30 17 1 15 18
M  V30 18 2 18 19
M  V30 19 1 19 20
M  V30 20 2 20 21
M  V30 21 1 21 22
M  V30 22 1 21 23
M  V30 23 2 23 24
M  V30 24 2 14 4
M  V30 25 1 24 18
M  V30 26 1 12 7
M  V30 27 1 1 25
M  V30 28 1 1 26
M  V30 29 1 8 27
M  V30 30 1 9 28
M  V30 31 1 10 29
M  V30 32 1 11 30
M  V30 33 1 12 31
M  V30 34 1 13 32
M  V30 35 1 19 33
M  V30 36 1 20 34
M  V30 37 1 23 35
M  V30 38 1 24 36
M  V30 END BOND
M  V30 END CTAB
M  END
>  <Dataset>  (606) 
ChEMBL_Kinases

>  <Ligand_Instance>  (606) 
nan

>  <PDB_ID>  (606) 
nan

>  <Standardized_SMILES>  (606) 
NC(=O)c1sc(-c2ccccc2)cc1S(=O)(=O)c1ccc(F)cc1

>  <Name>  (606) 
nan

>  <Pocket>  (606) 
nan

>  <ATP_Site>  (606) 
nan

>  <Peripheral>  (606) 
nan

>  <Num_H_Atoms_ProtBoundConf>  (606) 
nan

>  <Num_Resolved_Atoms>  (606) 
nan

>  <Num_Not_Resolved_Atoms>  (606) 
nan

$$$$
CHEMBL1831199
     RDKit          3D

  0  0  0  0  0  0  0  0  0  0999 V3000
M  V30 BEGIN CTAB
M  V30 COUNTS 50 53 0 0 0
M  V30 BEGIN ATOM
M  V30 1 C 2.421149 2.735540 -5.742861 0
M  V30 2 N 1.941631 1.374206 -5.958066 0
M  V30 3 C 1.353484 0.610387 -4.882387 0
M  V30 4 N 0.780761 1.238151 -3.941676 0
M  V30 5 C 0.175427 0.586268 -2.830597 0
M  V30 6 C -0.465472 1.218838 -1.801568 0
M  V30 7 C -0.996925 0.401435 -0.808949 0
M  V30 8 C -1.741869 0.655519 0.435706 0
M  V30 9 C -1.970302 1.966505 0.687002 0
M  V30 10 C -2.677547 2.230483 1.866149 0
M  V30 11 C -3.093911 1.177877 2.687998 0
M  V30 12 C -2.816346 -0.150174 2.354641 0
M  V30 13 C -3.242057 -1.291636 3.201701 0
M  V30 14 C -2.185494 -1.642913 4.230145 0
M  V30 15 N -1.892398 -0.544030 5.126093 0
M  V30 16 S -0.677186 -1.019117 6.272667 0
M  V30 17 N 0.737115 -1.407064 5.370243 0
M  V30 18 O -0.416293 0.094527 7.233703 0
M  V30 19 O -1.101653 -2.258356 7.016038 0
M  V30 20 C -2.113486 -0.435900 1.185294 0
M  V30 21 S -0.541812 -1.341440 -1.405058 0
M  V30 22 C 0.259022 -0.761399 -2.832914 0
M  V30 23 N 0.892977 -1.519284 -3.831615 0
M  V30 24 C 1.231166 -2.882374 -4.040567 0
M  V30 25 C 0.423290 -3.976542 -3.445552 0
M  V30 26 C 2.340838 -2.822664 -4.809767 0
M  V30 27 N 2.714487 -1.446060 -5.092864 0
M  V30 28 C 1.416838 -0.835770 -5.018766 0
M  V30 29 H 2.141096 3.360330 -6.632330 0
M  V30 30 H 1.923187 3.134544 -4.831484 0
M  V30 31 H 3.509647 2.716658 -5.686895 0
M  V30 32 H 2.016056 0.928772 -6.898173 0
M  V30 33 H -0.623032 2.274335 -1.641943 0
M  V30 34 H -1.641434 2.758411 0.042007 0
M  V30 35 H -2.890773 3.254016 2.121902 0
M  V30 36 H -3.642351 1.377694 3.602880 0
M  V30 37 H -4.211871 -1.078445 3.645116 0
M  V30 38 H -3.344867 -2.198251 2.558107 0
M  V30 39 H -1.222439 -1.907668 3.749442 0
M  V30 40 H -2.506574 -2.534347 4.805267 0
M  V30 41 H -2.757395 -0.307999 5.657098 0
M  V30 42 H 0.884076 -0.667440 4.649781 0
M  V30 43 H 1.619514 -1.382962 5.961809 0
M  V30 44 H -1.885316 -1.454769 0.903554 0
M  V30 45 H 0.003356 -3.651368 -2.465038 0
M  V30 46 H 1.059391 -4.872746 -3.249723 0
M  V30 47 H -0.422037 -4.228449 -4.103494 0
M  V30 48 H 2.775286 -3.798733 -5.091444 0
M  V30 49 H 3.737109 -1.259217 -5.263859 0
M  V30 50 H 0.864049 -1.189955 -5.933123 0
M  V30 END ATOM
M  V30 BEGIN BOND
M  V30 1 1 1 2
M  V30 2 1 2 3
M  V30 3 2 3 4
M  V30 4 1 4 5
M  V30 5 1 5 6
M  V30 6 2 6 7
M  V30 7 1 7 8
M  V30 8 2 8 9
M  V30 9 1 9 10
M  V30 10 2 10 11
M  V30 11 1 11 12
M  V30 12 1 12 13
M  V30 13 1 13 14
M  V30 14 1 14 15
M  V30 15 1 15 16
M  V30 16 1 16 17
M  V30 17 2 16 18
M  V30 18 2 16 19
M  V30 19 2 12 20
M  V30 20 1 7 21
M  V30 21 1 21 22
M  V30 22 1 22 23
M  V30 23 1 23 24
M  V30 24 1 24 25
M  V30 25 2 24 26
M  V30 26 1 26 27
M  V30 27 1 27 28
M  V30 28 1 28 3
M  V30 29 2 22 5
M  V30 30 1 28 23
M  V30 31 1 20 8
M  V30 32 1 1 29
M  V30 33 1 1 30
M  V30 34 1 1 31
M  V30 35 1 2 32
M  V30 36 1 6 33
M  V30 37 1 9 34
M  V30 38 1 10 35
M  V30 39 1 11 36
M  V30 40 1 13 37
M  V30 41 1 13 38
M  V30 42 1 14 39
M  V30 43 1 14 40
M  V30 44 1 15 41
M  V30 45 1 17 42
M  V30 46 1 17 43
M  V30 47 1 20 44
M  V30 48 1 25 45
M  V30 49 1 25 46
M  V30 50 1 25 47
M  V30 51 1 26 48
M  V30 52 1 27 49
M  V30 53 1 28 50
M  V30 END BOND
M  V30 END CTAB
M  END
>  <Dataset>  (607) 
ChEMBL_Kinases

>  <Ligand_Instance>  (607) 
nan

>  <PDB_ID>  (607) 
nan

>  <Standardized_SMILES>  (607) 
CNC1=Nc2cc(-c3cccc(CCNS(N)(=O)=O)c3)sc2N2C(C)=CNC12

>  <Name>  (607) 
nan

>  <Pocket>  (607) 
nan

>  <ATP_Site>  (607) 
nan

>  <Peripheral>  (607) 
nan

>  <Num_H_Atoms_ProtBoundConf>  (607) 
nan

>  <Num_Resolved_Atoms>  (607) 
nan

>  <Num_Not_Resolved_Atoms>  (607) 
nan

$$$$
CHEMBL1831200
     RDKit          3D

  0  0  0  0  0  0  0  0  0  0999 V3000
M  V30 BEGIN CTAB
M  V30 COUNTS 44 47 0 0 0
M  V30 BEGIN ATOM
M  V30 1 C -0.476735 -6.368597 -0.299525 0
M  V30 2 N -1.359978 -5.592787 0.572570 0
M  V30 3 C -1.105328 -4.200277 0.867943 0
M  V30 4 N -0.417624 -3.530537 0.043875 0
M  V30 5 C -0.109273 -2.152394 0.225888 0
M  V30 6 C 0.638973 -1.405099 -0.632971 0
M  V30 7 C 0.835886 -0.080848 -0.285303 0
M  V30 8 C 1.563299 1.063928 -0.906209 0
M  V30 9 C 2.181483 0.749696 -2.087022 0
M  V30 10 C 2.859765 1.815489 -2.666762 0
M  V30 11 C 2.880240 3.076639 -2.060527 0
M  V30 12 C 2.216009 3.277319 -0.861214 0
M  V30 13 C 2.249898 4.624872 -0.232999 0
M  V30 14 C 3.443115 4.689406 0.682524 0
M  V30 15 N 3.507920 5.966858 1.301339 0
M  V30 16 O 4.315493 3.832943 0.948165 0
M  V30 17 C 1.524998 2.256965 -0.237430 0
M  V30 18 S -0.107069 0.060916 1.348083 0
M  V30 19 C -0.618511 -1.589344 1.355085 0
M  V30 20 N -1.397985 -2.301036 2.277584 0
M  V30 21 C -2.140394 -1.975736 3.442438 0
M  V30 22 C -1.705562 -0.808277 4.281007 0
M  V30 23 C -3.138165 -2.886464 3.479863 0
M  V30 24 N -3.042225 -3.792784 2.348704 0
M  V30 25 C -1.626605 -3.730921 2.138661 0
M  V30 26 H -1.004027 -7.273110 -0.607551 0
M  V30 27 H -0.237468 -5.771656 -1.227857 0
M  V30 28 H 0.421653 -6.651018 0.271836 0
M  V30 29 H -2.197081 -6.045770 0.996139 0
M  V30 30 H 1.113458 -1.684114 -1.560519 0
M  V30 31 H 2.142319 -0.228028 -2.518558 0
M  V30 32 H 3.367904 1.597371 -3.616848 0
M  V30 33 H 3.430101 3.878794 -2.561892 0
M  V30 34 H 1.326393 4.772028 0.377394 0
M  V30 35 H 2.295093 5.413472 -1.018541 0
M  V30 36 H 2.983370 5.731763 2.179674 0
M  V30 37 H 3.691076 6.967653 1.529996 0
M  V30 38 H 0.992876 2.366172 0.697182 0
M  V30 39 H -1.398132 0.023893 3.630327 0
M  V30 40 H -2.602547 -0.445923 4.863257 0
M  V30 41 H -0.951626 -1.063210 5.023950 0
M  V30 42 H -3.835049 -2.788211 4.336297 0
M  V30 43 H -3.951012 -4.215002 2.014380 0
M  V30 44 H -1.161039 -4.255858 3.025154 0
M  V30 END ATOM
M  V30 BEGIN BOND
M  V30 1 1 1 2
M  V30 2 1 2 3
M  V30 3 2 3 4
M  V30 4 1 4 5
M  V30 5 1 5 6
M  V30 6 2 6 7
M  V30 7 1 7 8
M  V30 8 2 8 9
M  V30 9 1 9 10
M  V30 10 2 10 11
M  V30 11 1 11 12
M  V30 12 1 12 13
M  V30 13 1 13 14
M  V30 14 1 14 15
M  V30 15 2 14 16
M  V30 16 2 12 17
M  V30 17 1 7 18
M  V30 18 1 18 19
M  V30 19 1 19 20
M  V30 20 1 20 21
M  V30 21 1 21 22
M  V30 22 2 21 23
M  V30 23 1 23 24
M  V30 24 1 24 25
M  V30 25 1 25 3
M  V30 26 2 19 5
M  V30 27 1 25 20
M  V30 28 1 17 8
M  V30 29 1 1 26
M  V30 30 1 1 27
M  V30 31 1 1 28
M  V30 32 1 2 29
M  V30 33 1 6 30
M  V30 34 1 9 31
M  V30 35 1 10 32
M  V30 36 1 11 33
M  V30 37 1 13 34
M  V30 38 1 13 35
M  V30 39 1 15 36
M  V30 40 1 15 37
M  V30 41 1 17 38
M  V30 42 1 22 39
M  V30 43 1 22 40
M  V30 44 1 22 41
M  V30 45 1 23 42
M  V30 46 1 24 43
M  V30 47 1 25 44
M  V30 END BOND
M  V30 END CTAB
M  END
>  <Dataset>  (608) 
ChEMBL_Kinases

>  <Ligand_Instance>  (608) 
nan

>  <PDB_ID>  (608) 
nan

>  <Standardized_SMILES>  (608) 
CNC1=Nc2cc(-c3cccc(CC(N)=O)c3)sc2N2C(C)=CNC12

>  <Name>  (608) 
nan

>  <Pocket>  (608) 
nan

>  <ATP_Site>  (608) 
nan

>  <Peripheral>  (608) 
nan

>  <Num_H_Atoms_ProtBoundConf>  (608) 
nan

>  <Num_Resolved_Atoms>  (608) 
nan

>  <Num_Not_Resolved_Atoms>  (608) 
nan

$$$$
CHEMBL1831201
     RDKit          3D

  0  0  0  0  0  0  0  0  0  0999 V3000
M  V30 BEGIN CTAB
M  V30 COUNTS 42 45 0 0 0
M  V30 BEGIN ATOM
M  V30 1 C 1.600391 -6.004971 2.105457 0
M  V30 2 N 0.424662 -5.285231 2.578178 0
M  V30 3 C 0.184161 -3.888969 2.300621 0
M  V30 4 N 0.712824 -3.432147 1.233784 0
M  V30 5 C 0.559888 -2.071762 0.847247 0
M  V30 6 C 1.039341 -1.423571 -0.261047 0
M  V30 7 C 0.785286 -0.131581 -0.457571 0
M  V30 8 C 1.118751 0.823826 -1.470830 0
M  V30 9 C 1.881059 0.338951 -2.509280 0
M  V30 10 C 2.250946 1.205810 -3.540755 0
M  V30 11 C 1.843163 2.529473 -3.494728 0
M  V30 12 C 1.076199 2.966170 -2.425452 0
M  V30 13 C 0.676813 4.400999 -2.446544 0
M  V30 14 N 1.620840 5.268556 -1.795798 0
M  V30 15 C 0.696401 2.133408 -1.393790 0
M  V30 16 S -0.221733 0.321648 1.000815 0
M  V30 17 C -0.184126 -1.298001 1.714856 0
M  V30 18 N -0.754521 -1.814023 2.917481 0
M  V30 19 C -1.418944 -1.246851 4.011445 0
M  V30 20 C -2.240395 0.003628 3.878903 0
M  V30 21 C -1.116453 -2.049921 5.040022 0
M  V30 22 N -0.253967 -3.140314 4.613573 0
M  V30 23 C -0.694922 -3.227020 3.259171 0
M  V30 24 H 1.373782 -7.061439 1.960104 0
M  V30 25 H 2.411842 -5.819397 2.809732 0
M  V30 26 H 1.860180 -5.583628 1.105960 0
M  V30 27 H -0.245022 -5.834330 3.134431 0
M  V30 28 H 1.644172 -1.909384 -1.034423 0
M  V30 29 H 2.219859 -0.700676 -2.576300 0
M  V30 30 H 2.838524 0.911456 -4.379189 0
M  V30 31 H 2.124474 3.205452 -4.287179 0
M  V30 32 H -0.284005 4.459945 -1.859868 0
M  V30 33 H 0.436493 4.738641 -3.474178 0
M  V30 34 H 1.390954 5.344219 -0.794163 0
M  V30 35 H 2.580152 4.945934 -2.003132 0
M  V30 36 H 0.094995 2.498940 -0.566395 0
M  V30 37 H -3.290984 -0.246194 3.749786 0
M  V30 38 H -2.164908 0.543305 4.853787 0
M  V30 39 H -1.808622 0.647414 3.098444 0
M  V30 40 H -1.550795 -1.771235 6.022912 0
M  V30 41 H 0.395525 -3.528298 5.349649 0
M  V30 42 H -1.747390 -3.611378 3.215980 0
M  V30 END ATOM
M  V30 BEGIN BOND
M  V30 1 1 1 2
M  V30 2 1 2 3
M  V30 3 2 3 4
M  V30 4 1 4 5
M  V30 5 1 5 6
M  V30 6 2 6 7
M  V30 7 1 7 8
M  V30 8 2 8 9
M  V30 9 1 9 10
M  V30 10 2 10 11
M  V30 11 1 11 12
M  V30 12 1 12 13
M  V30 13 1 13 14
M  V30 14 2 12 15
M  V30 15 1 7 16
M  V30 16 1 16 17
M  V30 17 1 17 18
M  V30 18 1 18 19
M  V30 19 1 19 20
M  V30 20 2 19 21
M  V30 21 1 21 22
M  V30 22 1 22 23
M  V30 23 1 23 3
M  V30 24 2 17 5
M  V30 25 1 23 18
M  V30 26 1 15 8
M  V30 27 1 1 24
M  V30 28 1 1 25
M  V30 29 1 1 26
M  V30 30 1 2 27
M  V30 31 1 6 28
M  V30 32 1 9 29
M  V30 33 1 10 30
M  V30 34 1 11 31
M  V30 35 1 13 32
M  V30 36 1 13 33
M  V30 37 1 14 34
M  V30 38 1 14 35
M  V30 39 1 15 36
M  V30 40 1 20 37
M  V30 41 1 20 38
M  V30 42 1 20 39
M  V30 43 1 21 40
M  V30 44 1 22 41
M  V30 45 1 23 42
M  V30 END BOND
M  V30 END CTAB
M  END
>  <Dataset>  (609) 
ChEMBL_Kinases

>  <Ligand_Instance>  (609) 
nan

>  <PDB_ID>  (609) 
nan

>  <Standardized_SMILES>  (609) 
CNC1=Nc2cc(-c3cccc(CN)c3)sc2N2C(C)=CNC12

>  <Name>  (609) 
nan

>  <Pocket>  (609) 
nan

>  <ATP_Site>  (609) 
nan

>  <Peripheral>  (609) 
nan

>  <Num_H_Atoms_ProtBoundConf>  (609) 
nan

>  <Num_Resolved_Atoms>  (609) 
nan

>  <Num_Not_Resolved_Atoms>  (609) 
nan

$$$$
CHEMBL1831202
     RDKit          3D

  0  0  0  0  0  0  0  0  0  0999 V3000
M  V30 BEGIN CTAB
M  V30 COUNTS 46 49 0 0 0
M  V30 BEGIN ATOM
M  V30 1 C -0.722811 -6.597328 0.191520 0
M  V30 2 N -1.576467 -5.714204 0.964937 0
M  V30 3 C -1.221905 -4.340617 1.204297 0
M  V30 4 N -0.525387 -3.796727 0.264354 0
M  V30 5 C -0.095039 -2.435358 0.379737 0
M  V30 6 C 0.619999 -1.638250 -0.467336 0
M  V30 7 C 0.904200 -0.364941 -0.140740 0
M  V30 8 C 1.623760 0.669335 -0.833984 0
M  V30 9 C 2.139140 0.347133 -2.058443 0
M  V30 10 C 2.831516 1.355091 -2.723123 0
M  V30 11 C 2.970623 2.599133 -2.147846 0
M  V30 12 C 2.441544 2.923338 -0.896050 0
M  V30 13 C 2.620673 4.281947 -0.326828 0
M  V30 14 C 1.446840 5.121702 -0.783219 0
M  V30 15 C 0.177019 4.503027 -0.287571 0
M  V30 16 O -0.435104 3.542540 -0.812540 0
M  V30 17 O -0.420272 5.018417 0.874998 0
M  V30 18 C 1.764460 1.911309 -0.263484 0
M  V30 19 S 0.154228 -0.117308 1.500583 0
M  V30 20 C -0.488114 -1.830284 1.569827 0
M  V30 21 N -1.225091 -2.433956 2.607966 0
M  V30 22 C -1.589640 -2.126868 3.932688 0
M  V30 23 C -1.751478 -0.755624 4.419696 0
M  V30 24 C -1.704240 -3.334847 4.516413 0
M  V30 25 N -1.427598 -4.458667 3.627012 0
M  V30 26 C -1.790869 -3.767137 2.426395 0
M  V30 27 H -0.536961 -6.094807 -0.776973 0
M  V30 28 H -1.261933 -7.537579 -0.001987 0
M  V30 29 H 0.194623 -6.794159 0.785425 0
M  V30 30 H -2.485127 -6.085682 1.366081 0
M  V30 31 H 0.980854 -2.015220 -1.436900 0
M  V30 32 H 2.022733 -0.621968 -2.490806 0
M  V30 33 H 3.261378 1.153677 -3.697419 0
M  V30 34 H 3.510506 3.424192 -2.638452 0
M  V30 35 H 3.586427 4.724897 -0.637368 0
M  V30 36 H 2.586140 4.177709 0.775969 0
M  V30 37 H 1.589230 6.130697 -0.394942 0
M  V30 38 H 1.461611 5.115560 -1.903608 0
M  V30 39 H -0.773358 4.367409 1.592179 0
M  V30 40 H 1.334131 2.092387 0.701568 0
M  V30 41 H -0.847669 -0.542470 5.064986 0
M  V30 42 H -1.844590 -0.022898 3.626112 0
M  V30 43 H -2.619036 -0.753601 5.128397 0
M  V30 44 H -1.987791 -3.316584 5.590225 0
M  V30 45 H -1.090325 -5.306617 4.120599 0
M  V30 46 H -2.912529 -3.702270 2.375559 0
M  V30 END ATOM
M  V30 BEGIN BOND
M  V30 1 1 1 2
M  V30 2 1 2 3
M  V30 3 2 3 4
M  V30 4 1 4 5
M  V30 5 1 5 6
M  V30 6 2 6 7
M  V30 7 1 7 8
M  V30 8 2 8 9
M  V30 9 1 9 10
M  V30 10 2 10 11
M  V30 11 1 11 12
M  V30 12 1 12 13
M  V30 13 1 13 14
M  V30 14 1 14 15
M  V30 15 2 15 16
M  V30 16 1 15 17
M  V30 17 2 12 18
M  V30 18 1 7 19
M  V30 19 1 19 20
M  V30 20 1 20 21
M  V30 21 1 21 22
M  V30 22 1 22 23
M  V30 23 2 22 24
M  V30 24 1 24 25
M  V30 25 1 25 26
M  V30 26 1 26 3
M  V30 27 2 20 5
M  V30 28 1 26 21
M  V30 29 1 18 8
M  V30 30 1 1 27
M  V30 31 1 1 28
M  V30 32 1 1 29
M  V30 33 1 2 30
M  V30 34 1 6 31
M  V30 35 1 9 32
M  V30 36 1 10 33
M  V30 37 1 11 34
M  V30 38 1 13 35
M  V30 39 1 13 36
M  V30 40 1 14 37
M  V30 41 1 14 38
M  V30 42 1 17 39
M  V30 43 1 18 40
M  V30 44 1 23 41
M  V30 45 1 23 42
M  V30 46 1 23 43
M  V30 47 1 24 44
M  V30 48 1 25 45
M  V30 49 1 26 46
M  V30 END BOND
M  V30 END CTAB
M  END
>  <Dataset>  (610) 
ChEMBL_Kinases

>  <Ligand_Instance>  (610) 
nan

>  <PDB_ID>  (610) 
nan

>  <Standardized_SMILES>  (610) 
CNC1=Nc2cc(-c3cccc(CCC(=O)O)c3)sc2N2C(C)=CNC12

>  <Name>  (610) 
nan

>  <Pocket>  (610) 
nan

>  <ATP_Site>  (610) 
nan

>  <Peripheral>  (610) 
nan

>  <Num_H_Atoms_ProtBoundConf>  (610) 
nan

>  <Num_Resolved_Atoms>  (610) 
nan

>  <Num_Not_Resolved_Atoms>  (610) 
nan

$$$$
CHEMBL1831203
     RDKit          3D

  0  0  0  0  0  0  0  0  0  0999 V3000
M  V30 BEGIN CTAB
M  V30 COUNTS 37 40 0 0 0
M  V30 BEGIN ATOM
M  V30 1 C 0.775431 -3.240647 4.756981 0
M  V30 2 N -0.439321 -3.046568 3.948772 0
M  V30 3 C -0.508565 -2.171618 2.827929 0
M  V30 4 N 0.580972 -1.925487 2.226667 0
M  V30 5 C 0.667842 -1.078737 1.090819 0
M  V30 6 C 1.744237 -0.698284 0.336495 0
M  V30 7 C 1.566748 0.142081 -0.723176 0
M  V30 8 C 2.522837 0.680234 -1.655162 0
M  V30 9 C 3.845459 0.326140 -1.502826 0
M  V30 10 C 4.797976 0.818601 -2.374084 0
M  V30 11 C 4.405768 1.675886 -3.406531 0
M  V30 12 C 3.067354 1.998140 -3.513351 0
M  V30 13 C 2.079131 1.520316 -2.652873 0
M  V30 14 S -0.188834 0.480692 -0.750510 0
M  V30 15 C -0.555143 -0.560323 0.701047 0
M  V30 16 N -1.811665 -0.808572 1.318502 0
M  V30 17 C -3.160293 -0.514333 1.075673 0
M  V30 18 C -3.531022 0.706820 0.324451 0
M  V30 19 C -3.808542 -1.550321 1.658001 0
M  V30 20 N -2.893834 -2.499048 2.267579 0
M  V30 21 C -1.820827 -1.607472 2.539214 0
M  V30 22 H 1.098915 -4.293479 4.681693 0
M  V30 23 H 0.573944 -2.955366 5.810357 0
M  V30 24 H 1.597003 -2.633815 4.323543 0
M  V30 25 H -1.297410 -3.586889 4.220154 0
M  V30 26 H 2.765086 -1.048963 0.553933 0
M  V30 27 H 4.186690 -0.326040 -0.727523 0
M  V30 28 H 5.847092 0.550218 -2.269652 0
M  V30 29 H 5.140978 2.066999 -4.093441 0
M  V30 30 H 2.715450 2.666256 -4.307062 0
M  V30 31 H 1.045141 1.794372 -2.768337 0
M  V30 32 H -2.863213 0.852349 -0.526252 0
M  V30 33 H -4.570851 0.578060 -0.097298 0
M  V30 34 H -3.582593 1.609798 0.935651 0
M  V30 35 H -4.916299 -1.521567 1.582388 0
M  V30 36 H -3.308781 -3.464184 2.299767 0
M  V30 37 H -2.169211 -0.891674 3.331435 0
M  V30 END ATOM
M  V30 BEGIN BOND
M  V30 1 1 1 2
M  V30 2 1 2 3
M  V30 3 2 3 4
M  V30 4 1 4 5
M  V30 5 1 5 6
M  V30 6 2 6 7
M  V30 7 1 7 8
M  V30 8 2 8 9
M  V30 9 1 9 10
M  V30 10 2 10 11
M  V30 11 1 11 12
M  V30 12 2 12 13
M  V30 13 1 7 14
M  V30 14 1 14 15
M  V30 15 1 15 16
M  V30 16 1 16 17
M  V30 17 1 17 18
M  V30 18 2 17 19
M  V30 19 1 19 20
M  V30 20 1 20 21
M  V30 21 1 21 3
M  V30 22 2 15 5
M  V30 23 1 21 16
M  V30 24 1 13 8
M  V30 25 1 1 22
M  V30 26 1 1 23
M  V30 27 1 1 24
M  V30 28 1 2 25
M  V30 29 1 6 26
M  V30 30 1 9 27
M  V30 31 1 10 28
M  V30 32 1 11 29
M  V30 33 1 12 30
M  V30 34 1 13 31
M  V30 35 1 18 32
M  V30 36 1 18 33
M  V30 37 1 18 34
M  V30 38 1 19 35
M  V30 39 1 20 36
M  V30 40 1 21 37
M  V30 END BOND
M  V30 END CTAB
M  END
>  <Dataset>  (611) 
ChEMBL_Kinases

>  <Ligand_Instance>  (611) 
nan

>  <PDB_ID>  (611) 
nan

>  <Standardized_SMILES>  (611) 
CNC1=Nc2cc(-c3ccccc3)sc2N2C(C)=CNC12

>  <Name>  (611) 
nan

>  <Pocket>  (611) 
nan

>  <ATP_Site>  (611) 
nan

>  <Peripheral>  (611) 
nan

>  <Num_H_Atoms_ProtBoundConf>  (611) 
nan

>  <Num_Resolved_Atoms>  (611) 
nan

>  <Num_Not_Resolved_Atoms>  (611) 
nan

$$$$
CHEMBL1831204
     RDKit          3D

  0  0  0  0  0  0  0  0  0  0999 V3000
M  V30 BEGIN CTAB
M  V30 COUNTS 55 59 0 0 0
M  V30 BEGIN ATOM
M  V30 1 C -0.549387 -4.836117 3.341042 0
M  V30 2 C 0.315749 -3.622759 3.336992 0
M  V30 3 C 1.038492 -2.926951 4.249755 0
M  V30 4 N 1.747065 -1.754643 3.734522 0
M  V30 5 C 1.841081 -2.231305 2.396639 0
M  V30 6 C 2.163463 -1.270045 1.333416 0
M  V30 7 N 3.328877 -0.479601 1.416994 0
M  V30 8 C 3.752099 0.766669 0.880569 0
M  V30 9 C 2.956092 1.903751 1.472260 0
M  V30 10 N 1.613830 1.818700 1.064576 0
M  V30 11 C 1.370220 2.145419 -0.310704 0
M  V30 12 C 0.453491 3.351292 -0.451058 0
M  V30 13 C -0.869021 2.903792 0.173562 0
M  V30 14 C -0.613952 2.703349 1.634463 0
M  V30 15 C 0.568009 1.862198 1.974238 0
M  V30 16 N 1.480815 -1.034232 0.293550 0
M  V30 17 C 0.251031 -1.660883 -0.025581 0
M  V30 18 C -0.603998 -1.559200 -1.086821 0
M  V30 19 C -1.719976 -2.278194 -1.153690 0
M  V30 20 C -2.799216 -2.417716 -2.084839 0
M  V30 21 C -3.834801 -3.290577 -1.866478 0
M  V30 22 C -4.873211 -3.440695 -2.733099 0
M  V30 23 C -4.810939 -2.647900 -3.853407 0
M  V30 24 C -3.790593 -1.735213 -4.146339 0
M  V30 25 C -2.755961 -1.631949 -3.214315 0
M  V30 26 S -1.704871 -3.256458 0.376968 0
M  V30 27 C -0.136695 -2.558333 0.955491 0
M  V30 28 N 0.552143 -2.861978 2.172564 0
M  V30 29 H -1.557083 -4.564433 3.747029 0
M  V30 30 H -0.121203 -5.579692 4.047942 0
M  V30 31 H -0.706253 -5.212844 2.337170 0
M  V30 32 H 1.005588 -3.322276 5.283410 0
M  V30 33 H 1.930319 -1.021490 4.459081 0
M  V30 34 H 2.637514 -3.023755 2.325502 0
M  V30 35 H 4.079146 -0.926955 2.043594 0
M  V30 36 H 4.839086 0.918707 0.967189 0
M  V30 37 H 3.576098 0.747603 -0.238711 0
M  V30 38 H 3.383789 2.900588 1.216207 0
M  V30 39 H 2.973934 1.766884 2.593418 0
M  V30 40 H 2.342151 2.437740 -0.768300 0
M  V30 41 H 0.945975 1.342372 -0.931896 0
M  V30 42 H 0.831767 4.175057 0.176764 0
M  V30 43 H 0.377123 3.597491 -1.508359 0
M  V30 44 H -1.626040 3.694957 0.060395 0
M  V30 45 H -1.160478 1.967348 -0.355509 0
M  V30 46 H -0.511564 3.700641 2.107055 0
M  V30 47 H -1.529710 2.182338 2.036758 0
M  V30 48 H 0.237636 0.801299 2.189934 0
M  V30 49 H 0.951931 2.213021 2.975332 0
M  V30 50 H -0.410064 -0.885647 -1.925240 0
M  V30 51 H -3.864924 -3.914056 -0.964491 0
M  V30 52 H -5.701400 -4.118317 -2.588995 0
M  V30 53 H -5.586237 -2.689485 -4.604619 0
M  V30 54 H -3.802642 -1.143163 -5.044880 0
M  V30 55 H -1.959213 -0.945288 -3.409800 0
M  V30 END ATOM
M  V30 BEGIN BOND
M  V30 1 1 1 2
M  V30 2 2 2 3
M  V30 3 1 3 4
M  V30 4 1 4 5
M  V30 5 1 5 6
M  V30 6 1 6 7
M  V30 7 1 7 8
M  V30 8 1 8 9
M  V30 9 1 9 10
M  V30 10 1 10 11
M  V30 11 1 11 12
M  V30 12 1 12 13
M  V30 13 1 13 14
M  V30 14 1 14 15
M  V30 15 2 6 16
M  V30 16 1 16 17
M  V30 17 1 17 18
M  V30 18 2 18 19
M  V30 19 1 19 20
M  V30 20 2 20 21
M  V30 21 1 21 22
M  V30 22 2 22 23
M  V30 23 1 23 24
M  V30 24 2 24 25
M  V30 25 1 19 26
M  V30 26 1 26 27
M  V30 27 1 27 28
M  V30 28 1 28 2
M  V30 29 1 28 5
M  V30 30 1 15 10
M  V30 31 2 27 17
M  V30 32 1 25 20
M  V30 33 1 1 29
M  V30 34 1 1 30
M  V30 35 1 1 31
M  V30 36 1 3 32
M  V30 37 1 4 33
M  V30 38 1 5 34
M  V30 39 1 7 35
M  V30 40 1 8 36
M  V30 41 1 8 37
M  V30 42 1 9 38
M  V30 43 1 9 39
M  V30 44 1 11 40
M  V30 45 1 11 41
M  V30 46 1 12 42
M  V30 47 1 12 43
M  V30 48 1 13 44
M  V30 49 1 13 45
M  V30 50 1 14 46
M  V30 51 1 14 47
M  V30 52 1 15 48
M  V30 53 1 15 49
M  V30 54 1 18 50
M  V30 55 1 21 51
M  V30 56 1 22 52
M  V30 57 1 23 53
M  V30 58 1 24 54
M  V30 59 1 25 55
M  V30 END BOND
M  V30 END CTAB
M  END
>  <Dataset>  (612) 
ChEMBL_Kinases

>  <Ligand_Instance>  (612) 
nan

>  <PDB_ID>  (612) 
nan

>  <Standardized_SMILES>  (612) 
CC1=CNC2C(NCCN3CCCCC3)=Nc3cc(-c4ccccc4)sc3N12

>  <Name>  (612) 
nan

>  <Pocket>  (612) 
nan

>  <ATP_Site>  (612) 
nan

>  <Peripheral>  (612) 
nan

>  <Num_H_Atoms_ProtBoundConf>  (612) 
nan

>  <Num_Resolved_Atoms>  (612) 
nan

>  <Num_Not_Resolved_Atoms>  (612) 
nan

$$$$
CHEMBL1831205
     RDKit          3D

  0  0  0  0  0  0  0  0  0  0999 V3000
M  V30 BEGIN CTAB
M  V30 COUNTS 36 37 0 0 0
M  V30 BEGIN ATOM
M  V30 1 C 0.744996 -4.979544 4.523548 0
M  V30 2 N 0.748609 -4.739019 3.092977 0
M  V30 3 C 0.428857 -3.520999 2.476768 0
M  V30 4 O 0.099969 -2.491989 3.108012 0
M  V30 5 N 0.450057 -3.342795 1.053839 0
M  V30 6 C 0.097652 -2.032480 0.555759 0
M  V30 7 C 1.059751 -1.104710 0.383658 0
M  V30 8 C 0.634927 0.147032 -0.105289 0
M  V30 9 C 1.419326 1.389618 -0.410936 0
M  V30 10 C 2.769846 1.401188 -0.213611 0
M  V30 11 C 3.393188 2.590973 -0.525344 0
M  V30 12 C 2.690429 3.677605 -0.999617 0
M  V30 13 C 1.325074 3.600017 -1.176700 0
M  V30 14 C 0.663366 2.417599 -0.873190 0
M  V30 15 O -0.707178 2.366054 -1.059906 0
M  V30 16 C -1.462096 3.448146 -1.540405 0
M  V30 17 S -1.173596 -0.084318 -0.296136 0
M  V30 18 C -1.188189 -1.742262 0.265450 0
M  V30 19 C -2.382223 -2.586007 0.374409 0
M  V30 20 N -3.638612 -2.035187 -0.000099 0
M  V30 21 O -2.236316 -3.754503 0.793464 0
M  V30 22 H -0.164378 -5.571335 4.756730 0
M  V30 23 H 0.741382 -3.988611 5.041330 0
M  V30 24 H 1.595390 -5.608185 4.844417 0
M  V30 25 H 1.001813 -5.501171 2.437069 0
M  V30 26 H 0.715193 -4.155604 0.450514 0
M  V30 27 H 2.122735 -1.168729 0.563843 0
M  V30 28 H 3.222449 0.494687 0.162124 0
M  V30 29 H 4.465083 2.623216 -0.376592 0
M  V30 30 H 3.245555 4.598928 -1.230218 0
M  V30 31 H 0.857255 4.495530 -1.550966 0
M  V30 32 H -0.942240 3.988332 -2.366761 0
M  V30 33 H -2.448863 3.065675 -1.922746 0
M  V30 34 H -1.591933 4.155329 -0.695494 0
M  V30 35 H -4.025837 -2.202775 -0.950480 0
M  V30 36 H -4.317774 -1.976582 -0.794437 0
M  V30 END ATOM
M  V30 BEGIN BOND
M  V30 1 1 1 2
M  V30 2 1 2 3
M  V30 3 2 3 4
M  V30 4 1 3 5
M  V30 5 1 5 6
M  V30 6 1 6 7
M  V30 7 2 7 8
M  V30 8 1 8 9
M  V30 9 2 9 10
M  V30 10 1 10 11
M  V30 11 2 11 12
M  V30 12 1 12 13
M  V30 13 2 13 14
M  V30 14 1 14 15
M  V30 15 1 15 16
M  V30 16 1 8 17
M  V30 17 1 17 18
M  V30 18 1 18 19
M  V30 19 1 19 20
M  V30 20 2 19 21
M  V30 21 2 18 6
M  V30 22 1 14 9
M  V30 23 1 1 22
M  V30 24 1 1 23
M  V30 25 1 1 24
M  V30 26 1 2 25
M  V30 27 1 5 26
M  V30 28 1 7 27
M  V30 29 1 10 28
M  V30 30 1 11 29
M  V30 31 1 12 30
M  V30 32 1 13 31
M  V30 33 1 16 32
M  V30 34 1 16 33
M  V30 35 1 16 34
M  V30 36 1 20 35
M  V30 37 1 20 36
M  V30 END BOND
M  V30 END CTAB
M  END
>  <Dataset>  (613) 
ChEMBL_Kinases

>  <Ligand_Instance>  (613) 
nan

>  <PDB_ID>  (613) 
nan

>  <Standardized_SMILES>  (613) 
CNC(=O)Nc1cc(-c2ccccc2OC)sc1C(N)=O

>  <Name>  (613) 
nan

>  <Pocket>  (613) 
nan

>  <ATP_Site>  (613) 
nan

>  <Peripheral>  (613) 
nan

>  <Num_H_Atoms_ProtBoundConf>  (613) 
nan

>  <Num_Resolved_Atoms>  (613) 
nan

>  <Num_Not_Resolved_Atoms>  (613) 
nan

$$$$
CHEMBL1831215
     RDKit          3D

  0  0  0  0  0  0  0  0  0  0999 V3000
M  V30 BEGIN CTAB
M  V30 COUNTS 28 29 0 0 0
M  V30 BEGIN ATOM
M  V30 1 C -0.599525 -2.519275 4.799581 0
M  V30 2 C 0.679884 -1.802576 4.567372 0
M  V30 3 O 1.551607 -1.697817 5.468456 0
M  V30 4 C 0.943670 -1.200868 3.265860 0
M  V30 5 N 0.149301 -1.200892 2.180639 0
M  V30 6 C 0.744045 -0.539201 1.165465 0
M  V30 7 C 0.238318 -0.296674 -0.195416 0
M  V30 8 C 1.060896 0.417133 -1.043271 0
M  V30 9 C 0.571592 0.642994 -2.335961 0
M  V30 10 C -0.676210 0.148781 -2.675895 0
M  V30 11 C -1.145726 0.423667 -4.076930 0
M  V30 12 C -1.466403 -0.561719 -1.792922 0
M  V30 13 C -1.010309 -0.806683 -0.492852 0
M  V30 14 O 1.918435 -0.131791 1.644609 0
M  V30 15 C 2.071185 -0.505937 2.886765 0
M  V30 16 N 3.193164 -0.255518 3.727919 0
M  V30 17 H -0.493283 -3.313009 5.572336 0
M  V30 18 H -1.407837 -1.841146 5.174278 0
M  V30 19 H -0.994626 -3.000084 3.869121 0
M  V30 20 H 2.022737 0.773389 -0.712984 0
M  V30 21 H 1.168828 1.195279 -3.045627 0
M  V30 22 H -0.633140 -0.219760 -4.823604 0
M  V30 23 H -2.220550 0.179532 -4.115117 0
M  V30 24 H -0.962909 1.483778 -4.348402 0
M  V30 25 H -2.439558 -0.939343 -2.079578 0
M  V30 26 H -1.569204 -1.351164 0.247607 0
M  V30 27 H 3.969564 -0.909226 3.997373 0
M  V30 28 H 3.541657 0.575145 4.273788 0
M  V30 END ATOM
M  V30 BEGIN BOND
M  V30 1 1 1 2
M  V30 2 2 2 3
M  V30 3 1 2 4
M  V30 4 1 4 5
M  V30 5 2 5 6
M  V30 6 1 6 7
M  V30 7 2 7 8
M  V30 8 1 8 9
M  V30 9 2 9 10
M  V30 10 1 10 11
M  V30 11 1 10 12
M  V30 12 2 12 13
M  V30 13 1 6 14
M  V30 14 1 14 15
M  V30 15 1 15 16
M  V30 16 2 15 4
M  V30 17 1 13 7
M  V30 18 1 1 17
M  V30 19 1 1 18
M  V30 20 1 1 19
M  V30 21 1 8 20
M  V30 22 1 9 21
M  V30 23 1 11 22
M  V30 24 1 11 23
M  V30 25 1 11 24
M  V30 26 1 12 25
M  V30 27 1 13 26
M  V30 28 1 16 27
M  V30 29 1 16 28
M  V30 END BOND
M  V30 END CTAB
M  END
>  <Dataset>  (614) 
ChEMBL_Kinases

>  <Ligand_Instance>  (614) 
nan

>  <PDB_ID>  (614) 
nan

>  <Standardized_SMILES>  (614) 
CC(=O)c1nc(-c2ccc(C)cc2)oc1N

>  <Name>  (614) 
nan

>  <Pocket>  (614) 
nan

>  <ATP_Site>  (614) 
nan

>  <Peripheral>  (614) 
nan

>  <Num_H_Atoms_ProtBoundConf>  (614) 
nan

>  <Num_Resolved_Atoms>  (614) 
nan

>  <Num_Not_Resolved_Atoms>  (614) 
nan

$$$$
CHEMBL1831207
     RDKit          3D

  0  0  0  0  0  0  0  0  0  0999 V3000
M  V30 BEGIN CTAB
M  V30 COUNTS 36 37 0 0 0
M  V30 BEGIN ATOM
M  V30 1 C -0.823557 -6.458834 2.187898 0
M  V30 2 N -1.404469 -5.284158 1.567162 0
M  V30 3 C -0.762616 -4.008084 1.584010 0
M  V30 4 O 0.340792 -3.923894 2.161266 0
M  V30 5 N -1.427024 -2.920033 0.940455 0
M  V30 6 C -0.897359 -1.600056 0.885017 0
M  V30 7 C -0.091593 -1.190264 -0.134045 0
M  V30 8 C 0.379767 0.127024 -0.100038 0
M  V30 9 C 1.265950 0.850757 -1.061299 0
M  V30 10 C 1.742255 0.217968 -2.175442 0
M  V30 11 C 2.541603 0.993160 -2.971316 0
M  V30 12 C 2.835755 2.305156 -2.664017 0
M  V30 13 C 2.326825 2.892225 -1.525621 0
M  V30 14 O 2.657124 4.210382 -1.271236 0
M  V30 15 C 2.180498 4.903186 -0.121273 0
M  V30 16 C 1.515770 2.150062 -0.692132 0
M  V30 17 S -0.361312 0.800377 1.451396 0
M  V30 18 C -1.224145 -0.728615 1.905102 0
M  V30 19 C -2.014168 -0.868186 3.057687 0
M  V30 20 N -2.184949 0.217091 3.958840 0
M  V30 21 O -2.552849 -1.985553 3.246065 0
M  V30 22 H -1.654288 -7.175692 2.445252 0
M  V30 23 H -0.232443 -6.201442 3.094728 0
M  V30 24 H -0.147034 -6.955671 1.461504 0
M  V30 25 H -2.342975 -5.372100 1.080431 0
M  V30 26 H -2.350588 -3.009307 0.462146 0
M  V30 27 H 0.228884 -1.778109 -0.978436 0
M  V30 28 H 1.436705 -0.804458 -2.295618 0
M  V30 29 H 2.926007 0.484037 -3.869566 0
M  V30 30 H 3.484558 2.804150 -3.386091 0
M  V30 31 H 1.076238 4.932845 -0.188487 0
M  V30 32 H 2.594605 5.923446 -0.070852 0
M  V30 33 H 2.414651 4.300858 0.803508 0
M  V30 34 H 1.140648 2.637895 0.179178 0
M  V30 35 H -2.856263 1.006549 4.049771 0
M  V30 36 H -1.547336 0.380417 4.779034 0
M  V30 END ATOM
M  V30 BEGIN BOND
M  V30 1 1 1 2
M  V30 2 1 2 3
M  V30 3 2 3 4
M  V30 4 1 3 5
M  V30 5 1 5 6
M  V30 6 1 6 7
M  V30 7 2 7 8
M  V30 8 1 8 9
M  V30 9 2 9 10
M  V30 10 1 10 11
M  V30 11 2 11 12
M  V30 12 1 12 13
M  V30 13 1 13 14
M  V30 14 1 14 15
M  V30 15 2 13 16
M  V30 16 1 8 17
M  V30 17 1 17 18
M  V30 18 1 18 19
M  V30 19 1 19 20
M  V30 20 2 19 21
M  V30 21 2 18 6
M  V30 22 1 16 9
M  V30 23 1 1 22
M  V30 24 1 1 23
M  V30 25 1 1 24
M  V30 26 1 2 25
M  V30 27 1 5 26
M  V30 28 1 7 27
M  V30 29 1 10 28
M  V30 30 1 11 29
M  V30 31 1 12 30
M  V30 32 1 15 31
M  V30 33 1 15 32
M  V30 34 1 15 33
M  V30 35 1 16 34
M  V30 36 1 20 35
M  V30 37 1 20 36
M  V30 END BOND
M  V30 END CTAB
M  END
>  <Dataset>  (615) 
ChEMBL_Kinases

>  <Ligand_Instance>  (615) 
nan

>  <PDB_ID>  (615) 
nan

>  <Standardized_SMILES>  (615) 
CNC(=O)Nc1cc(-c2cccc(OC)c2)sc1C(N)=O

>  <Name>  (615) 
nan

>  <Pocket>  (615) 
nan

>  <ATP_Site>  (615) 
nan

>  <Peripheral>  (615) 
nan

>  <Num_H_Atoms_ProtBoundConf>  (615) 
nan

>  <Num_Resolved_Atoms>  (615) 
nan

>  <Num_Not_Resolved_Atoms>  (615) 
nan

$$$$
CHEMBL1831208
     RDKit          3D

  0  0  0  0  0  0  0  0  0  0999 V3000
M  V30 BEGIN CTAB
M  V30 COUNTS 46 48 0 0 0
M  V30 BEGIN ATOM
M  V30 1 C -3.627619 -4.707191 -0.343064 0
M  V30 2 C -2.486744 -5.639263 -0.541417 0
M  V30 3 O -2.681126 -6.849776 -0.813697 0
M  V30 4 C -1.121773 -5.141082 -0.418121 0
M  V30 5 C -0.711935 -3.867859 -0.129674 0
M  V30 6 C 0.576936 -3.573166 -0.052473 0
M  V30 7 C 1.207501 -2.306385 0.236538 0
M  V30 8 C 1.715655 -1.239287 0.482433 0
M  V30 9 C 2.327898 0.035874 0.752033 0
M  V30 10 C 3.622437 0.221175 0.299172 0
M  V30 11 C 4.296533 1.406002 0.506772 0
M  V30 12 C 3.676297 2.442739 1.182314 0
M  V30 13 C 2.388585 2.218115 1.616367 0
M  V30 14 N 1.704104 3.268476 2.323666 0
M  V30 15 C 1.003759 4.089203 1.396028 0
M  V30 16 O 1.121685 3.742195 0.194443 0
M  V30 17 C 0.201082 5.245958 1.738076 0
M  V30 18 C -0.396556 5.906198 0.686775 0
M  V30 19 C -1.170324 7.018195 0.996304 0
M  V30 20 C -1.349153 7.463470 2.290891 0
M  V30 21 C -0.721731 6.755298 3.297015 0
M  V30 22 F -0.912887 7.210797 4.547527 0
M  V30 23 C 0.048492 5.656331 3.040493 0
M  V30 24 C 1.687814 1.051066 1.426892 0
M  V30 25 S 1.430476 -5.054807 -0.376513 0
M  V30 26 C -0.025769 -6.072607 -0.616958 0
M  V30 27 N -0.032950 -7.458116 -0.926993 0
M  V30 28 C -0.046713 -8.339398 0.164226 0
M  V30 29 N -0.055437 -9.759804 0.038854 0
M  V30 30 O -0.053456 -8.032925 1.399156 0
M  V30 31 H -3.441802 -3.840037 -1.043053 0
M  V30 32 H -4.581911 -5.135103 -0.691162 0
M  V30 33 H -3.670889 -4.261753 0.656410 0
M  V30 34 H -1.457211 -3.100448 0.035510 0
M  V30 35 H 4.183511 -0.526887 -0.234589 0
M  V30 36 H 5.315618 1.603431 0.171284 0
M  V30 37 H 4.119758 3.422051 1.400307 0
M  V30 38 H 1.629220 3.528137 3.342450 0
M  V30 39 H -0.287694 5.599698 -0.331606 0
M  V30 40 H -1.639555 7.538366 0.182500 0
M  V30 41 H -1.965178 8.336039 2.454486 0
M  V30 42 H 0.506035 5.152802 3.857868 0
M  V30 43 H 0.684632 0.892976 1.771916 0
M  V30 44 H -0.028540 -7.830714 -1.899868 0
M  V30 45 H -1.055583 -10.050264 -0.091159 0
M  V30 46 H -1.037197 -10.064187 -0.090457 0
M  V30 END ATOM
M  V30 BEGIN BOND
M  V30 1 1 1 2
M  V30 2 2 2 3
M  V30 3 1 2 4
M  V30 4 1 4 5
M  V30 5 2 5 6
M  V30 6 1 6 7
M  V30 7 3 7 8
M  V30 8 1 8 9
M  V30 9 2 9 10
M  V30 10 1 10 11
M  V30 11 2 11 12
M  V30 12 1 12 13
M  V30 13 1 13 14
M  V30 14 1 14 15
M  V30 15 2 15 16
M  V30 16 1 15 17
M  V30 17 2 17 18
M  V30 18 1 18 19
M  V30 19 2 19 20
M  V30 20 1 20 21
M  V30 21 1 21 22
M  V30 22 2 21 23
M  V30 23 2 13 24
M  V30 24 1 6 25
M  V30 25 1 25 26
M  V30 26 1 26 27
M  V30 27 1 27 28
M  V30 28 1 28 29
M  V30 29 2 28 30
M  V30 30 2 26 4
M  V30 31 1 24 9
M  V30 32 1 23 17
M  V30 33 1 1 31
M  V30 34 1 1 32
M  V30 35 1 1 33
M  V30 36 1 5 34
M  V30 37 1 10 35
M  V30 38 1 11 36
M  V30 39 1 12 37
M  V30 40 1 14 38
M  V30 41 1 18 39
M  V30 42 1 19 40
M  V30 43 1 20 41
M  V30 44 1 23 42
M  V30 45 1 24 43
M  V30 46 1 27 44
M  V30 47 1 29 45
M  V30 48 1 29 46
M  V30 END BOND
M  V30 END CTAB
M  END
>  <Dataset>  (616) 
ChEMBL_Kinases

>  <Ligand_Instance>  (616) 
nan

>  <PDB_ID>  (616) 
nan

>  <Standardized_SMILES>  (616) 
CC(=O)c1cc(C#Cc2cccc(NC(=O)c3cccc(F)c3)c2)sc1NC(N)=O

>  <Name>  (616) 
nan

>  <Pocket>  (616) 
nan

>  <ATP_Site>  (616) 
nan

>  <Peripheral>  (616) 
nan

>  <Num_H_Atoms_ProtBoundConf>  (616) 
nan

>  <Num_Resolved_Atoms>  (616) 
nan

>  <Num_Not_Resolved_Atoms>  (616) 
nan

$$$$
CHEMBL1831209
     RDKit          3D

  0  0  0  0  0  0  0  0  0  0999 V3000
M  V30 BEGIN CTAB
M  V30 COUNTS 34 37 0 0 0
M  V30 BEGIN ATOM
M  V30 1 C -1.909708 -2.610161 3.140576 0
M  V30 2 C -0.580366 -3.119065 2.686459 0
M  V30 3 C 0.326473 -4.030880 3.116758 0
M  V30 4 N 1.487401 -4.101958 2.231757 0
M  V30 5 C 0.804042 -3.750699 1.041261 0
M  V30 6 C 1.590742 -3.296700 -0.107762 0
M  V30 7 N 2.427245 -4.338172 -0.595960 0
M  V30 8 N 1.606071 -2.143808 -0.680742 0
M  V30 9 C 0.802205 -1.065921 -0.232318 0
M  V30 10 C 0.757884 0.162765 -0.806841 0
M  V30 11 C -0.127926 1.101147 -0.199408 0
M  V30 12 C -0.470786 2.482972 -0.487027 0
M  V30 13 C 0.174126 3.022694 -1.559917 0
M  V30 14 C -0.151869 4.354869 -1.842758 0
M  V30 15 C -1.077797 5.035731 -1.050811 0
M  V30 16 C -1.693762 4.403977 0.033693 0
M  V30 17 C -1.379811 3.080558 0.326885 0
M  V30 18 S -0.873835 0.103158 1.227852 0
M  V30 19 C 0.017895 -1.352855 0.878417 0
M  V30 20 N 0.027602 -2.592033 1.506957 0
M  V30 21 H -1.912306 -2.766163 4.240136 0
M  V30 22 H -2.761387 -3.124481 2.683653 0
M  V30 23 H -1.958449 -1.520011 2.961329 0
M  V30 24 H 0.052289 -4.565190 4.052793 0
M  V30 25 H 2.370137 -4.367762 2.730096 0
M  V30 26 H 0.105766 -4.548485 0.680846 0
M  V30 27 H 2.215961 -4.725417 -1.537341 0
M  V30 28 H 3.206338 -4.682240 -0.025868 0
M  V30 29 H 1.291242 0.544509 -1.657144 0
M  V30 30 H 0.885095 2.467213 -2.151224 0
M  V30 31 H 0.309198 4.847348 -2.664615 0
M  V30 32 H -1.309821 6.058894 -1.290671 0
M  V30 33 H -2.416938 4.919844 0.660401 0
M  V30 34 H -1.834559 2.572837 1.148783 0
M  V30 END ATOM
M  V30 BEGIN BOND
M  V30 1 1 1 2
M  V30 2 2 2 3
M  V30 3 1 3 4
M  V30 4 1 4 5
M  V30 5 1 5 6
M  V30 6 1 6 7
M  V30 7 2 6 8
M  V30 8 1 8 9
M  V30 9 1 9 10
M  V30 10 2 10 11
M  V30 11 1 11 12
M  V30 12 2 12 13
M  V30 13 1 13 14
M  V30 14 2 14 15
M  V30 15 1 15 16
M  V30 16 2 16 17
M  V30 17 1 11 18
M  V30 18 1 18 19
M  V30 19 1 19 20
M  V30 20 1 20 2
M  V30 21 1 20 5
M  V30 22 2 19 9
M  V30 23 1 17 12
M  V30 24 1 1 21
M  V30 25 1 1 22
M  V30 26 1 1 23
M  V30 27 1 3 24
M  V30 28 1 4 25
M  V30 29 1 5 26
M  V30 30 1 7 27
M  V30 31 1 7 28
M  V30 32 1 10 29
M  V30 33 1 13 30
M  V30 34 1 14 31
M  V30 35 1 15 32
M  V30 36 1 16 33
M  V30 37 1 17 34
M  V30 END BOND
M  V30 END CTAB
M  END
>  <Dataset>  (617) 
ChEMBL_Kinases

>  <Ligand_Instance>  (617) 
nan

>  <PDB_ID>  (617) 
nan

>  <Standardized_SMILES>  (617) 
CC1=CNC2C(N)=Nc3cc(-c4ccccc4)sc3N12

>  <Name>  (617) 
nan

>  <Pocket>  (617) 
nan

>  <ATP_Site>  (617) 
nan

>  <Peripheral>  (617) 
nan

>  <Num_H_Atoms_ProtBoundConf>  (617) 
nan

>  <Num_Resolved_Atoms>  (617) 
nan

>  <Num_Not_Resolved_Atoms>  (617) 
nan

$$$$
CHEMBL1831210
     RDKit          3D

  0  0  0  0  0  0  0  0  0  0999 V3000
M  V30 BEGIN CTAB
M  V30 COUNTS 43 45 0 0 0
M  V30 BEGIN ATOM
M  V30 1 C 2.243679 -4.529223 4.154937 0
M  V30 2 C 2.424421 -5.235741 2.858665 0
M  V30 3 O 2.709635 -6.458145 2.871700 0
M  V30 4 C 2.275763 -4.531314 1.563133 0
M  V30 5 C 1.967321 -3.203315 1.426292 0
M  V30 6 C 1.865448 -2.704318 0.228748 0
M  V30 7 C 1.539810 -1.290118 -0.153358 0
M  V30 8 C 1.268514 -0.151700 -0.441784 0
M  V30 9 C 0.933560 1.208787 -0.769270 0
M  V30 10 C 1.223255 1.622083 -2.055252 0
M  V30 11 C 0.900286 2.928725 -2.366230 0
M  V30 12 C 0.317536 3.801804 -1.461876 0
M  V30 13 C 0.065645 3.314038 -0.216948 0
M  V30 14 N -0.539279 4.199649 0.741933 0
M  V30 15 C -1.947691 4.201895 0.770753 0
M  V30 16 O -2.442983 3.417655 -0.059010 0
M  V30 17 C -2.633520 5.061905 1.703765 0
M  V30 18 C -3.932318 4.862618 1.515919 0
M  V30 19 C -4.866341 5.611578 2.334982 0
M  V30 20 S -3.727862 6.658689 3.432544 0
M  V30 21 C -2.120770 6.008319 2.705820 0
M  V30 22 C 0.354050 2.032978 0.173518 0
M  V30 23 S 2.176902 -3.979060 -0.895834 0
M  V30 24 C 2.458206 -5.250731 0.382985 0
M  V30 25 N 2.785332 -6.639915 0.161794 0
M  V30 26 C 1.656105 -7.462950 0.061646 0
M  V30 27 N 1.822859 -8.861709 -0.157245 0
M  V30 28 O 0.454280 -7.079718 0.148602 0
M  V30 29 H 3.170380 -4.156986 4.598174 0
M  V30 30 H 1.684074 -5.214107 4.838612 0
M  V30 31 H 1.569012 -3.647740 4.021902 0
M  V30 32 H 1.809081 -2.571692 2.304929 0
M  V30 33 H 1.679122 0.937253 -2.760917 0
M  V30 34 H 1.118297 3.282162 -3.375820 0
M  V30 35 H 0.095173 4.807766 -1.781039 0
M  V30 36 H 0.022727 4.804272 1.378310 0
M  V30 37 H -4.734156 4.381120 1.016627 0
M  V30 38 H -5.767603 6.088864 2.862897 0
M  V30 39 H -0.934353 5.999963 2.673780 0
M  V30 40 H 0.137214 1.692353 1.166955 0
M  V30 41 H 3.766591 -6.975299 0.087385 0
M  V30 42 H 2.054879 -9.868671 -0.278189 0
M  V30 43 H 1.072685 -9.491402 -0.525744 0
M  V30 END ATOM
M  V30 BEGIN BOND
M  V30 1 1 1 2
M  V30 2 2 2 3
M  V30 3 1 2 4
M  V30 4 1 4 5
M  V30 5 2 5 6
M  V30 6 1 6 7
M  V30 7 3 7 8
M  V30 8 1 8 9
M  V30 9 2 9 10
M  V30 10 1 10 11
M  V30 11 2 11 12
M  V30 12 1 12 13
M  V30 13 1 13 14
M  V30 14 1 14 15
M  V30 15 2 15 16
M  V30 16 1 15 17
M  V30 17 1 17 18
M  V30 18 2 18 19
M  V30 19 1 19 20
M  V30 20 1 20 21
M  V30 21 2 13 22
M  V30 22 1 6 23
M  V30 23 1 23 24
M  V30 24 1 24 25
M  V30 25 1 25 26
M  V30 26 1 26 27
M  V30 27 2 26 28
M  V30 28 2 24 4
M  V30 29 1 22 9
M  V30 30 2 21 17
M  V30 31 1 1 29
M  V30 32 1 1 30
M  V30 33 1 1 31
M  V30 34 1 5 32
M  V30 35 1 10 33
M  V30 36 1 11 34
M  V30 37 1 12 35
M  V30 38 1 14 36
M  V30 39 1 18 37
M  V30 40 1 19 38
M  V30 41 1 21 39
M  V30 42 1 22 40
M  V30 43 1 25 41
M  V30 44 1 27 42
M  V30 45 1 27 43
M  V30 END BOND
M  V30 END CTAB
M  END
>  <Dataset>  (618) 
ChEMBL_Kinases

>  <Ligand_Instance>  (618) 
nan

>  <PDB_ID>  (618) 
nan

>  <Standardized_SMILES>  (618) 
CC(=O)c1cc(C#Cc2cccc(NC(=O)c3ccsc3)c2)sc1NC(N)=O

>  <Name>  (618) 
nan

>  <Pocket>  (618) 
nan

>  <ATP_Site>  (618) 
nan

>  <Peripheral>  (618) 
nan

>  <Num_H_Atoms_ProtBoundConf>  (618) 
nan

>  <Num_Resolved_Atoms>  (618) 
nan

>  <Num_Not_Resolved_Atoms>  (618) 
nan

$$$$
CHEMBL1831211
     RDKit          3D

  0  0  0  0  0  0  0  0  0  0999 V3000
M  V30 BEGIN CTAB
M  V30 COUNTS 46 48 0 0 0
M  V30 BEGIN ATOM
M  V30 1 C -2.169000 -5.258032 4.541691 0
M  V30 2 C -1.757345 -5.981169 3.335315 0
M  V30 3 O -2.169201 -7.139054 3.166527 0
M  V30 4 C -0.868507 -5.351265 2.332918 0
M  V30 5 C -0.345413 -4.086458 2.398262 0
M  V30 6 C 0.425949 -3.660257 1.440271 0
M  V30 7 C 1.087460 -2.322567 1.330838 0
M  V30 8 C 1.614919 -1.243071 1.255708 0
M  V30 9 C 2.261955 0.034116 1.157557 0
M  V30 10 C 3.635358 0.045521 1.101664 0
M  V30 11 C 4.255200 1.287726 1.006161 0
M  V30 12 C 3.551763 2.476899 0.966921 0
M  V30 13 C 2.169357 2.402934 1.026753 0
M  V30 14 N 1.487887 3.670544 0.981930 0
M  V30 15 C 1.185478 4.056106 -0.345008 0
M  V30 16 O 1.618087 3.141036 -1.130050 0
M  V30 17 C 0.512004 5.253189 -0.800907 0
M  V30 18 C 0.362430 5.335944 -2.190297 0
M  V30 19 C -0.259758 6.418207 -2.772134 0
M  V30 20 C -0.762459 7.460341 -2.061207 0
M  V30 21 C -0.623152 7.394019 -0.691588 0
M  V30 22 C -0.003201 6.317341 -0.100011 0
M  V30 23 F 0.149693 6.221657 1.238907 0
M  V30 24 C 1.510281 1.193155 1.121984 0
M  V30 25 S 0.568493 -4.932682 0.273124 0
M  V30 26 C -0.496174 -6.093517 1.175845 0
M  V30 27 N -0.867911 -7.442091 0.799738 0
M  V30 28 C -2.009538 -7.745534 0.025964 0
M  V30 29 N -2.226554 -9.118998 -0.251803 0
M  V30 30 O -2.668105 -6.742918 -0.303431 0
M  V30 31 H -3.190394 -5.597635 4.828580 0
M  V30 32 H -2.198810 -4.155275 4.407655 0
M  V30 33 H -1.485902 -5.540719 5.389698 0
M  V30 34 H -0.582295 -3.449896 3.254757 0
M  V30 35 H 4.230020 -0.863136 1.129374 0
M  V30 36 H 5.351777 1.317060 0.960392 0
M  V30 37 H 4.065235 3.428724 0.892174 0
M  V30 38 H 1.199719 4.313361 1.750987 0
M  V30 39 H 0.732346 4.547667 -2.864805 0
M  V30 40 H -0.355858 6.445484 -3.848069 0
M  V30 41 H -1.253203 8.317319 -2.495742 0
M  V30 42 H -0.983196 8.162549 -0.027106 0
M  V30 43 H 0.428917 1.195059 1.165416 0
M  V30 44 H -0.204078 -8.154227 1.161295 0
M  V30 45 H -3.012914 -9.299602 -0.919777 0
M  V30 46 H -3.023066 -9.304326 -0.928571 0
M  V30 END ATOM
M  V30 BEGIN BOND
M  V30 1 1 1 2
M  V30 2 2 2 3
M  V30 3 1 2 4
M  V30 4 1 4 5
M  V30 5 2 5 6
M  V30 6 1 6 7
M  V30 7 3 7 8
M  V30 8 1 8 9
M  V30 9 2 9 10
M  V30 10 1 10 11
M  V30 11 2 11 12
M  V30 12 1 12 13
M  V30 13 1 13 14
M  V30 14 1 14 15
M  V30 15 2 15 16
M  V30 16 1 15 17
M  V30 17 2 17 18
M  V30 18 1 18 19
M  V30 19 2 19 20
M  V30 20 1 20 21
M  V30 21 2 21 22
M  V30 22 1 22 23
M  V30 23 2 13 24
M  V30 24 1 6 25
M  V30 25 1 25 26
M  V30 26 1 26 27
M  V30 27 1 27 28
M  V30 28 1 28 29
M  V30 29 2 28 30
M  V30 30 2 26 4
M  V30 31 1 24 9
M  V30 32 1 22 17
M  V30 33 1 1 31
M  V30 34 1 1 32
M  V30 35 1 1 33
M  V30 36 1 5 34
M  V30 37 1 10 35
M  V30 38 1 11 36
M  V30 39 1 12 37
M  V30 40 1 14 38
M  V30 41 1 18 39
M  V30 42 1 19 40
M  V30 43 1 20 41
M  V30 44 1 21 42
M  V30 45 1 24 43
M  V30 46 1 27 44
M  V30 47 1 29 45
M  V30 48 1 29 46
M  V30 END BOND
M  V30 END CTAB
M  END
>  <Dataset>  (619) 
ChEMBL_Kinases

>  <Ligand_Instance>  (619) 
nan

>  <PDB_ID>  (619) 
nan

>  <Standardized_SMILES>  (619) 
CC(=O)c1cc(C#Cc2cccc(NC(=O)c3ccccc3F)c2)sc1NC(N)=O

>  <Name>  (619) 
nan

>  <Pocket>  (619) 
nan

>  <ATP_Site>  (619) 
nan

>  <Peripheral>  (619) 
nan

>  <Num_H_Atoms_ProtBoundConf>  (619) 
nan

>  <Num_Resolved_Atoms>  (619) 
nan

>  <Num_Not_Resolved_Atoms>  (619) 
nan

$$$$
CHEMBL1831212
     RDKit          3D

  0  0  0  0  0  0  0  0  0  0999 V3000
M  V30 BEGIN CTAB
M  V30 COUNTS 60 63 0 0 0
M  V30 BEGIN ATOM
M  V30 1 C 7.836312 -0.369980 4.250480 0
M  V30 2 C 6.777793 -0.097748 5.241458 0
M  V30 3 O 7.166562 -0.350211 6.406827 0
M  V30 4 C 5.424137 0.400309 5.004876 0
M  V30 5 C 5.060495 0.656385 3.731805 0
M  V30 6 C 3.756050 1.130992 3.572287 0
M  V30 7 C 3.006749 1.516857 2.369093 0
M  V30 8 C 2.390899 1.814504 1.389469 0
M  V30 9 C 1.655328 2.150254 0.204893 0
M  V30 10 C 2.056278 3.105401 -0.718332 0
M  V30 11 C 1.289297 3.371240 -1.837689 0
M  V30 12 C 0.105247 2.694565 -2.067225 0
M  V30 13 C -0.336132 1.734119 -1.176474 0
M  V30 14 N -1.537557 0.991105 -1.334160 0
M  V30 15 C -2.849783 1.255771 -0.893866 0
M  V30 16 O -3.077620 2.307474 -0.244833 0
M  V30 17 C -3.957783 0.353332 -1.163168 0
M  V30 18 C -5.200828 0.706189 -0.678479 0
M  V30 19 C -6.260839 -0.136097 -0.924616 0
M  V30 20 C -6.092585 -1.292680 -1.629910 0
M  V30 21 C -4.878473 -1.695630 -2.137058 0
M  V30 22 N -4.781928 -2.894823 -2.850702 0
M  V30 23 C -3.697402 -3.547897 -3.473366 0
M  V30 24 O -2.582114 -2.962153 -3.388500 0
M  V30 25 C -3.768460 -4.801660 -4.180210 0
M  V30 26 C -4.900445 -5.564280 -4.369429 0
M  V30 27 C -4.923239 -6.761386 -5.053089 0
M  V30 28 C -3.766327 -7.255381 -5.592201 0
M  V30 29 C -2.595054 -6.529396 -5.432642 0
M  V30 30 C -2.638107 -5.349846 -4.744546 0
M  V30 31 C -3.857480 -0.826203 -1.866430 0
M  V30 32 C 0.463973 1.504897 -0.074952 0
M  V30 33 S 3.098124 1.189159 5.288459 0
M  V30 34 C 4.580755 0.593236 6.030980 0
M  V30 35 N 4.681741 0.416091 7.440796 0
M  V30 36 C 3.551049 0.735275 8.242252 0
M  V30 37 N 3.611559 0.570650 9.673657 0
M  V30 38 O 2.440618 1.172185 7.796849 0
M  V30 39 H 7.483165 -0.167837 3.210454 0
M  V30 40 H 8.217812 -1.423069 4.312377 0
M  V30 41 H 8.665576 0.329749 4.479781 0
M  V30 42 H 5.601662 0.559691 2.804350 0
M  V30 43 H 2.992351 3.627805 -0.519622 0
M  V30 44 H 1.602696 4.116981 -2.557291 0
M  V30 45 H -0.515495 2.888034 -2.943180 0
M  V30 46 H -1.276247 0.152162 -1.868925 0
M  V30 47 H -5.414063 1.607349 -0.109999 0
M  V30 48 H -7.246360 0.116478 -0.556006 0
M  V30 49 H -6.979906 -1.919152 -1.790774 0
M  V30 50 H -5.670725 -3.460587 -2.974660 0
M  V30 51 H -5.833576 -5.215446 -3.963931 0
M  V30 52 H -5.823975 -7.332766 -5.183558 0
M  V30 53 H -3.790234 -8.194574 -6.127338 0
M  V30 54 H -1.690546 -6.933991 -5.864680 0
M  V30 55 H -1.680415 -4.840368 -4.663166 0
M  V30 56 H -2.862143 -1.044137 -2.217623 0
M  V30 57 H 0.134965 0.756451 0.634676 0
M  V30 58 H 5.495796 0.077421 7.950247 0
M  V30 59 H 2.753435 0.482300 10.259387 0
M  V30 60 H 4.542090 0.537921 10.142045 0
M  V30 END ATOM
M  V30 BEGIN BOND
M  V30 1 1 1 2
M  V30 2 2 2 3
M  V30 3 1 2 4
M  V30 4 1 4 5
M  V30 5 2 5 6
M  V30 6 1 6 7
M  V30 7 3 7 8
M  V30 8 1 8 9
M  V30 9 2 9 10
M  V30 10 1 10 11
M  V30 11 2 11 12
M  V30 12 1 12 13
M  V30 13 1 13 14
M  V30 14 1 14 15
M  V30 15 2 15 16
M  V30 16 1 15 17
M  V30 17 2 17 18
M  V30 18 1 18 19
M  V30 19 2 19 20
M  V30 20 1 20 21
M  V30 21 1 21 22
M  V30 22 1 22 23
M  V30 23 2 23 24
M  V30 24 1 23 25
M  V30 25 2 25 26
M  V30 26 1 26 27
M  V30 27 2 27 28
M  V30 28 1 28 29
M  V30 29 2 29 30
M  V30 30 2 21 31
M  V30 31 2 13 32
M  V30 32 1 6 33
M  V30 33 1 33 34
M  V30 34 1 34 35
M  V30 35 1 35 36
M  V30 36 1 36 37
M  V30 37 2 36 38
M  V30 38 2 34 4
M  V30 39 1 32 9
M  V30 40 1 31 17
M  V30 41 1 30 25
M  V30 42 1 1 39
M  V30 43 1 1 40
M  V30 44 1 1 41
M  V30 45 1 5 42
M  V30 46 1 10 43
M  V30 47 1 11 44
M  V30 48 1 12 45
M  V30 49 1 14 46
M  V30 50 1 18 47
M  V30 51 1 19 48
M  V30 52 1 20 49
M  V30 53 1 22 50
M  V30 54 1 26 51
M  V30 55 1 27 52
M  V30 56 1 28 53
M  V30 57 1 29 54
M  V30 58 1 30 55
M  V30 59 1 31 56
M  V30 60 1 32 57
M  V30 61 1 35 58
M  V30 62 1 37 59
M  V30 63 1 37 60
M  V30 END BOND
M  V30 END CTAB
M  END
>  <Dataset>  (620) 
ChEMBL_Kinases

>  <Ligand_Instance>  (620) 
nan

>  <PDB_ID>  (620) 
nan

>  <Standardized_SMILES>  (620) 
CC(=O)c1cc(C#Cc2cccc(NC(=O)c3cccc(NC(=O)c4ccccc4)c3)c2)sc1NC(N)=O

>  <Name>  (620) 
nan

>  <Pocket>  (620) 
nan

>  <ATP_Site>  (620) 
nan

>  <Peripheral>  (620) 
nan

>  <Num_H_Atoms_ProtBoundConf>  (620) 
nan

>  <Num_Resolved_Atoms>  (620) 
nan

>  <Num_Not_Resolved_Atoms>  (620) 
nan

$$$$
CHEMBL1831213
     RDKit          3D

  0  0  0  0  0  0  0  0  0  0999 V3000
M  V30 BEGIN CTAB
M  V30 COUNTS 37 38 0 0 0
M  V30 BEGIN ATOM
M  V30 1 C 1.445970 -1.468158 6.228008 0
M  V30 2 C 2.058910 -2.541315 5.398503 0
M  V30 3 O 2.753142 -3.547477 5.721717 0
M  V30 4 C 1.840289 -2.448508 3.945186 0
M  V30 5 N 1.156273 -1.520412 3.244571 0
M  V30 6 C 1.195843 -1.798906 1.929045 0
M  V30 7 C 0.586399 -1.050136 0.833315 0
M  V30 8 C 0.753363 -1.518304 -0.454193 0
M  V30 9 C 0.206250 -0.862906 -1.539527 0
M  V30 10 C -0.529658 0.292823 -1.344355 0
M  V30 11 C -1.196757 1.143158 -2.358691 0
M  V30 12 C -0.968584 0.567390 -3.731931 0
M  V30 13 C -2.692609 1.210259 -2.146334 0
M  V30 14 C -0.629331 2.547480 -2.342018 0
M  V30 15 C -0.691773 0.756708 -0.037993 0
M  V30 16 C -0.144394 0.100836 1.046907 0
M  V30 17 O 1.892057 -2.886345 1.780836 0
M  V30 18 C 2.309029 -3.326579 2.965100 0
M  V30 19 N 3.090371 -4.485475 3.169742 0
M  V30 20 H 1.847365 -0.473430 5.880428 0
M  V30 21 H 0.340521 -1.394853 6.081205 0
M  V30 22 H 1.711209 -1.542315 7.287797 0
M  V30 23 H 1.305895 -2.406474 -0.724045 0
M  V30 24 H 0.284233 -1.152547 -2.569450 0
M  V30 25 H -1.589986 1.194449 -4.432669 0
M  V30 26 H 0.072880 0.727991 -4.072279 0
M  V30 27 H -1.295124 -0.481965 -3.818312 0
M  V30 28 H -3.004652 0.803943 -1.152614 0
M  V30 29 H -3.087611 2.246182 -2.205694 0
M  V30 30 H -3.249619 0.600516 -2.904318 0
M  V30 31 H -0.994068 3.131237 -1.467251 0
M  V30 32 H -1.011886 3.092280 -3.229855 0
M  V30 33 H 0.488556 2.472839 -2.328410 0
M  V30 34 H -1.251288 1.654197 0.223974 0
M  V30 35 H -0.255344 0.439133 2.066876 0
M  V30 36 H 2.857580 -5.427919 2.803260 0
M  V30 37 H 3.994197 -4.603822 3.696439 0
M  V30 END ATOM
M  V30 BEGIN BOND
M  V30 1 1 1 2
M  V30 2 2 2 3
M  V30 3 1 2 4
M  V30 4 1 4 5
M  V30 5 2 5 6
M  V30 6 1 6 7
M  V30 7 2 7 8
M  V30 8 1 8 9
M  V30 9 2 9 10
M  V30 10 1 10 11
M  V30 11 1 11 12
M  V30 12 1 11 13
M  V30 13 1 11 14
M  V30 14 1 10 15
M  V30 15 2 15 16
M  V30 16 1 6 17
M  V30 17 1 17 18
M  V30 18 1 18 19
M  V30 19 2 18 4
M  V30 20 1 16 7
M  V30 21 1 1 20
M  V30 22 1 1 21
M  V30 23 1 1 22
M  V30 24 1 8 23
M  V30 25 1 9 24
M  V30 26 1 12 25
M  V30 27 1 12 26
M  V30 28 1 12 27
M  V30 29 1 13 28
M  V30 30 1 13 29
M  V30 31 1 13 30
M  V30 32 1 14 31
M  V30 33 1 14 32
M  V30 34 1 14 33
M  V30 35 1 15 34
M  V30 36 1 16 35
M  V30 37 1 19 36
M  V30 38 1 19 37
M  V30 END BOND
M  V30 END CTAB
M  END
>  <Dataset>  (621) 
ChEMBL_Kinases

>  <Ligand_Instance>  (621) 
nan

>  <PDB_ID>  (621) 
nan

>  <Standardized_SMILES>  (621) 
CC(=O)c1nc(-c2ccc(C(C)(C)C)cc2)oc1N

>  <Name>  (621) 
nan

>  <Pocket>  (621) 
nan

>  <ATP_Site>  (621) 
nan

>  <Peripheral>  (621) 
nan

>  <Num_H_Atoms_ProtBoundConf>  (621) 
nan

>  <Num_Resolved_Atoms>  (621) 
nan

>  <Num_Not_Resolved_Atoms>  (621) 
nan

$$$$
CHEMBL1831214
     RDKit          3D

  0  0  0  0  0  0  0  0  0  0999 V3000
M  V30 BEGIN CTAB
M  V30 COUNTS 29 30 0 0 0
M  V30 BEGIN ATOM
M  V30 1 N 0.933361 -3.982215 4.519574 0
M  V30 2 C 1.218999 -2.820434 3.759693 0
M  V30 3 O 2.332193 -2.250559 3.809429 0
M  V30 4 N 0.160793 -2.349521 2.941996 0
M  V30 5 C 0.036278 -1.230035 2.036233 0
M  V30 6 C 0.330588 -1.243710 0.693729 0
M  V30 7 C 0.158430 -0.119610 0.002140 0
M  V30 8 C 0.414631 0.087092 -1.455836 0
M  V30 9 C 0.876747 -0.935160 -2.239488 0
M  V30 10 C 1.114657 -0.742544 -3.594272 0
M  V30 11 C 0.867799 0.517081 -4.119911 0
M  V30 12 C 0.397897 1.552557 -3.317769 0
M  V30 13 C 0.161316 1.348928 -1.954549 0
M  V30 14 S -0.423666 1.064388 1.126461 0
M  V30 15 C -0.421127 -0.055290 2.596333 0
M  V30 16 C -0.818830 0.358073 3.887953 0
M  V30 17 N -1.251126 1.692294 4.120935 0
M  V30 18 O -0.751007 -0.539691 4.762409 0
M  V30 19 H 1.356916 -4.934132 4.575427 0
M  V30 20 H 0.224189 -4.256233 5.251953 0
M  V30 21 H -0.778879 -2.838327 2.905908 0
M  V30 22 H 0.692338 -2.150640 0.221465 0
M  V30 23 H 1.056752 -1.914921 -1.775148 0
M  V30 24 H 1.479457 -1.589195 -4.160439 0
M  V30 25 H 1.063940 0.631408 -5.178015 0
M  V30 26 H 0.221329 2.516478 -3.777089 0
M  V30 27 H -0.201699 2.147376 -1.332951 0
M  V30 28 H -0.435716 2.316318 4.354878 0
M  V30 29 H -2.293664 1.667823 3.987647 0
M  V30 END ATOM
M  V30 BEGIN BOND
M  V30 1 1 1 2
M  V30 2 2 2 3
M  V30 3 1 2 4
M  V30 4 1 4 5
M  V30 5 1 5 6
M  V30 6 2 6 7
M  V30 7 1 7 8
M  V30 8 2 8 9
M  V30 9 1 9 10
M  V30 10 2 10 11
M  V30 11 1 11 12
M  V30 12 2 12 13
M  V30 13 1 7 14
M  V30 14 1 14 15
M  V30 15 1 15 16
M  V30 16 1 16 17
M  V30 17 2 16 18
M  V30 18 2 15 5
M  V30 19 1 13 8
M  V30 20 1 1 19
M  V30 21 1 1 20
M  V30 22 1 4 21
M  V30 23 1 6 22
M  V30 24 1 9 23
M  V30 25 1 10 24
M  V30 26 1 11 25
M  V30 27 1 12 26
M  V30 28 1 13 27
M  V30 29 1 17 28
M  V30 30 1 17 29
M  V30 END BOND
M  V30 END CTAB
M  END
>  <Dataset>  (622) 
ChEMBL_Kinases

>  <Ligand_Instance>  (622) 
nan

>  <PDB_ID>  (622) 
nan

>  <Standardized_SMILES>  (622) 
NC(=O)Nc1cc(-c2ccccc2)sc1C(N)=O

>  <Name>  (622) 
nan

>  <Pocket>  (622) 
nan

>  <ATP_Site>  (622) 
nan

>  <Peripheral>  (622) 
nan

>  <Num_H_Atoms_ProtBoundConf>  (622) 
nan

>  <Num_Resolved_Atoms>  (622) 
nan

>  <Num_Not_Resolved_Atoms>  (622) 
nan

$$$$
CHEMBL1831206
     RDKit          3D

  0  0  0  0  0  0  0  0  0  0999 V3000
M  V30 BEGIN CTAB
M  V30 COUNTS 43 45 0 0 0
M  V30 BEGIN ATOM
M  V30 1 C 4.594061 -4.083235 3.197875 0
M  V30 2 C 3.584163 -4.990511 2.597009 0
M  V30 3 O 3.639810 -6.212583 2.871209 0
M  V30 4 C 2.527557 -4.487946 1.693201 0
M  V30 5 C 2.380758 -3.176135 1.332511 0
M  V30 6 C 1.410888 -2.845079 0.527728 0
M  V30 7 C 1.043621 -1.501120 -0.007550 0
M  V30 8 C 0.760797 -0.408284 -0.425728 0
M  V30 9 C 0.418710 0.905121 -0.901836 0
M  V30 10 C 0.207341 1.103676 -2.251057 0
M  V30 11 C -0.123520 2.395246 -2.674180 0
M  V30 12 C -0.226278 3.417004 -1.737010 0
M  V30 13 C -0.007222 3.180675 -0.391352 0
M  V30 14 N -0.147294 4.320929 0.451081 0
M  V30 15 C -1.494839 4.425796 0.898152 0
M  V30 16 O -2.423201 3.607616 0.578569 0
M  V30 17 C -2.014053 5.496053 1.796248 0
M  V30 18 C -3.030118 5.197545 2.807734 0
M  V30 19 C -3.416719 6.020661 1.580150 0
M  V30 20 C 0.319819 1.910159 0.037532 0
M  V30 21 S 0.549161 -4.327482 0.149000 0
M  V30 22 C 1.628772 -5.387454 1.175779 0
M  V30 23 N 1.389035 -6.801762 1.260151 0
M  V30 24 C 0.316391 -7.372047 0.547422 0
M  V30 25 N 0.081864 -8.772817 0.633217 0
M  V30 26 O -0.494434 -6.748611 -0.191009 0
M  V30 27 H 5.516463 -4.666712 3.374097 0
M  V30 28 H 4.831693 -3.276700 2.457581 0
M  V30 29 H 4.276264 -3.668806 4.185873 0
M  V30 30 H 3.049343 -2.405987 1.698293 0
M  V30 31 H 0.288038 0.308725 -2.974187 0
M  V30 32 H -0.297683 2.589502 -3.733012 0
M  V30 33 H -0.488913 4.400569 -2.144500 0
M  V30 34 H 0.512020 5.062909 0.791406 0
M  V30 35 H -1.203128 6.214738 2.078181 0
M  V30 36 H -3.508674 4.179148 2.884919 0
M  V30 37 H -3.021642 5.689168 3.803344 0
M  V30 38 H -3.984060 5.507596 0.790794 0
M  V30 39 H -3.555869 7.118847 1.705435 0
M  V30 40 H 0.473738 1.808677 1.094460 0
M  V30 41 H 1.969380 -7.416175 1.820539 0
M  V30 42 H -0.835843 -8.977419 1.086352 0
M  V30 43 H 0.478770 -9.712875 0.414366 0
M  V30 END ATOM
M  V30 BEGIN BOND
M  V30 1 1 1 2
M  V30 2 2 2 3
M  V30 3 1 2 4
M  V30 4 1 4 5
M  V30 5 2 5 6
M  V30 6 1 6 7
M  V30 7 3 7 8
M  V30 8 1 8 9
M  V30 9 2 9 10
M  V30 10 1 10 11
M  V30 11 2 11 12
M  V30 12 1 12 13
M  V30 13 1 13 14
M  V30 14 1 14 15
M  V30 15 2 15 16
M  V30 16 1 15 17
M  V30 17 1 17 18
M  V30 18 1 18 19
M  V30 19 2 13 20
M  V30 20 1 6 21
M  V30 21 1 21 22
M  V30 22 1 22 23
M  V30 23 1 23 24
M  V30 24 1 24 25
M  V30 25 2 24 26
M  V30 26 2 22 4
M  V30 27 1 20 9
M  V30 28 1 19 17
M  V30 29 1 1 27
M  V30 30 1 1 28
M  V30 31 1 1 29
M  V30 32 1 5 30
M  V30 33 1 10 31
M  V30 34 1 11 32
M  V30 35 1 12 33
M  V30 36 1 14 34
M  V30 37 1 17 35
M  V30 38 1 18 36
M  V30 39 1 18 37
M  V30 40 1 19 38
M  V30 41 1 19 39
M  V30 42 1 20 40
M  V30 43 1 23 41
M  V30 44 1 25 42
M  V30 45 1 25 43
M  V30 END BOND
M  V30 END CTAB
M  END
>  <Dataset>  (623) 
ChEMBL_Kinases

>  <Ligand_Instance>  (623) 
nan

>  <PDB_ID>  (623) 
nan

>  <Standardized_SMILES>  (623) 
CC(=O)c1cc(C#Cc2cccc(NC(=O)C3CC3)c2)sc1NC(N)=O

>  <Name>  (623) 
nan

>  <Pocket>  (623) 
nan

>  <ATP_Site>  (623) 
nan

>  <Peripheral>  (623) 
nan

>  <Num_H_Atoms_ProtBoundConf>  (623) 
nan

>  <Num_Resolved_Atoms>  (623) 
nan

>  <Num_Not_Resolved_Atoms>  (623) 
nan

$$$$
CHEMBL187682
     RDKit          3D

  0  0  0  0  0  0  0  0  0  0999 V3000
M  V30 BEGIN CTAB
M  V30 COUNTS 30 31 0 0 0
M  V30 BEGIN ATOM
M  V30 1 O -0.542135 -0.710052 3.220398 0
M  V30 2 C 0.071606 -0.436572 2.119649 0
M  V30 3 C -0.477178 -1.260160 1.074248 0
M  V30 4 C -0.314509 -1.471851 -0.212169 0
M  V30 5 C -0.997599 -2.384798 -1.120972 0
M  V30 6 C -2.008372 -3.245596 -0.749952 0
M  V30 7 C -2.650946 -4.107709 -1.615837 0
M  V30 8 C -2.234849 -4.085880 -2.931891 0
M  V30 9 C -1.225062 -3.232939 -3.326971 0
M  V30 10 C -0.602885 -2.384128 -2.439488 0
M  V30 11 C 1.097906 0.578164 2.233097 0
M  V30 12 C 1.917122 1.085657 1.250692 0
M  V30 13 C 2.875844 2.042409 1.392282 0
M  V30 14 C 3.032038 2.543296 2.643051 0
M  V30 15 C 2.277061 2.117936 3.698970 0
M  V30 16 N 2.459212 2.656686 4.995625 0 CHG=1 VAL=4
M  V30 17 O 1.754930 2.247328 5.934920 0
M  V30 18 O 1.681216 2.204125 6.031957 0 CHG=-1 VAL=1
M  V30 19 C 1.340328 1.155225 3.461475 0
M  V30 20 H -1.289343 -1.961834 1.337982 0
M  V30 21 H 0.455142 -0.846517 -0.601114 0
M  V30 22 H -2.347824 -3.280503 0.264296 0
M  V30 23 H -3.444299 -4.767157 -1.268662 0
M  V30 24 H -2.716760 -4.748844 -3.638474 0
M  V30 25 H -0.912783 -3.227168 -4.351382 0
M  V30 26 H 0.189302 -1.735127 -2.819898 0
M  V30 27 H 1.810404 0.703383 0.252198 0
M  V30 28 H 3.477426 2.388112 0.574943 0
M  V30 29 H 3.769411 3.304656 2.843188 0
M  V30 30 H 0.758472 0.842718 4.330744 0
M  V30 END ATOM
M  V30 BEGIN BOND
M  V30 1 2 1 2
M  V30 2 1 2 3
M  V30 3 2 3 4
M  V30 4 1 4 5
M  V30 5 2 5 6
M  V30 6 1 6 7
M  V30 7 2 7 8
M  V30 8 1 8 9
M  V30 9 2 9 10
M  V30 10 1 2 11
M  V30 11 2 11 12
M  V30 12 1 12 13
M  V30 13 2 13 14
M  V30 14 1 14 15
M  V30 15 1 15 16
M  V30 16 2 16 17
M  V30 17 1 16 18
M  V30 18 2 15 19
M  V30 19 1 10 5
M  V30 20 1 19 11
M  V30 21 1 3 20
M  V30 22 1 4 21
M  V30 23 1 6 22
M  V30 24 1 7 23
M  V30 25 1 8 24
M  V30 26 1 9 25
M  V30 27 1 10 26
M  V30 28 1 12 27
M  V30 29 1 13 28
M  V30 30 1 14 29
M  V30 31 1 19 30
M  V30 END BOND
M  V30 END CTAB
M  END
>  <Dataset>  (624) 
ChEMBL_Kinases

>  <Ligand_Instance>  (624) 
nan

>  <PDB_ID>  (624) 
nan

>  <Standardized_SMILES>  (624) 
O=C(/C=C/c1ccccc1)c1cccc([N+](=O)[O-])c1

>  <Name>  (624) 
nan

>  <Pocket>  (624) 
nan

>  <ATP_Site>  (624) 
nan

>  <Peripheral>  (624) 
nan

>  <Num_H_Atoms_ProtBoundConf>  (624) 
nan

>  <Num_Resolved_Atoms>  (624) 
nan

>  <Num_Not_Resolved_Atoms>  (624) 
nan

$$$$
CHEMBL187652
     RDKit          3D

  0  0  0  0  0  0  0  0  0  0999 V3000
M  V30 BEGIN CTAB
M  V30 COUNTS 26 29 0 0 0
M  V30 BEGIN ATOM
M  V30 1 O 1.472851 -3.039645 2.838081 0
M  V30 2 C 1.344390 -2.091235 2.021616 0
M  V30 3 C 2.371656 -1.365503 1.275641 0
M  V30 4 C 3.758158 -1.503793 1.247399 0
M  V30 5 C 4.473711 -0.655331 0.427547 0
M  V30 6 F 5.841525 -0.781978 0.391127 0
M  V30 7 C 3.911610 0.321636 -0.367219 0
M  V30 8 C 2.537219 0.431552 -0.315444 0
M  V30 9 C 1.757227 -0.398306 0.495059 0
M  V30 10 N 0.351513 -0.476144 0.714581 0
M  V30 11 C 0.091000 -1.465454 1.608739 0
M  V30 12 N -1.204913 -1.710924 1.963183 0
M  V30 13 C -2.220433 -1.008812 1.457859 0
M  V30 14 N -3.515146 -1.215361 1.778097 0
M  V30 15 C -4.509388 -0.463948 1.227322 0
M  V30 16 C -4.254931 0.554945 0.307921 0
M  V30 17 C -2.930026 0.814733 -0.062180 0
M  V30 18 C -2.010588 0.004152 0.548449 0
M  V30 19 C -0.680013 0.240905 0.197903 0
M  V30 20 O -0.374287 1.151420 -0.632144 0
M  V30 21 H 4.238961 -2.262968 1.860237 0
M  V30 22 H 4.524910 0.957404 -0.989849 0
M  V30 23 H 2.057295 1.195184 -0.932306 0
M  V30 24 H -5.542676 -0.682291 1.529728 0
M  V30 25 H -5.057535 1.141641 -0.119284 0
M  V30 26 H -2.656133 1.571190 -0.753919 0
M  V30 END ATOM
M  V30 BEGIN BOND
M  V30 1 2 1 2
M  V30 2 1 2 3
M  V30 3 2 3 4
M  V30 4 1 4 5
M  V30 5 1 5 6
M  V30 6 2 5 7
M  V30 7 1 7 8
M  V30 8 2 8 9
M  V30 9 1 9 10
M  V30 10 1 10 11
M  V30 11 2 11 12
M  V30 12 1 12 13
M  V30 13 2 13 14
M  V30 14 1 14 15
M  V30 15 2 15 16
M  V30 16 1 16 17
M  V30 17 2 17 18
M  V30 18 1 18 19
M  V30 19 2 19 20
M  V30 20 1 11 2
M  V30 21 1 18 13
M  V30 22 1 9 3
M  V30 23 1 19 10
M  V30 24 1 4 21
M  V30 25 1 7 22
M  V30 26 1 8 23
M  V30 27 1 15 24
M  V30 28 1 16 25
M  V30 29 1 17 26
M  V30 END BOND
M  V30 END CTAB
M  END
>  <Dataset>  (625) 
ChEMBL_Kinases

>  <Ligand_Instance>  (625) 
nan

>  <PDB_ID>  (625) 
nan

>  <Standardized_SMILES>  (625) 
O=C1c2cc(F)ccc2-n2c1nc1ncccc1c2=O

>  <Name>  (625) 
nan

>  <Pocket>  (625) 
nan

>  <ATP_Site>  (625) 
nan

>  <Peripheral>  (625) 
nan

>  <Num_H_Atoms_ProtBoundConf>  (625) 
nan

>  <Num_Resolved_Atoms>  (625) 
nan

>  <Num_Not_Resolved_Atoms>  (625) 
nan

$$$$
CHEMBL1876217
     RDKit          3D

  0  0  0  0  0  0  0  0  0  0999 V3000
M  V30 BEGIN CTAB
M  V30 COUNTS 28 30 0 0 0
M  V30 BEGIN ATOM
M  V30 1 O 0.121712 -4.477359 0.077068 0
M  V30 2 C 0.236209 -4.084682 1.405989 0
M  V30 3 C 0.255836 -5.087501 2.380363 0
M  V30 4 C 0.371869 -4.623300 3.680889 0
M  V30 5 C 0.465758 -3.301391 4.073016 0
M  V30 6 C 0.440820 -2.358749 3.066275 0
M  V30 7 C 0.327123 -2.751405 1.748547 0
M  V30 8 C 0.300744 -1.753590 0.683174 0
M  V30 9 N 0.376422 -0.415907 0.809438 0
M  V30 10 C 0.315743 0.147563 -0.433160 0
M  V30 11 C 0.375599 1.595377 -0.605287 0
M  V30 12 C -0.737254 2.196910 -1.195203 0
M  V30 13 C -0.778820 3.577749 -1.404324 0
M  V30 14 C 0.328641 4.291807 -0.998059 0
M  V30 15 C 1.439764 3.733818 -0.414927 0
M  V30 16 C 1.467180 2.369425 -0.214518 0
M  V30 17 N 0.202369 -0.897208 -1.291515 0
M  V30 18 O 0.196346 -2.011795 -0.598268 0
M  V30 19 H -0.768891 -4.811108 -0.283125 0
M  V30 20 H 0.188737 -6.148087 2.181021 0
M  V30 21 H 0.391948 -5.365393 4.479743 0
M  V30 22 H 0.553131 -3.020820 5.100420 0
M  V30 23 H 0.508674 -1.291162 3.271268 0
M  V30 24 H -1.598678 1.590173 -1.504143 0
M  V30 25 H -1.652131 4.039543 -1.865847 0
M  V30 26 H 0.297915 5.368148 -1.160307 0
M  V30 27 H 2.261137 4.360945 -0.127039 0
M  V30 28 H 2.317704 1.875012 0.241119 0
M  V30 END ATOM
M  V30 BEGIN BOND
M  V30 1 1 1 2
M  V30 2 2 2 3
M  V30 3 1 3 4
M  V30 4 2 4 5
M  V30 5 1 5 6
M  V30 6 2 6 7
M  V30 7 1 7 8
M  V30 8 2 8 9
M  V30 9 1 9 10
M  V30 10 1 10 11
M  V30 11 2 11 12
M  V30 12 1 12 13
M  V30 13 2 13 14
M  V30 14 1 14 15
M  V30 15 2 15 16
M  V30 16 2 10 17
M  V30 17 1 17 18
M  V30 18 1 7 2
M  V30 19 1 18 8
M  V30 20 1 16 11
M  V30 21 1 1 19
M  V30 22 1 3 20
M  V30 23 1 4 21
M  V30 24 1 5 22
M  V30 25 1 6 23
M  V30 26 1 12 24
M  V30 27 1 13 25
M  V30 28 1 14 26
M  V30 29 1 15 27
M  V30 30 1 16 28
M  V30 END BOND
M  V30 END CTAB
M  END
>  <Dataset>  (626) 
ChEMBL_Kinases

>  <Ligand_Instance>  (626) 
nan

>  <PDB_ID>  (626) 
nan

>  <Standardized_SMILES>  (626) 
Oc1ccccc1-c1nc(-c2ccccc2)no1

>  <Name>  (626) 
nan

>  <Pocket>  (626) 
nan

>  <ATP_Site>  (626) 
nan

>  <Peripheral>  (626) 
nan

>  <Num_H_Atoms_ProtBoundConf>  (626) 
nan

>  <Num_Resolved_Atoms>  (626) 
nan

>  <Num_Not_Resolved_Atoms>  (626) 
nan

$$$$
CHEMBL187434
     RDKit          3D

  0  0  0  0  0  0  0  0  0  0999 V3000
M  V30 BEGIN CTAB
M  V30 COUNTS 29 30 0 0 0
M  V30 BEGIN ATOM
M  V30 1 O -2.193847 -0.788051 1.942906 0
M  V30 2 C -1.081969 -0.483333 1.368448 0
M  V30 3 C -0.281364 -1.673124 1.257071 0
M  V30 4 C 0.901647 -1.997675 0.784978 0
M  V30 5 C 1.569100 -3.287532 0.756039 0
M  V30 6 C 1.058463 -4.465958 1.242675 0
M  V30 7 C 1.713655 -5.678239 1.202719 0
M  V30 8 C 2.968399 -5.701046 0.633038 0
M  V30 9 C 3.471370 -4.513500 0.147953 0
M  V30 10 N 2.792920 -3.357879 0.210716 0
M  V30 11 C -1.011309 0.921702 1.034732 0
M  V30 12 C -2.075858 1.699454 1.355399 0
M  V30 13 C -2.093307 3.068087 1.069877 0
M  V30 14 C -1.009243 3.630474 0.452874 0
M  V30 15 N -1.044621 5.023323 0.170369 0 CHG=1 VAL=4
M  V30 16 O -0.113770 5.638978 -0.387933 0
M  V30 17 O -2.091396 5.867154 0.468768 0 CHG=-1 VAL=1
M  V30 18 C 0.098390 2.905437 0.101172 0
M  V30 19 C 0.029403 1.568702 0.419432 0
M  V30 20 H -0.683847 -2.622523 1.645034 0
M  V30 21 H 1.415457 -1.147045 0.367225 0
M  V30 22 H 0.089754 -4.475067 1.688210 0
M  V30 23 H 1.297754 -6.583276 1.587332 0
M  V30 24 H 3.573627 -6.594915 0.547651 0
M  V30 25 H 4.462211 -4.436568 -0.322276 0
M  V30 26 H -2.961604 1.359529 1.833886 0
M  V30 27 H -2.937008 3.689124 1.323031 0
M  V30 28 H 0.950387 3.356991 -0.385797 0
M  V30 29 H 0.909503 1.024376 0.133162 0
M  V30 END ATOM
M  V30 BEGIN BOND
M  V30 1 2 1 2
M  V30 2 1 2 3
M  V30 3 2 3 4
M  V30 4 1 4 5
M  V30 5 2 5 6
M  V30 6 1 6 7
M  V30 7 2 7 8
M  V30 8 1 8 9
M  V30 9 2 9 10
M  V30 10 1 2 11
M  V30 11 2 11 12
M  V30 12 1 12 13
M  V30 13 2 13 14
M  V30 14 1 14 15
M  V30 15 2 15 16
M  V30 16 1 15 17
M  V30 17 1 14 18
M  V30 18 2 18 19
M  V30 19 1 10 5
M  V30 20 1 19 11
M  V30 21 1 3 20
M  V30 22 1 4 21
M  V30 23 1 6 22
M  V30 24 1 7 23
M  V30 25 1 8 24
M  V30 26 1 9 25
M  V30 27 1 12 26
M  V30 28 1 13 27
M  V30 29 1 18 28
M  V30 30 1 19 29
M  V30 END BOND
M  V30 END CTAB
M  END
>  <Dataset>  (627) 
ChEMBL_Kinases

>  <Ligand_Instance>  (627) 
nan

>  <PDB_ID>  (627) 
nan

>  <Standardized_SMILES>  (627) 
O=C(/C=C/c1ccccn1)c1ccc([N+](=O)[O-])cc1

>  <Name>  (627) 
nan

>  <Pocket>  (627) 
nan

>  <ATP_Site>  (627) 
nan

>  <Peripheral>  (627) 
nan

>  <Num_H_Atoms_ProtBoundConf>  (627) 
nan

>  <Num_Resolved_Atoms>  (627) 
nan

>  <Num_Not_Resolved_Atoms>  (627) 
nan

$$$$
CHEMBL187378
     RDKit          3D

  0  0  0  0  0  0  0  0  0  0999 V3000
M  V30 BEGIN CTAB
M  V30 COUNTS 65 67 0 0 0
M  V30 BEGIN ATOM
M  V30 1 C 5.012153 0.230453 6.619944 0
M  V30 2 C 3.757772 0.888627 7.125625 0
M  V30 3 O 3.258511 1.751966 6.151661 0
M  V30 4 C 2.854505 1.442392 4.884497 0
M  V30 5 C 2.874031 0.174662 4.340955 0
M  V30 6 C 2.465581 -0.147802 3.054845 0
M  V30 7 C 2.004019 0.878300 2.257293 0
M  V30 8 C 1.574855 0.538493 0.906073 0
M  V30 9 O 1.646442 -0.664023 0.548516 0
M  V30 10 N 1.079642 1.460850 -0.044685 0
M  V30 11 C 0.726024 0.869915 -1.301852 0
M  V30 12 C -0.565425 0.388088 -1.535768 0
M  V30 13 C -0.878102 -0.173607 -2.748773 0
M  V30 14 N -2.213225 -0.648521 -2.930762 0
M  V30 15 C -2.481212 -1.996860 -2.577767 0
M  V30 16 O -1.450150 -2.602077 -2.134962 0
M  V30 17 C -3.757609 -2.651351 -2.689484 0
M  V30 18 C -4.839998 -1.951183 -3.178462 0
M  V30 19 C -6.043298 -2.620226 -3.267404 0
M  V30 20 C -6.122137 -3.937346 -2.873229 0
M  V30 21 C -5.044513 -4.641532 -2.384153 0
M  V30 22 N -5.142615 -5.999857 -1.981304 0
M  V30 23 C -4.101947 -6.833501 -1.461562 0
M  V30 24 C -6.314184 -6.850586 -2.003645 0
M  V30 25 C -3.850441 -3.988098 -2.292628 0
M  V30 26 C 0.073004 -0.272213 -3.754738 0
M  V30 27 C 1.354223 0.195002 -3.550720 0
M  V30 28 C 1.649384 0.754811 -2.328804 0
M  V30 29 C 3.018745 1.266247 -2.079013 0
M  V30 30 C 1.970781 2.157482 2.768361 0
M  V30 31 C 2.389000 2.451657 4.068100 0
M  V30 32 O 2.350404 3.742091 4.569187 0
M  V30 33 C 1.907003 4.866773 3.866158 0
M  V30 34 C 2.691515 5.158633 2.607420 0
M  V30 35 H 5.842873 0.518209 7.314962 0
M  V30 36 H 5.206581 0.533844 5.590295 0
M  V30 37 H 4.912687 -0.894246 6.618115 0
M  V30 38 H 3.008397 0.150936 7.485549 0
M  V30 39 H 3.980661 1.522605 8.021669 0
M  V30 40 H 3.226266 -0.646672 4.933898 0
M  V30 41 H 2.517319 -1.189089 2.707149 0
M  V30 42 H 1.011157 2.463025 0.228285 0
M  V30 43 H -1.315471 0.465967 -0.742067 0
M  V30 44 H -2.988757 -0.062175 -3.304316 0
M  V30 45 H -4.816421 -0.921179 -3.496219 0
M  V30 46 H -6.905675 -2.088446 -3.648940 0
M  V30 47 H -7.102004 -4.379504 -2.978118 0
M  V30 48 H -3.942548 -7.765160 -2.069015 0
M  V30 49 H -4.347958 -7.203906 -0.430539 0
M  V30 50 H -3.113704 -6.379298 -1.368510 0
M  V30 51 H -7.182663 -6.277601 -2.323938 0
M  V30 52 H -6.162605 -7.775011 -2.626993 0
M  V30 53 H -6.561700 -7.271095 -0.986669 0
M  V30 54 H -2.945717 -4.451405 -1.922225 0
M  V30 55 H -0.250257 -0.730043 -4.689423 0
M  V30 56 H 2.081041 0.105037 -4.357416 0
M  V30 57 H 3.526477 1.433011 -3.051145 0
M  V30 58 H 3.021195 2.152209 -1.433764 0
M  V30 59 H 3.633654 0.490351 -1.546741 0
M  V30 60 H 1.603368 2.939092 2.118464 0
M  V30 61 H 1.996082 5.757287 4.528487 0
M  V30 62 H 0.829362 4.816781 3.600781 0
M  V30 63 H 2.030941 5.261498 1.704436 0
M  V30 64 H 3.468020 4.419160 2.409329 0
M  V30 65 H 3.205596 6.160354 2.670495 0
M  V30 END ATOM
M  V30 BEGIN BOND
M  V30 1 1 1 2
M  V30 2 1 2 3
M  V30 3 1 3 4
M  V30 4 2 4 5
M  V30 5 1 5 6
M  V30 6 2 6 7
M  V30 7 1 7 8
M  V30 8 2 8 9
M  V30 9 1 8 10
M  V30 10 1 10 11
M  V30 11 2 11 12
M  V30 12 1 12 13
M  V30 13 1 13 14
M  V30 14 1 14 15
M  V30 15 2 15 16
M  V30 16 1 15 17
M  V30 17 2 17 18
M  V30 18 1 18 19
M  V30 19 2 19 20
M  V30 20 1 20 21
M  V30 21 1 21 22
M  V30 22 1 22 23
M  V30 23 1 22 24
M  V30 24 2 21 25
M  V30 25 2 13 26
M  V30 26 1 26 27
M  V30 27 2 27 28
M  V30 28 1 28 29
M  V30 29 1 7 30
M  V30 30 2 30 31
M  V30 31 1 31 32
M  V30 32 1 32 33
M  V30 33 1 33 34
M  V30 34 1 31 4
M  V30 35 1 28 11
M  V30 36 1 25 17
M  V30 37 1 1 35
M  V30 38 1 1 36
M  V30 39 1 1 37
M  V30 40 1 2 38
M  V30 41 1 2 39
M  V30 42 1 5 40
M  V30 43 1 6 41
M  V30 44 1 10 42
M  V30 45 1 12 43
M  V30 46 1 14 44
M  V30 47 1 18 45
M  V30 48 1 19 46
M  V30 49 1 20 47
M  V30 50 1 23 48
M  V30 51 1 23 49
M  V30 52 1 23 50
M  V30 53 1 24 51
M  V30 54 1 24 52
M  V30 55 1 24 53
M  V30 56 1 25 54
M  V30 57 1 26 55
M  V30 58 1 27 56
M  V30 59 1 29 57
M  V30 60 1 29 58
M  V30 61 1 29 59
M  V30 62 1 30 60
M  V30 63 1 33 61
M  V30 64 1 33 62
M  V30 65 1 34 63
M  V30 66 1 34 64
M  V30 67 1 34 65
M  V30 END BOND
M  V30 END CTAB
M  END
>  <Dataset>  (628) 
ChEMBL_Kinases

>  <Ligand_Instance>  (628) 
nan

>  <PDB_ID>  (628) 
nan

>  <Standardized_SMILES>  (628) 
CCOc1ccc(C(=O)Nc2cc(NC(=O)c3cccc(N(C)C)c3)ccc2C)cc1OCC

>  <Name>  (628) 
nan

>  <Pocket>  (628) 
nan

>  <ATP_Site>  (628) 
nan

>  <Peripheral>  (628) 
nan

>  <Num_H_Atoms_ProtBoundConf>  (628) 
nan

>  <Num_Resolved_Atoms>  (628) 
nan

>  <Num_Not_Resolved_Atoms>  (628) 
nan

$$$$
CHEMBL187340
     RDKit          3D

  0  0  0  0  0  0  0  0  0  0999 V3000
M  V30 BEGIN CTAB
M  V30 COUNTS 27 29 0 0 0
M  V30 BEGIN ATOM
M  V30 1 C -1.448902 -2.176492 1.144266 0
M  V30 2 C -0.524681 -1.699658 0.046237 0
M  V30 3 N 0.072746 -0.431389 0.332642 0
M  V30 4 C 1.184198 -0.208447 1.001157 0
M  V30 5 C 2.175449 -0.997995 1.704722 0
M  V30 6 N 3.286968 -0.514450 2.291177 0
M  V30 7 O 4.022958 -1.424113 2.832901 0
M  V30 8 N 3.472405 -2.597828 2.659374 0
M  V30 9 C 2.335702 -2.331617 1.965388 0
M  V30 10 N 1.510215 -3.410132 1.645916 0
M  V30 11 N 1.341880 1.124083 0.957410 0
M  V30 12 C 0.375167 1.717950 0.294330 0
M  V30 13 C 0.133772 3.034382 0.005969 0
M  V30 14 Cl 1.266897 4.236328 0.582715 0
M  V30 15 N -0.960294 3.336922 -0.704865 0
M  V30 16 C -1.811057 2.389341 -1.133129 0
M  V30 17 C -1.594411 1.065490 -0.859357 0
M  V30 18 C -0.473529 0.730926 -0.128526 0
M  V30 19 H -1.115279 -1.805024 2.139172 0
M  V30 20 H -2.457724 -1.780143 0.977234 0
M  V30 21 H -1.506162 -3.281097 1.188038 0
M  V30 22 H 0.146445 -2.503565 -0.270236 0
M  V30 23 H -1.202356 -1.531015 -0.879758 0
M  V30 24 H 1.820993 -3.881025 0.758521 0
M  V30 25 H 0.710461 -4.057255 1.793478 0
M  V30 26 H -2.686728 2.632800 -1.702180 0
M  V30 27 H -2.229475 0.218662 -1.164362 0
M  V30 END ATOM
M  V30 BEGIN BOND
M  V30 1 1 1 2
M  V30 2 1 2 3
M  V30 3 1 3 4
M  V30 4 1 4 5
M  V30 5 2 5 6
M  V30 6 1 6 7
M  V30 7 1 7 8
M  V30 8 2 8 9
M  V30 9 1 9 10
M  V30 10 2 4 11
M  V30 11 1 11 12
M  V30 12 2 12 13
M  V30 13 1 13 14
M  V30 14 1 13 15
M  V30 15 2 15 16
M  V30 16 1 16 17
M  V30 17 2 17 18
M  V30 18 1 18 3
M  V30 19 1 9 5
M  V30 20 1 18 12
M  V30 21 1 1 19
M  V30 22 1 1 20
M  V30 23 1 1 21
M  V30 24 1 2 22
M  V30 25 1 2 23
M  V30 26 1 10 24
M  V30 27 1 10 25
M  V30 28 1 16 26
M  V30 29 1 17 27
M  V30 END BOND
M  V30 END CTAB
M  END
>  <Dataset>  (629) 
ChEMBL_Kinases

>  <Ligand_Instance>  (629) 
nan

>  <PDB_ID>  (629) 
nan

>  <Standardized_SMILES>  (629) 
CCn1c(-c2nonc2N)nc2c(Cl)nccc21

>  <Name>  (629) 
nan

>  <Pocket>  (629) 
nan

>  <ATP_Site>  (629) 
nan

>  <Peripheral>  (629) 
nan

>  <Num_H_Atoms_ProtBoundConf>  (629) 
nan

>  <Num_Resolved_Atoms>  (629) 
nan

>  <Num_Not_Resolved_Atoms>  (629) 
nan

$$$$
CHEMBL187339
     RDKit          3D

  0  0  0  0  0  0  0  0  0  0999 V3000
M  V30 BEGIN CTAB
M  V30 COUNTS 28 30 0 0 0
M  V30 BEGIN ATOM
M  V30 1 C -1.687142 -2.071587 0.844299 0
M  V30 2 C -0.551161 -1.582554 1.710963 0
M  V30 3 N 0.264692 -0.629910 1.035926 0
M  V30 4 C 1.300517 -0.850344 0.248508 0
M  V30 5 C 1.985420 -2.007136 -0.279534 0
M  V30 6 N 3.087690 -1.951259 -1.045070 0
M  V30 7 O 3.556485 -3.077076 -1.387966 0
M  V30 8 N 2.776716 -4.000127 -0.860224 0
M  V30 9 C 1.803112 -3.347907 -0.174234 0
M  V30 10 N 0.830794 -4.088717 0.461310 0
M  V30 11 N 1.722306 0.385558 -0.061220 0
M  V30 12 C 0.988516 1.342391 0.500445 0
M  V30 13 C 1.129111 2.699306 0.402508 0
M  V30 14 C 0.198429 3.463044 1.111129 0
M  V30 15 F 0.282078 4.817355 1.056244 0
M  V30 16 C -0.802762 2.841254 1.864497 0
M  V30 17 C -0.891714 1.454730 1.923202 0
M  V30 18 C 0.024009 0.696719 1.225945 0
M  V30 19 H -1.484667 -1.741571 -0.213440 0
M  V30 20 H -1.898032 -3.145688 0.935983 0
M  V30 21 H -2.650478 -1.555608 1.124257 0
M  V30 22 H -1.014455 -1.093561 2.658568 0
M  V30 23 H 0.014337 -2.414310 2.129994 0
M  V30 24 H 0.500851 -4.613001 1.301294 0
M  V30 25 H -0.021941 -4.237748 -0.126918 0
M  V30 26 H 1.914809 3.114385 -0.189220 0
M  V30 27 H -1.532781 3.427395 2.420245 0
M  V30 28 H -1.639136 0.912976 2.485118 0
M  V30 END ATOM
M  V30 BEGIN BOND
M  V30 1 1 1 2
M  V30 2 1 2 3
M  V30 3 1 3 4
M  V30 4 1 4 5
M  V30 5 2 5 6
M  V30 6 1 6 7
M  V30 7 1 7 8
M  V30 8 2 8 9
M  V30 9 1 9 10
M  V30 10 2 4 11
M  V30 11 1 11 12
M  V30 12 2 12 13
M  V30 13 1 13 14
M  V30 14 1 14 15
M  V30 15 2 14 16
M  V30 16 1 16 17
M  V30 17 2 17 18
M  V30 18 1 18 3
M  V30 19 1 9 5
M  V30 20 1 18 12
M  V30 21 1 1 19
M  V30 22 1 1 20
M  V30 23 1 1 21
M  V30 24 1 2 22
M  V30 25 1 2 23
M  V30 26 1 10 24
M  V30 27 1 10 25
M  V30 28 1 13 26
M  V30 29 1 16 27
M  V30 30 1 17 28
M  V30 END BOND
M  V30 END CTAB
M  END
>  <Dataset>  (630) 
ChEMBL_Kinases

>  <Ligand_Instance>  (630) 
nan

>  <PDB_ID>  (630) 
nan

>  <Standardized_SMILES>  (630) 
CCn1c(-c2nonc2N)nc2cc(F)ccc21

>  <Name>  (630) 
nan

>  <Pocket>  (630) 
nan

>  <ATP_Site>  (630) 
nan

>  <Peripheral>  (630) 
nan

>  <Num_H_Atoms_ProtBoundConf>  (630) 
nan

>  <Num_Resolved_Atoms>  (630) 
nan

>  <Num_Not_Resolved_Atoms>  (630) 
nan

$$$$
CHEMBL187327
     RDKit          3D

  0  0  0  0  0  0  0  0  0  0999 V3000
M  V30 BEGIN CTAB
M  V30 COUNTS 59 61 0 0 0
M  V30 BEGIN ATOM
M  V30 1 C 4.960754 -4.769031 6.980983 0
M  V30 2 O 4.978712 -4.689235 5.546823 0
M  V30 3 C 3.919556 -4.002341 4.949070 0
M  V30 4 C 2.802477 -3.344209 5.475487 0
M  V30 5 C 1.910760 -2.746872 4.510008 0
M  V30 6 C 2.030189 -2.741247 3.005531 0
M  V30 7 C 0.811155 -1.993286 3.089419 0
M  V30 8 O 0.735371 -2.158058 1.806139 0
M  V30 9 N -0.253817 -1.276204 3.578605 0
M  V30 10 C -1.261600 -0.830261 2.699694 0
M  V30 11 C -1.234891 0.321817 1.967232 0
M  V30 12 C -2.234445 0.761234 1.156493 0
M  V30 13 N -2.340298 1.903891 0.335535 0
M  V30 14 C -1.940989 1.512018 -0.961696 0
M  V30 15 O -1.615977 0.284974 -0.982771 0
M  V30 16 C -1.901158 2.383072 -2.144074 0
M  V30 17 C -2.119803 3.759511 -2.178941 0
M  V30 18 C -2.087670 4.456705 -3.374936 0
M  V30 19 C -1.832585 3.763436 -4.549498 0
M  V30 20 C -1.608599 2.401568 -4.573580 0
M  V30 21 N -1.378351 1.763914 -5.820476 0
M  V30 22 C -1.104884 0.337203 -5.970101 0
M  V30 23 C -1.425423 2.563629 -7.048965 0
M  V30 24 C -1.650504 1.758464 -3.365704 0
M  V30 25 C -3.374282 -0.047714 1.074619 0
M  V30 26 C -3.462649 -1.229128 1.788556 0
M  V30 27 C -2.412313 -1.608205 2.589783 0
M  V30 28 C -2.509620 -2.880417 3.347174 0
M  V30 29 C 3.126120 -3.410357 2.959218 0
M  V30 30 O 3.003117 -3.255869 1.533231 0
M  V30 31 C 3.959363 -3.782172 0.675814 0
M  V30 32 C 4.132004 -4.059719 3.578917 0
M  V30 33 H 5.799682 -5.409186 7.314323 0
M  V30 34 H 5.027052 -3.787409 7.458130 0
M  V30 35 H 3.980532 -5.231021 7.301123 0
M  V30 36 H 2.967761 -3.496579 6.564264 0
M  V30 37 H 1.292005 -2.410043 5.402577 0
M  V30 38 H -0.001858 -1.247177 4.590054 0
M  V30 39 H -0.369453 0.966103 2.009320 0
M  V30 40 H -2.630409 2.923753 0.469390 0
M  V30 41 H -2.306453 4.130916 -1.171817 0
M  V30 42 H -2.263701 5.513887 -3.288306 0
M  V30 43 H -1.829485 4.411464 -5.435416 0
M  V30 44 H -0.663620 -0.116573 -5.067251 0
M  V30 45 H -2.028809 -0.209098 -6.325117 0
M  V30 46 H -0.407770 0.251453 -6.853511 0
M  V30 47 H -0.796501 3.471876 -6.968296 0
M  V30 48 H -2.469000 2.869388 -7.279227 0
M  V30 49 H -1.073069 1.924451 -7.899518 0
M  V30 50 H -1.472535 0.672977 -3.369791 0
M  V30 51 H -4.255558 0.171123 0.471044 0
M  V30 52 H -4.339211 -1.869155 1.732267 0
M  V30 53 H -1.501924 -3.193330 3.723026 0
M  V30 54 H -2.929109 -3.695984 2.701003 0
M  V30 55 H -3.199326 -2.744260 4.198563 0
M  V30 56 H 3.766202 -4.811457 0.381681 0
M  V30 57 H 3.960417 -3.203090 -0.300017 0
M  V30 58 H 4.972325 -3.595949 1.093934 0
M  V30 59 H 4.820962 -4.449127 2.879527 0
M  V30 END ATOM
M  V30 BEGIN BOND
M  V30 1 1 1 2
M  V30 2 1 2 3
M  V30 3 2 3 4
M  V30 4 1 4 5
M  V30 5 2 5 6
M  V30 6 1 6 7
M  V30 7 2 7 8
M  V30 8 1 7 9
M  V30 9 1 9 10
M  V30 10 2 10 11
M  V30 11 1 11 12
M  V30 12 1 12 13
M  V30 13 1 13 14
M  V30 14 2 14 15
M  V30 15 1 14 16
M  V30 16 2 16 17
M  V30 17 1 17 18
M  V30 18 2 18 19
M  V30 19 1 19 20
M  V30 20 1 20 21
M  V30 21 1 21 22
M  V30 22 1 21 23
M  V30 23 2 20 24
M  V30 24 2 12 25
M  V30 25 1 25 26
M  V30 26 2 26 27
M  V30 27 1 27 28
M  V30 28 1 6 29
M  V30 29 1 29 30
M  V30 30 1 30 31
M  V30 31 2 29 32
M  V30 32 1 32 3
M  V30 33 1 27 10
M  V30 34 1 24 16
M  V30 35 1 1 33
M  V30 36 1 1 34
M  V30 37 1 1 35
M  V30 38 1 4 36
M  V30 39 1 5 37
M  V30 40 1 9 38
M  V30 41 1 11 39
M  V30 42 1 13 40
M  V30 43 1 17 41
M  V30 44 1 18 42
M  V30 45 1 19 43
M  V30 46 1 22 44
M  V30 47 1 22 45
M  V30 48 1 22 46
M  V30 49 1 23 47
M  V30 50 1 23 48
M  V30 51 1 23 49
M  V30 52 1 24 50
M  V30 53 1 25 51
M  V30 54 1 26 52
M  V30 55 1 28 53
M  V30 56 1 28 54
M  V30 57 1 28 55
M  V30 58 1 31 56
M  V30 59 1 31 57
M  V30 60 1 31 58
M  V30 61 1 32 59
M  V30 END BOND
M  V30 END CTAB
M  END
>  <Dataset>  (631) 
ChEMBL_Kinases

>  <Ligand_Instance>  (631) 
nan

>  <PDB_ID>  (631) 
nan

>  <Standardized_SMILES>  (631) 
COc1ccc(C(=O)Nc2cc(NC(=O)c3cccc(N(C)C)c3)ccc2C)c(OC)c1

>  <Name>  (631) 
nan

>  <Pocket>  (631) 
nan

>  <ATP_Site>  (631) 
nan

>  <Peripheral>  (631) 
nan

>  <Num_H_Atoms_ProtBoundConf>  (631) 
nan

>  <Num_Resolved_Atoms>  (631) 
nan

>  <Num_Not_Resolved_Atoms>  (631) 
nan

$$$$
CHEMBL187325
     RDKit          3D

  0  0  0  0  0  0  0  0  0  0999 V3000
M  V30 BEGIN CTAB
M  V30 COUNTS 36 39 0 0 0
M  V30 BEGIN ATOM
M  V30 1 O -2.583263 -3.478842 2.948061 0
M  V30 2 C -1.511594 -2.813880 2.857957 0
M  V30 3 N -0.769746 -2.301658 3.977784 0
M  V30 4 C 0.342660 -1.633592 3.415984 0
M  V30 5 O 1.154722 -1.092000 4.225452 0
M  V30 6 C 0.289074 -1.732960 1.951805 0
M  V30 7 C 1.322278 -1.175926 1.093700 0
M  V30 8 C 2.174529 -1.592778 0.072129 0
M  V30 9 N 2.906356 -0.584376 -0.394510 0
M  V30 10 C 2.560600 0.520463 0.299673 0
M  V30 11 C 3.099546 1.781304 0.099007 0
M  V30 12 C 2.589655 2.780118 0.919579 0
M  V30 13 C 1.615727 2.516547 1.862236 0
M  V30 14 C 1.127371 1.235512 2.005228 0
M  V30 15 C 1.591637 0.193683 1.220694 0
M  V30 16 C -0.787589 -2.416786 1.656337 0
M  V30 17 N -1.283206 -2.759856 0.365729 0
M  V30 18 C -1.391525 -1.748931 -0.644169 0
M  V30 19 C -2.391924 -0.783882 -0.520836 0
M  V30 20 C -2.567513 0.214889 -1.447063 0
M  V30 21 C -1.748360 0.306660 -2.558335 0
M  V30 22 C -0.735317 -0.638609 -2.718981 0
M  V30 23 Cl 0.406894 -0.692786 -4.052004 0
M  V30 24 C -0.605120 -1.615716 -1.762353 0
M  V30 25 H -1.078260 -2.454016 4.963094 0
M  V30 26 H 2.102757 -2.657933 -0.173111 0
M  V30 27 H 3.601147 -0.722179 -1.166910 0
M  V30 28 H 3.860930 1.997452 -0.636025 0
M  V30 29 H 2.962436 3.790065 0.815698 0
M  V30 30 H 1.190441 3.249414 2.524055 0
M  V30 31 H 0.361115 1.035776 2.741334 0
M  V30 32 H -1.564627 -3.762313 0.160438 0
M  V30 33 H -3.088214 -0.767070 0.318636 0
M  V30 34 H -3.304410 0.999313 -1.437506 0
M  V30 35 H -1.798207 1.052689 -3.346236 0
M  V30 36 H 0.162667 -2.374668 -1.841587 0
M  V30 END ATOM
M  V30 BEGIN BOND
M  V30 1 2 1 2
M  V30 2 1 2 3
M  V30 3 1 3 4
M  V30 4 2 4 5
M  V30 5 1 4 6
M  V30 6 1 6 7
M  V30 7 2 7 8
M  V30 8 1 8 9
M  V30 9 1 9 10
M  V30 10 2 10 11
M  V30 11 1 11 12
M  V30 12 2 12 13
M  V30 13 1 13 14
M  V30 14 2 14 15
M  V30 15 2 6 16
M  V30 16 1 16 17
M  V30 17 1 17 18
M  V30 18 2 18 19
M  V30 19 1 19 20
M  V30 20 2 20 21
M  V30 21 1 21 22
M  V30 22 1 22 23
M  V30 23 2 22 24
M  V30 24 1 16 2
M  V30 25 1 24 18
M  V30 26 1 15 7
M  V30 27 1 15 10
M  V30 28 1 3 25
M  V30 29 1 8 26
M  V30 30 1 9 27
M  V30 31 1 11 28
M  V30 32 1 12 29
M  V30 33 1 13 30
M  V30 34 1 14 31
M  V30 35 1 17 32
M  V30 36 1 19 33
M  V30 37 1 20 34
M  V30 38 1 21 35
M  V30 39 1 24 36
M  V30 END BOND
M  V30 END CTAB
M  END
>  <Dataset>  (632) 
ChEMBL_Kinases

>  <Ligand_Instance>  (632) 
nan

>  <PDB_ID>  (632) 
nan

>  <Standardized_SMILES>  (632) 
O=C1NC(=O)C(c2c[nH]c3ccccc23)=C1Nc1cccc(Cl)c1

>  <Name>  (632) 
nan

>  <Pocket>  (632) 
nan

>  <ATP_Site>  (632) 
nan

>  <Peripheral>  (632) 
nan

>  <Num_H_Atoms_ProtBoundConf>  (632) 
nan

>  <Num_Resolved_Atoms>  (632) 
nan

>  <Num_Not_Resolved_Atoms>  (632) 
nan

$$$$
CHEMBL187266
     RDKit          3D

  0  0  0  0  0  0  0  0  0  0999 V3000
M  V30 BEGIN CTAB
M  V30 COUNTS 40 43 0 0 0
M  V30 BEGIN ATOM
M  V30 1 C 2.193681 -6.078652 -0.268114 0
M  V30 2 C 2.431369 -4.729977 0.316225 0
M  V30 3 C 3.481018 -4.213958 1.051356 0
M  V30 4 O 3.240305 -2.947942 1.352226 0
M  V30 5 C 2.073503 -2.593368 0.849785 0
M  V30 6 C 1.537691 -3.682623 0.194551 0
M  V30 7 C 0.218356 -3.492883 -0.444942 0
M  V30 8 O -0.259282 -4.513959 -1.046162 0
M  V30 9 C -0.429180 -2.190396 -0.348843 0
M  V30 10 O -1.536804 -2.178968 -0.934907 0
M  V30 11 C 0.209682 -1.095305 0.363017 0
M  V30 12 C 1.435988 -1.285903 0.952930 0
M  V30 13 C 1.993647 -0.213808 1.617692 0
M  V30 14 C 1.310949 0.983730 1.662886 0
M  V30 15 C 0.074587 1.130079 1.052244 0
M  V30 16 C -0.530789 0.059862 0.362133 0
M  V30 17 C -1.810216 0.415045 -0.205573 0
M  V30 18 C -2.638880 1.001793 0.917236 0
M  V30 19 C -2.076745 2.372415 1.224301 0
M  V30 20 C -0.594226 2.478685 1.161829 0
M  V30 21 C -0.103030 3.111947 2.464969 0
M  V30 22 C -0.208086 3.381624 0.021709 0
M  V30 23 H 1.293831 -6.566637 0.178139 0
M  V30 24 H 3.044278 -6.737563 0.033313 0
M  V30 25 H 2.080930 -6.070376 -1.358307 0
M  V30 26 H 4.340425 -4.821853 1.303790 0
M  V30 27 H 2.956801 -0.393150 2.070917 0
M  V30 28 H 1.786646 1.795257 2.194987 0
M  V30 29 H -2.336099 -0.183415 -0.905909 0
M  V30 30 H -1.572970 1.339587 -0.845875 0
M  V30 31 H -3.675220 1.129534 0.592606 0
M  V30 32 H -2.569226 0.424651 1.860802 0
M  V30 33 H -2.580742 3.096311 0.519635 0
M  V30 34 H -2.433709 2.639831 2.237793 0
M  V30 35 H 0.125534 2.364413 3.239578 0
M  V30 36 H 0.854180 3.611758 2.199050 0
M  V30 37 H -0.848310 3.829270 2.870567 0
M  V30 38 H -1.073615 3.664385 -0.615293 0
M  V30 39 H 0.181960 4.341435 0.417454 0
M  V30 40 H 0.615244 2.970679 -0.603970 0
M  V30 END ATOM
M  V30 BEGIN BOND
M  V30 1 1 1 2
M  V30 2 2 2 3
M  V30 3 1 3 4
M  V30 4 1 4 5
M  V30 5 2 5 6
M  V30 6 1 6 7
M  V30 7 2 7 8
M  V30 8 1 7 9
M  V30 9 2 9 10
M  V30 10 1 9 11
M  V30 11 2 11 12
M  V30 12 1 12 13
M  V30 13 2 13 14
M  V30 14 1 14 15
M  V30 15 2 15 16
M  V30 16 1 16 17
M  V30 17 1 17 18
M  V30 18 1 18 19
M  V30 19 1 19 20
M  V30 20 1 20 21
M  V30 21 1 20 22
M  V30 22 1 6 2
M  V30 23 1 16 11
M  V30 24 1 12 5
M  V30 25 1 20 15
M  V30 26 1 1 23
M  V30 27 1 1 24
M  V30 28 1 1 25
M  V30 29 1 3 26
M  V30 30 1 13 27
M  V30 31 1 14 28
M  V30 32 1 17 29
M  V30 33 1 17 30
M  V30 34 1 18 31
M  V30 35 1 18 32
M  V30 36 1 19 33
M  V30 37 1 19 34
M  V30 38 1 21 35
M  V30 39 1 21 36
M  V30 40 1 21 37
M  V30 41 1 22 38
M  V30 42 1 22 39
M  V30 43 1 22 40
M  V30 END BOND
M  V30 END CTAB
M  END
>  <Dataset>  (633) 
ChEMBL_Kinases

>  <Ligand_Instance>  (633) 
nan

>  <PDB_ID>  (633) 
nan

>  <Standardized_SMILES>  (633) 
Cc1coc2c1C(=O)C(=O)c1c-2ccc2c1CCCC2(C)C

>  <Name>  (633) 
TANSHINONE IIA

>  <Pocket>  (633) 
nan

>  <ATP_Site>  (633) 
nan

>  <Peripheral>  (633) 
nan

>  <Num_H_Atoms_ProtBoundConf>  (633) 
nan

>  <Num_Resolved_Atoms>  (633) 
nan

>  <Num_Not_Resolved_Atoms>  (633) 
nan

$$$$
CHEMBL187135
     RDKit          3D

  0  0  0  0  0  0  0  0  0  0999 V3000
M  V30 BEGIN CTAB
M  V30 COUNTS 50 54 0 0 0
M  V30 BEGIN ATOM
M  V30 1 F 2.523087 -4.521994 1.009073 0
M  V30 2 C 3.590195 -3.709088 0.743248 0
M  V30 3 F 4.731041 -4.510610 0.845960 0
M  V30 4 F 3.574253 -3.260450 -0.575555 0
M  V30 5 C 3.703416 -2.576674 1.664286 0
M  V30 6 C 4.347406 -2.514690 2.881167 0
M  V30 7 C 4.384341 -1.366372 3.653712 0
M  V30 8 C 3.744736 -0.246456 3.171025 0
M  V30 9 C 3.089135 -0.269363 1.958244 0
M  V30 10 C 2.447023 0.959670 1.515007 0
M  V30 11 N 2.972413 2.133505 1.101035 0
M  V30 12 N 2.015694 2.983356 0.780259 0
M  V30 13 N 2.075969 4.243766 0.330925 0
M  V30 14 C 0.953602 4.942183 0.065076 0
M  V30 15 C -0.318603 4.382025 0.246398 0
M  V30 16 C -0.329373 3.081194 0.710689 0
M  V30 17 C 0.828366 2.365954 0.983081 0
M  V30 18 C 1.075312 1.064305 1.455765 0
M  V30 19 C -0.052033 0.199176 1.755679 0
M  V30 20 C -0.870688 0.732372 2.765014 0
M  V30 21 C -1.982782 0.003095 3.130459 0
M  V30 22 N -2.257545 -1.168938 2.535890 0
M  V30 23 C -1.470545 -1.671301 1.573868 0
M  V30 24 N -1.924312 -2.906537 1.052004 0
M  V30 25 C -2.547501 -2.910706 -0.231409 0
M  V30 26 C -3.245655 -3.979156 -0.768819 0
M  V30 27 C -3.811068 -3.928674 -2.031237 0
M  V30 28 C -3.683971 -2.790794 -2.786637 0
M  V30 29 Cl -4.366927 -2.658932 -4.391153 0
M  V30 30 C -2.999036 -1.687110 -2.309939 0
M  V30 31 C -2.822017 -0.414716 -3.078321 0
M  V30 32 F -2.057414 0.511379 -2.365755 0
M  V30 33 F -2.262332 -0.685249 -4.300396 0
M  V30 34 F -4.099646 0.123613 -3.307779 0
M  V30 35 C -2.457971 -1.791056 -1.049542 0
M  V30 36 N -0.382775 -0.994921 1.190059 0
M  V30 37 C 3.073280 -1.417828 1.223332 0
M  V30 38 H 4.824907 -3.457319 3.173650 0
M  V30 39 H 4.908415 -1.393671 4.594211 0
M  V30 40 H 3.764013 0.659370 3.762075 0
M  V30 41 H 0.973137 5.978540 -0.306572 0
M  V30 42 H -1.250709 4.893990 0.050167 0
M  V30 43 H -1.309215 2.621665 0.860663 0
M  V30 44 H -0.704477 1.667736 3.284905 0
M  V30 45 H -2.638032 0.389922 3.912346 0
M  V30 46 H -1.806957 -3.784606 1.586572 0
M  V30 47 H -3.328076 -4.876351 -0.135776 0
M  V30 48 H -4.338446 -4.784332 -2.397822 0
M  V30 49 H -1.911026 -0.947308 -0.634084 0
M  V30 50 H 2.530915 -1.353052 0.274215 0
M  V30 END ATOM
M  V30 BEGIN BOND
M  V30 1 1 1 2
M  V30 2 1 2 3
M  V30 3 1 2 4
M  V30 4 1 2 5
M  V30 5 2 5 6
M  V30 6 1 6 7
M  V30 7 2 7 8
M  V30 8 1 8 9
M  V30 9 1 9 10
M  V30 10 2 10 11
M  V30 11 1 11 12
M  V30 12 1 12 13
M  V30 13 2 13 14
M  V30 14 1 14 15
M  V30 15 2 15 16
M  V30 16 1 16 17
M  V30 17 2 17 18
M  V30 18 1 18 19
M  V30 19 2 19 20
M  V30 20 1 20 21
M  V30 21 2 21 22
M  V30 22 1 22 23
M  V30 23 1 23 24
M  V30 24 1 24 25
M  V30 25 2 25 26
M  V30 26 1 26 27
M  V30 27 2 27 28
M  V30 28 1 28 29
M  V30 29 1 28 30
M  V30 30 1 30 31
M  V30 31 1 31 32
M  V30 32 1 31 33
M  V30 33 1 31 34
M  V30 34 2 30 35
M  V30 35 2 23 36
M  V30 36 2 9 37
M  V30 37 1 37 5
M  V30 38 1 18 10
M  V30 39 1 36 19
M  V30 40 1 17 12
M  V30 41 1 35 25
M  V30 42 1 6 38
M  V30 43 1 7 39
M  V30 44 1 8 40
M  V30 45 1 14 41
M  V30 46 1 15 42
M  V30 47 1 16 43
M  V30 48 1 20 44
M  V30 49 1 21 45
M  V30 50 1 24 46
M  V30 51 1 26 47
M  V30 52 1 27 48
M  V30 53 1 35 49
M  V30 54 1 37 50
M  V30 END BOND
M  V30 END CTAB
M  END
>  <Dataset>  (634) 
ChEMBL_Kinases

>  <Ligand_Instance>  (634) 
nan

>  <PDB_ID>  (634) 
nan

>  <Standardized_SMILES>  (634) 
FC(F)(F)c1cccc(-c2nn3ncccc3c2-c2ccnc(Nc3ccc(Cl)c(C(F)(F)F)c3)n2)c1

>  <Name>  (634) 
nan

>  <Pocket>  (634) 
nan

>  <ATP_Site>  (634) 
nan

>  <Peripheral>  (634) 
nan

>  <Num_H_Atoms_ProtBoundConf>  (634) 
nan

>  <Num_Resolved_Atoms>  (634) 
nan

>  <Num_Not_Resolved_Atoms>  (634) 
nan

$$$$
CHEMBL187024
     RDKit          3D

  0  0  0  0  0  0  0  0  0  0999 V3000
M  V30 BEGIN CTAB
M  V30 COUNTS 39 42 0 0 0
M  V30 BEGIN ATOM
M  V30 1 C -2.512535 -1.190925 1.263765 0
M  V30 2 N -1.231057 -0.766339 1.811955 0
M  V30 3 C -0.687637 0.567746 1.841735 0
M  V30 4 C 0.183385 1.284441 1.155756 0
M  V30 5 C 0.995314 0.959397 -0.002503 0
M  V30 6 C 2.343702 1.275839 -0.023462 0
M  V30 7 N 2.864589 0.896767 -1.201700 0
M  V30 8 C 1.938284 0.335381 -1.991204 0
M  V30 9 C 1.819851 -0.223542 -3.247215 0
M  V30 10 C 0.651267 -0.724170 -3.775930 0
M  V30 11 C -0.509849 -0.669073 -2.993461 0
M  V30 12 C -0.405360 -0.113566 -1.736970 0
M  V30 13 C 0.765589 0.377476 -1.231610 0
M  V30 14 C 0.230717 2.613997 1.796543 0
M  V30 15 O 0.956891 3.581111 1.420287 0
M  V30 16 N -0.654615 2.662224 2.900670 0
M  V30 17 C -1.242936 1.360637 2.934705 0
M  V30 18 O -2.091678 1.164516 3.865209 0
M  V30 19 C -0.382382 -1.751293 2.408005 0
M  V30 20 C 0.845436 -1.458981 2.967880 0
M  V30 21 C 1.726170 -2.328880 3.559638 0
M  V30 22 C 1.320343 -3.656196 3.591055 0
M  V30 23 C 0.115446 -4.042688 3.059240 0
M  V30 24 C -0.697504 -3.087735 2.486737 0
M  V30 25 H -3.267873 -1.337593 2.076434 0
M  V30 26 H -2.906695 -0.467784 0.509000 0
M  V30 27 H -2.378687 -2.157391 0.752490 0
M  V30 28 H 3.053885 1.740643 0.661001 0
M  V30 29 H 3.829158 0.953705 -1.614908 0
M  V30 30 H 2.751174 -0.250188 -3.835224 0
M  V30 31 H 0.664397 -1.147928 -4.790530 0
M  V30 32 H -1.439395 -1.063021 -3.406592 0
M  V30 33 H -1.304318 -0.074175 -1.146414 0
M  V30 34 H -0.782175 3.517633 3.505901 0
M  V30 35 H 1.182633 -0.422754 2.958165 0
M  V30 36 H 2.671338 -2.013749 3.974940 0
M  V30 37 H 1.949640 -4.436643 4.039520 0
M  V30 38 H -0.155652 -5.088377 3.109871 0
M  V30 39 H -1.621894 -3.459322 2.093336 0
M  V30 END ATOM
M  V30 BEGIN BOND
M  V30 1 1 1 2
M  V30 2 1 2 3
M  V30 3 2 3 4
M  V30 4 1 4 5
M  V30 5 2 5 6
M  V30 6 1 6 7
M  V30 7 1 7 8
M  V30 8 2 8 9
M  V30 9 1 9 10
M  V30 10 2 10 11
M  V30 11 1 11 12
M  V30 12 2 12 13
M  V30 13 1 4 14
M  V30 14 2 14 15
M  V30 15 1 14 16
M  V30 16 1 16 17
M  V30 17 2 17 18
M  V30 18 1 2 19
M  V30 19 2 19 20
M  V30 20 1 20 21
M  V30 21 2 21 22
M  V30 22 1 22 23
M  V30 23 2 23 24
M  V30 24 1 17 3
M  V30 25 1 24 19
M  V30 26 1 13 5
M  V30 27 1 13 8
M  V30 28 1 1 25
M  V30 29 1 1 26
M  V30 30 1 1 27
M  V30 31 1 6 28
M  V30 32 1 7 29
M  V30 33 1 9 30
M  V30 34 1 10 31
M  V30 35 1 11 32
M  V30 36 1 12 33
M  V30 37 1 16 34
M  V30 38 1 20 35
M  V30 39 1 21 36
M  V30 40 1 22 37
M  V30 41 1 23 38
M  V30 42 1 24 39
M  V30 END BOND
M  V30 END CTAB
M  END
>  <Dataset>  (635) 
ChEMBL_Kinases

>  <Ligand_Instance>  (635) 
nan

>  <PDB_ID>  (635) 
nan

>  <Standardized_SMILES>  (635) 
CN(C1=C(c2c[nH]c3ccccc23)C(=O)NC1=O)c1ccccc1

>  <Name>  (635) 
nan

>  <Pocket>  (635) 
nan

>  <ATP_Site>  (635) 
nan

>  <Peripheral>  (635) 
nan

>  <Num_H_Atoms_ProtBoundConf>  (635) 
nan

>  <Num_Resolved_Atoms>  (635) 
nan

>  <Num_Not_Resolved_Atoms>  (635) 
nan

$$$$
CHEMBL18701
     RDKit          3D

  0  0  0  0  0  0  0  0  0  0999 V3000
M  V30 BEGIN CTAB
M  V30 COUNTS 42 43 0 0 0
M  V30 BEGIN ATOM
M  V30 1 C -2.110371 -3.361963 3.832912 0
M  V30 2 C -1.186344 -3.655839 2.670372 0
M  V30 3 C -1.730730 -2.996530 1.396086 0
M  V30 4 C -0.799217 -3.299196 0.250102 0
M  V30 5 O 0.454331 -2.819802 0.489923 0
M  V30 6 C 1.016555 -1.618835 0.687521 0
M  V30 7 C 0.520936 -0.335724 0.709342 0
M  V30 8 C 1.214262 0.830899 0.929364 0
M  V30 9 C 0.494835 2.128720 0.913894 0
M  V30 10 C 0.490142 2.697108 -0.493265 0
M  V30 11 C -0.185943 1.781007 -1.466087 0
M  V30 12 N -0.402110 2.682132 -2.595335 0
M  V30 13 C -0.664788 3.961087 -1.983954 0
M  V30 14 O -1.104805 4.987772 -2.589499 0
M  V30 15 N -0.346083 3.878193 -0.580263 0
M  V30 16 C 2.567138 0.699906 1.154439 0
M  V30 17 C 3.157808 -0.569548 1.149833 0
M  V30 18 C 2.397903 -1.724677 0.919405 0
M  V30 19 O 3.079149 -2.952603 0.934084 0
M  V30 20 C 4.468490 -2.885506 1.182034 0
M  V30 21 H -1.950424 -2.328428 4.211538 0
M  V30 22 H -2.054033 -4.126535 4.624388 0
M  V30 23 H -3.176283 -3.356900 3.474798 0
M  V30 24 H -0.160571 -3.347952 2.868626 0
M  V30 25 H -1.183807 -4.763936 2.521148 0
M  V30 26 H -1.705808 -1.919495 1.601494 0
M  V30 27 H -2.755556 -3.376802 1.195996 0
M  V30 28 H -0.728630 -4.432492 0.217211 0
M  V30 29 H -1.257983 -2.970636 -0.711091 0
M  V30 30 H -0.530204 -0.250618 0.520060 0
M  V30 31 H 0.903924 2.845491 1.635033 0
M  V30 32 H -0.583523 1.953288 1.161837 0
M  V30 33 H 1.521137 2.880780 -0.855845 0
M  V30 34 H -1.178331 1.454963 -1.074698 0
M  V30 35 H 0.443040 0.912252 -1.743324 0
M  V30 36 H -0.387616 2.518264 -3.635178 0
M  V30 37 H -0.706239 4.584012 0.117930 0
M  V30 38 H 3.143365 1.597469 1.331210 0
M  V30 39 H 4.222322 -0.565342 1.335819 0
M  V30 40 H 4.712144 -2.374588 2.143829 0
M  V30 41 H 5.004648 -2.283994 0.390518 0
M  V30 42 H 4.942167 -3.867947 1.189507 0
M  V30 END ATOM
M  V30 BEGIN BOND
M  V30 1 1 1 2
M  V30 2 1 2 3
M  V30 3 1 3 4
M  V30 4 1 4 5
M  V30 5 1 5 6
M  V30 6 2 6 7
M  V30 7 1 7 8
M  V30 8 1 8 9
M  V30 9 1 9 10
M  V30 10 1 10 11
M  V30 11 1 11 12
M  V30 12 1 12 13
M  V30 13 2 13 14
M  V30 14 1 13 15
M  V30 15 2 8 16
M  V30 16 1 16 17
M  V30 17 2 17 18
M  V30 18 1 18 19
M  V30 19 1 19 20
M  V30 20 1 18 6
M  V30 21 1 15 10
M  V30 22 1 1 21
M  V30 23 1 1 22
M  V30 24 1 1 23
M  V30 25 1 2 24
M  V30 26 1 2 25
M  V30 27 1 3 26
M  V30 28 1 3 27
M  V30 29 1 4 28
M  V30 30 1 4 29
M  V30 31 1 7 30
M  V30 32 1 9 31
M  V30 33 1 9 32
M  V30 34 1 10 33
M  V30 35 1 11 34
M  V30 36 1 11 35
M  V30 37 1 12 36
M  V30 38 1 15 37
M  V30 39 1 16 38
M  V30 40 1 17 39
M  V30 41 1 20 40
M  V30 42 1 20 41
M  V30 43 1 20 42
M  V30 END BOND
M  V30 END CTAB
M  END
>  <Dataset>  (636) 
ChEMBL_Kinases

>  <Ligand_Instance>  (636) 
nan

>  <PDB_ID>  (636) 
nan

>  <Standardized_SMILES>  (636) 
CCCCOc1cc(CC2CNC(=O)N2)ccc1OC

>  <Name>  (636) 
RO-201724

>  <Pocket>  (636) 
nan

>  <ATP_Site>  (636) 
nan

>  <Peripheral>  (636) 
nan

>  <Num_H_Atoms_ProtBoundConf>  (636) 
nan

>  <Num_Resolved_Atoms>  (636) 
nan

>  <Num_Not_Resolved_Atoms>  (636) 
nan

$$$$
CHEMBL187007
     RDKit          3D

  0  0  0  0  0  0  0  0  0  0999 V3000
M  V30 BEGIN CTAB
M  V30 COUNTS 58 61 0 0 0
M  V30 BEGIN ATOM
M  V30 1 C 2.110376 -3.511347 5.116406 0
M  V30 2 O 2.016314 -3.548680 3.709265 0
M  V30 3 C 2.479386 -2.488884 2.949328 0
M  V30 4 C 3.050398 -1.357642 3.541561 0
M  V30 5 C 3.526260 -0.276392 2.831398 0
M  V30 6 N 4.063075 0.797294 3.428192 0
M  V30 7 C 4.494907 1.810499 2.632812 0
M  V30 8 N 4.403453 1.775124 1.270344 0
M  V30 9 C 3.861156 0.692405 0.637193 0
M  V30 10 N 3.793661 0.722007 -0.780424 0
M  V30 11 C 2.699295 1.077763 -1.577000 0
M  V30 12 C 1.503482 1.439641 -1.030156 0
M  V30 13 C 0.463072 1.777097 -1.893533 0
M  V30 14 N -0.761752 2.136350 -1.215800 0
M  V30 15 C -1.450975 0.881553 -1.082276 0
M  V30 16 O -0.786592 -0.076174 -1.578919 0
M  V30 17 C -2.775302 0.716258 -0.443555 0
M  V30 18 C -3.499245 1.758632 0.071580 0
M  V30 19 C -4.711943 1.488034 0.641802 0
M  V30 20 C -5.163784 0.190916 0.680575 0
M  V30 21 C -4.462047 -0.881842 0.171994 0
M  V30 22 N -4.940767 -2.237924 0.222504 0
M  V30 23 C -4.137259 -3.293083 -0.338840 0
M  V30 24 C -6.209295 -2.572826 0.824605 0
M  V30 25 C -3.249104 -0.577593 -0.393573 0
M  V30 26 C 0.584893 1.762958 -3.265301 0
M  V30 27 C 1.820437 1.388811 -3.777224 0
M  V30 28 C 2.853944 1.053627 -2.947257 0
M  V30 29 Cl 4.364373 0.600058 -3.751491 0
M  V30 30 C 3.427854 -0.326487 1.460321 0
M  V30 31 C 2.872987 -1.424025 0.866422 0
M  V30 32 C 2.390075 -2.516861 1.556085 0
M  V30 33 O 1.820755 -3.649214 1.019650 0
M  V30 34 C 1.622130 -3.901419 -0.348814 0
M  V30 35 H 3.115281 -3.229179 5.466365 0
M  V30 36 H 1.817232 -4.526834 5.493444 0
M  V30 37 H 1.369620 -2.779898 5.513117 0
M  V30 38 H 3.135044 -1.304732 4.634905 0
M  V30 39 H 4.941535 2.715508 3.019886 0
M  V30 40 H 4.714552 0.428155 -1.173514 0
M  V30 41 H 1.442323 1.439962 0.044874 0
M  V30 42 H -1.248274 2.984105 -0.827738 0
M  V30 43 H -3.112945 2.748018 0.020977 0
M  V30 44 H -5.315269 2.307956 1.063329 0
M  V30 45 H -6.114408 0.046652 1.135767 0
M  V30 46 H -4.547971 -4.281519 0.006309 0
M  V30 47 H -3.057279 -3.231993 -0.066759 0
M  V30 48 H -4.212168 -3.322194 -1.449288 0
M  V30 49 H -6.961238 -2.552202 -0.018243 0
M  V30 50 H -6.171918 -3.647030 1.176023 0
M  V30 51 H -6.519516 -1.871062 1.607495 0
M  V30 52 H -2.671191 -1.387752 -0.802364 0
M  V30 53 H -0.287695 2.044006 -3.845658 0
M  V30 54 H 1.895471 1.384732 -4.866800 0
M  V30 55 H 2.790369 -1.475727 -0.211238 0
M  V30 56 H 0.542125 -3.721425 -0.628868 0
M  V30 57 H 2.233893 -3.272862 -1.015356 0
M  V30 58 H 1.892814 -4.961171 -0.597279 0
M  V30 END ATOM
M  V30 BEGIN BOND
M  V30 1 1 1 2
M  V30 2 1 2 3
M  V30 3 2 3 4
M  V30 4 1 4 5
M  V30 5 2 5 6
M  V30 6 1 6 7
M  V30 7 2 7 8
M  V30 8 1 8 9
M  V30 9 1 9 10
M  V30 10 1 10 11
M  V30 11 2 11 12
M  V30 12 1 12 13
M  V30 13 1 13 14
M  V30 14 1 14 15
M  V30 15 2 15 16
M  V30 16 1 15 17
M  V30 17 2 17 18
M  V30 18 1 18 19
M  V30 19 2 19 20
M  V30 20 1 20 21
M  V30 21 1 21 22
M  V30 22 1 22 23
M  V30 23 1 22 24
M  V30 24 2 21 25
M  V30 25 2 13 26
M  V30 26 1 26 27
M  V30 27 2 27 28
M  V30 28 1 28 29
M  V30 29 2 9 30
M  V30 30 1 30 31
M  V30 31 2 31 32
M  V30 32 1 32 33
M  V30 33 1 33 34
M  V30 34 1 32 3
M  V30 35 1 30 5
M  V30 36 1 28 11
M  V30 37 1 25 17
M  V30 38 1 1 35
M  V30 39 1 1 36
M  V30 40 1 1 37
M  V30 41 1 4 38
M  V30 42 1 7 39
M  V30 43 1 10 40
M  V30 44 1 12 41
M  V30 45 1 14 42
M  V30 46 1 18 43
M  V30 47 1 19 44
M  V30 48 1 20 45
M  V30 49 1 23 46
M  V30 50 1 23 47
M  V30 51 1 23 48
M  V30 52 1 24 49
M  V30 53 1 24 50
M  V30 54 1 24 51
M  V30 55 1 25 52
M  V30 56 1 26 53
M  V30 57 1 27 54
M  V30 58 1 31 55
M  V30 59 1 34 56
M  V30 60 1 34 57
M  V30 61 1 34 58
M  V30 END BOND
M  V30 END CTAB
M  END
>  <Dataset>  (637) 
ChEMBL_Kinases

>  <Ligand_Instance>  (637) 
nan

>  <PDB_ID>  (637) 
nan

>  <Standardized_SMILES>  (637) 
COc1cc2ncnc(Nc3cc(NC(=O)c4cccc(N(C)C)c4)ccc3Cl)c2cc1OC

>  <Name>  (637) 
nan

>  <Pocket>  (637) 
nan

>  <ATP_Site>  (637) 
nan

>  <Peripheral>  (637) 
nan

>  <Num_H_Atoms_ProtBoundConf>  (637) 
nan

>  <Num_Resolved_Atoms>  (637) 
nan

>  <Num_Not_Resolved_Atoms>  (637) 
nan

$$$$
CHEMBL186995
     RDKit          3D

  0  0  0  0  0  0  0  0  0  0999 V3000
M  V30 BEGIN CTAB
M  V30 COUNTS 39 41 0 0 0
M  V30 BEGIN ATOM
M  V30 1 O -2.898144 -0.995711 -1.021644 0
M  V30 2 C -1.955896 -0.615999 -0.269156 0
M  V30 3 N -0.794987 -1.380254 -0.542721 0
M  V30 4 C -0.810545 -2.416629 -1.558869 0
M  V30 5 C 0.577965 -3.003969 -1.574840 0
M  V30 6 C 0.916985 -4.237284 -1.016363 0
M  V30 7 C 2.235457 -4.646639 -1.108947 0
M  V30 8 C 3.203579 -3.884472 -1.725698 0
M  V30 9 C 2.842409 -2.652089 -2.279021 0
M  V30 10 C 1.521828 -2.202313 -2.206687 0
M  V30 11 Cl 1.153434 -0.655076 -2.920006 0
M  V30 12 C -2.177678 0.454712 0.683801 0
M  V30 13 C -3.435900 1.019227 0.721252 0
M  V30 14 C -3.756151 2.028520 1.573807 0
M  V30 15 C -2.830639 2.545074 2.453921 0
M  V30 16 N -1.606940 1.999199 2.420431 0
M  V30 17 C -1.289994 0.998785 1.575058 0
M  V30 18 O -0.014785 0.480727 1.590054 0
M  V30 19 C 0.936582 0.968146 2.452232 0
M  V30 20 C 1.833183 1.994260 2.253937 0
M  V30 21 C 2.719562 2.337123 3.254725 0
M  V30 22 C 2.734393 1.676512 4.458858 0
M  V30 23 C 1.837100 0.642622 4.670011 0
M  V30 24 C 0.951463 0.295805 3.677876 0
M  V30 25 H 0.047420 -1.146792 0.025169 0
M  V30 26 H -1.036896 -1.992638 -2.578385 0
M  V30 27 H -1.524902 -3.227171 -1.339519 0
M  V30 28 H 0.119992 -4.795109 -0.544502 0
M  V30 29 H 2.457408 -5.607270 -0.663543 0
M  V30 30 H 4.243051 -4.242406 -1.779279 0
M  V30 31 H 3.660411 -2.094159 -2.756673 0
M  V30 32 H -4.221226 0.666957 0.058659 0
M  V30 33 H -4.739474 2.459178 1.591278 0
M  V30 34 H -3.071844 3.346230 3.135366 0
M  V30 35 H 1.758342 2.470378 1.269185 0
M  V30 36 H 3.394193 3.152317 3.029816 0
M  V30 37 H 3.464602 2.015635 5.183478 0
M  V30 38 H 1.857800 0.130387 5.619867 0
M  V30 39 H 0.285804 -0.526618 3.933186 0
M  V30 END ATOM
M  V30 BEGIN BOND
M  V30 1 2 1 2
M  V30 2 1 2 3
M  V30 3 1 3 4
M  V30 4 1 4 5
M  V30 5 2 5 6
M  V30 6 1 6 7
M  V30 7 2 7 8
M  V30 8 1 8 9
M  V30 9 2 9 10
M  V30 10 1 10 11
M  V30 11 1 2 12
M  V30 12 2 12 13
M  V30 13 1 13 14
M  V30 14 2 14 15
M  V30 15 1 15 16
M  V30 16 2 16 17
M  V30 17 1 17 18
M  V30 18 1 18 19
M  V30 19 2 19 20
M  V30 20 1 20 21
M  V30 21 2 21 22
M  V30 22 1 22 23
M  V30 23 2 23 24
M  V30 24 1 10 5
M  V30 25 1 17 12
M  V30 26 1 24 19
M  V30 27 1 3 25
M  V30 28 1 4 26
M  V30 29 1 4 27
M  V30 30 1 6 28
M  V30 31 1 7 29
M  V30 32 1 8 30
M  V30 33 1 9 31
M  V30 34 1 13 32
M  V30 35 1 14 33
M  V30 36 1 15 34
M  V30 37 1 20 35
M  V30 38 1 21 36
M  V30 39 1 22 37
M  V30 40 1 23 38
M  V30 41 1 24 39
M  V30 END BOND
M  V30 END CTAB
M  END
>  <Dataset>  (638) 
ChEMBL_Kinases

>  <Ligand_Instance>  (638) 
nan

>  <PDB_ID>  (638) 
nan

>  <Standardized_SMILES>  (638) 
O=C(NCc1ccccc1Cl)c1cccnc1Oc1ccccc1

>  <Name>  (638) 
nan

>  <Pocket>  (638) 
nan

>  <ATP_Site>  (638) 
nan

>  <Peripheral>  (638) 
nan

>  <Num_H_Atoms_ProtBoundConf>  (638) 
nan

>  <Num_Resolved_Atoms>  (638) 
nan

>  <Num_Not_Resolved_Atoms>  (638) 
nan

$$$$
CHEMBL1835628
     RDKit          3D

  0  0  0  0  0  0  0  0  0  0999 V3000
M  V30 BEGIN CTAB
M  V30 COUNTS 53 57 0 0 0
M  V30 BEGIN ATOM
M  V30 1 C 1.939127 -1.429953 5.643364 0
M  V30 2 C 2.499096 -1.458513 4.293925 0
M  V30 3 C 3.562614 -2.155621 3.874752 0
M  V30 4 C 4.220730 -2.265283 2.642257 0
M  V30 5 C 3.544543 -1.432071 1.730680 0
M  V30 6 C 2.467945 -0.702346 2.083775 0
M  V30 7 C 1.704725 0.127663 1.156092 0
M  V30 8 N 1.481489 1.469433 1.229940 0
M  V30 9 N 0.711878 1.872580 0.286960 0
M  V30 10 C -0.077390 2.603251 -0.508102 0
M  V30 11 S 1.207240 3.569518 -1.017996 0
M  V30 12 N -0.849130 3.332764 -1.298232 0
M  V30 13 C -1.768469 2.388427 -0.682497 0
M  V30 14 C -1.929228 2.139142 0.710961 0
M  V30 15 C -2.769963 1.232223 1.374384 0
M  V30 16 C -2.716455 1.168820 2.845707 0
M  V30 17 F -3.775878 1.834028 3.425964 0
M  V30 18 F -1.550816 1.818660 3.289073 0
M  V30 19 F -2.660551 -0.170861 3.265346 0
M  V30 20 C -3.541254 0.487758 0.540658 0
M  V30 21 C -3.500774 0.608584 -0.836109 0
M  V30 22 C -4.436168 -0.321482 -1.501702 0
M  V30 23 F -4.268862 -0.395808 -2.848796 0
M  V30 24 F -4.269844 -1.619355 -0.983524 0
M  V30 25 F -5.757714 0.038146 -1.197319 0
M  V30 26 C -2.636442 1.534697 -1.351348 0
M  V30 27 C 0.473392 0.684759 -0.400688 0
M  V30 28 C 1.081273 -0.521556 0.102402 0
M  V30 29 C 0.863780 -1.835739 -0.562747 0
M  V30 30 C -0.509983 -2.034113 -0.749443 0
M  V30 31 C -1.031573 -3.083537 -1.445074 0
M  V30 32 C -0.066725 -4.002752 -1.990483 0
M  V30 33 N 0.010488 -5.170198 -2.744228 0
M  V30 34 C 1.280357 -5.470603 -2.878573 0
M  V30 35 N 2.040353 -4.588869 -2.270525 0
M  V30 36 N 1.190847 -3.648544 -1.703182 0
M  V30 37 C 1.803371 -2.665244 -1.044167 0
M  V30 38 N 1.913443 -0.680215 3.335601 0
M  V30 39 H 2.293599 -0.520490 6.213459 0
M  V30 40 H 0.833079 -1.309090 5.631036 0
M  V30 41 H 2.193206 -2.332497 6.222523 0
M  V30 42 H 4.012423 -2.798601 4.675705 0
M  V30 43 H 5.064091 -2.864143 2.460089 0
M  V30 44 H 3.959661 -1.389594 0.753560 0
M  V30 45 H -1.051486 4.070158 -1.958100 0
M  V30 46 H -1.303863 2.753544 1.376569 0
M  V30 47 H -4.163574 -0.204422 1.092138 0
M  V30 48 H -2.639574 1.576380 -2.423620 0
M  V30 49 H -0.103215 0.433893 -1.353744 0
M  V30 50 H -1.338496 -1.401657 -0.388417 0
M  V30 51 H -2.031823 -3.415529 -1.701156 0
M  V30 52 H 1.165404 -6.388138 -3.465101 0
M  V30 53 H 2.817162 -2.481584 -0.884446 0
M  V30 END ATOM
M  V30 BEGIN BOND
M  V30 1 1 1 2
M  V30 2 2 2 3
M  V30 3 1 3 4
M  V30 4 2 4 5
M  V30 5 1 5 6
M  V30 6 1 6 7
M  V30 7 2 7 8
M  V30 8 1 8 9
M  V30 9 1 9 10
M  V30 10 2 10 11
M  V30 11 1 10 12
M  V30 12 1 12 13
M  V30 13 2 13 14
M  V30 14 1 14 15
M  V30 15 1 15 16
M  V30 16 1 16 17
M  V30 17 1 16 18
M  V30 18 1 16 19
M  V30 19 2 15 20
M  V30 20 1 20 21
M  V30 21 1 21 22
M  V30 22 1 22 23
M  V30 23 1 22 24
M  V30 24 1 22 25
M  V30 25 2 21 26
M  V30 26 1 9 27
M  V30 27 2 27 28
M  V30 28 1 28 29
M  V30 29 1 29 30
M  V30 30 2 30 31
M  V30 31 1 31 32
M  V30 32 2 32 33
M  V30 33 1 33 34
M  V30 34 2 34 35
M  V30 35 1 35 36
M  V30 36 1 36 37
M  V30 37 2 6 38
M  V30 38 1 38 2
M  V30 39 1 28 7
M  V30 40 2 37 29
M  V30 41 1 26 13
M  V30 42 1 36 32
M  V30 43 1 1 39
M  V30 44 1 1 40
M  V30 45 1 1 41
M  V30 46 1 3 42
M  V30 47 1 4 43
M  V30 48 1 5 44
M  V30 49 1 12 45
M  V30 50 1 14 46
M  V30 51 1 20 47
M  V30 52 1 26 48
M  V30 53 1 27 49
M  V30 54 1 30 50
M  V30 55 1 31 51
M  V30 56 1 34 52
M  V30 57 1 37 53
M  V30 END BOND
M  V30 END CTAB
M  END
>  <Dataset>  (639) 
ChEMBL_Kinases

>  <Ligand_Instance>  (639) 
nan

>  <PDB_ID>  (639) 
nan

>  <Standardized_SMILES>  (639) 
Cc1cccc(-c2nn(C(=S)Nc3cc(C(F)(F)F)cc(C(F)(F)F)c3)cc2-c2ccc3ncnn3c2)n1

>  <Name>  (639) 
nan

>  <Pocket>  (639) 
nan

>  <ATP_Site>  (639) 
nan

>  <Peripheral>  (639) 
nan

>  <Num_H_Atoms_ProtBoundConf>  (639) 
nan

>  <Num_Resolved_Atoms>  (639) 
nan

>  <Num_Not_Resolved_Atoms>  (639) 
nan

$$$$
CHEMBL1863513
     RDKit          3D

  0  0  0  0  0  0  0  0  0  0999 V3000
M  V30 BEGIN CTAB
M  V30 COUNTS 65 68 0 0 0
M  V30 BEGIN ATOM
M  V30 1 C 1.780568 5.774294 -2.600147 0
M  V30 2 C 0.381019 5.490427 -3.014428 0
M  V30 3 C -0.169967 4.330560 -2.692186 0
M  V30 4 C -1.570222 4.093061 -3.128220 0
M  V30 5 C 0.552847 3.313244 -1.939258 0
M  V30 6 O 1.728283 3.501909 -1.568278 0
M  V30 7 O -0.064159 2.125472 -1.629851 0
M  V30 8 C 0.624739 1.152575 -0.910771 0 CFG=1
M  V30 9 C 0.022853 0.799754 0.403557 0
M  V30 10 C 0.169266 1.714042 1.585143 0
M  V30 11 C -0.599549 -0.394871 0.251416 0
M  V30 12 C -0.491380 -0.940927 -1.098466 0 CFG=2
M  V30 13 C -0.123044 -2.400630 -1.203763 0
M  V30 14 O -0.080925 -2.649375 -2.377483 0
M  V30 15 C 0.099920 -3.192897 0.020875 0 CFG=1
M  V30 16 C 1.112263 -2.347978 0.779730 0
M  V30 17 C 1.925574 -1.361650 0.306280 0
M  V30 18 C 2.854276 -0.772116 1.335237 0
M  V30 19 O 2.636190 -1.402726 2.535577 0
M  V30 20 C 1.936582 -0.882807 -1.096925 0 CFG=1
M  V30 21 O 2.397151 -1.847069 -1.982093 0
M  V30 22 C 0.674101 -0.209747 -1.581150 0 CFG=2
M  V30 23 O 0.761682 -0.090337 -2.965155 0
M  V30 24 C -1.234178 -3.189269 0.716161 0 CFG=1
M  V30 25 C -2.366017 -2.537741 0.166440 0 CFG=1
M  V30 26 C -2.560403 -2.126775 -1.205733 0
M  V30 27 C -1.811053 -0.907705 -1.715785 0 CFG=1
M  V30 28 C -2.653069 0.300465 -1.401806 0
M  V30 29 C -2.331946 -4.072071 0.364898 0
M  V30 30 C -2.348987 -4.937172 -0.873401 0
M  V30 31 C -3.259280 -4.620659 1.458690 0
M  V30 32 H 2.065239 6.796838 -2.957758 0
M  V30 33 H 1.888480 5.832559 -1.491721 0
M  V30 34 H 2.525274 5.100715 -3.075453 0
M  V30 35 H -0.199243 6.232585 -3.584321 0
M  V30 36 H -1.737118 3.034575 -3.422846 0
M  V30 37 H -2.216201 4.297044 -2.237134 0
M  V30 38 H -1.866914 4.790677 -3.913160 0
M  V30 39 H 1.667400 1.516571 -0.672767 0
M  V30 40 H -0.182060 1.242927 2.520074 0
M  V30 41 H 1.172951 2.130987 1.653491 0
M  V30 42 H -0.516640 2.596188 1.421432 0
M  V30 43 H -1.066612 -0.730065 1.167756 0
M  V30 44 H 0.489532 -4.178918 -0.220912 0
M  V30 45 H 1.214494 -2.540266 1.834109 0
M  V30 46 H 2.703018 0.309672 1.338361 0
M  V30 47 H 3.888976 -1.029900 0.960383 0
M  V30 48 H 2.924242 -0.779758 3.259738 0
M  V30 49 H 2.721895 -0.068045 -1.132225 0
M  V30 50 H 2.422760 -1.455645 -2.869067 0
M  V30 51 H -0.081376 0.300464 -3.284796 0
M  V30 52 H -1.063905 -3.115095 1.812666 0
M  V30 53 H -3.066970 -2.011455 0.887424 0
M  V30 54 H -3.647798 -1.904437 -1.395308 0
M  V30 55 H -2.354670 -2.958903 -1.944370 0
M  V30 56 H -1.765654 -0.976364 -2.834344 0
M  V30 57 H -2.563836 1.109385 -2.153086 0
M  V30 58 H -3.723995 -0.025461 -1.473082 0
M  V30 59 H -2.476082 0.590260 -0.366091 0
M  V30 60 H -3.303336 -4.712218 -1.434975 0
M  V30 61 H -2.443706 -5.974173 -0.558037 0
M  V30 62 H -1.471531 -4.854184 -1.509977 0
M  V30 63 H -2.563095 -4.916919 2.280224 0
M  V30 64 H -3.887597 -5.442946 1.122213 0
M  V30 65 H -3.890732 -3.811113 1.888891 0
M  V30 END ATOM
M  V30 BEGIN BOND
M  V30 1 1 1 2
M  V30 2 2 2 3
M  V30 3 1 3 4
M  V30 4 1 3 5
M  V30 5 2 5 6
M  V30 6 1 5 7
M  V30 7 1 7 8
M  V30 8 1 8 9
M  V30 9 1 9 10
M  V30 10 2 9 11
M  V30 11 1 12 11 CFG=1
M  V30 12 1 12 13
M  V30 13 2 13 14
M  V30 14 1 13 15
M  V30 15 1 15 16
M  V30 16 2 16 17
M  V30 17 1 17 18
M  V30 18 1 18 19
M  V30 19 1 17 20
M  V30 20 1 20 21
M  V30 21 1 20 22
M  V30 22 1 22 23 CFG=3
M  V30 23 1 15 24
M  V30 24 1 24 25
M  V30 25 1 25 26
M  V30 26 1 26 27
M  V30 27 1 27 28
M  V30 28 1 25 29
M  V30 29 1 29 30
M  V30 30 1 29 31
M  V30 31 1 22 8
M  V30 32 1 29 24
M  V30 33 1 22 12
M  V30 34 1 27 12
M  V30 35 1 1 32
M  V30 36 1 1 33
M  V30 37 1 1 34
M  V30 38 1 2 35
M  V30 39 1 4 36
M  V30 40 1 4 37
M  V30 41 1 4 38
M  V30 42 1 8 39 CFG=1
M  V30 43 1 10 40
M  V30 44 1 10 41
M  V30 45 1 10 42
M  V30 46 1 11 43
M  V30 47 1 15 44 CFG=3
M  V30 48 1 16 45
M  V30 49 1 18 46
M  V30 50 1 18 47
M  V30 51 1 19 48
M  V30 52 1 20 49 CFG=1
M  V30 53 1 21 50
M  V30 54 1 23 51
M  V30 55 1 24 52 CFG=1
M  V30 56 1 25 53 CFG=1
M  V30 57 1 26 54
M  V30 58 1 26 55
M  V30 59 1 27 56 CFG=3
M  V30 60 1 28 57
M  V30 61 1 28 58
M  V30 62 1 28 59
M  V30 63 1 30 60
M  V30 64 1 30 61
M  V30 65 1 30 62
M  V30 66 1 31 63
M  V30 67 1 31 64
M  V30 68 1 31 65
M  V30 END BOND
M  V30 END CTAB
M  END
>  <Dataset>  (640) 
ChEMBL_Kinases

>  <Ligand_Instance>  (640) 
nan

>  <PDB_ID>  (640) 
nan

>  <Standardized_SMILES>  (640) 
C/C=C(/C)C(=O)O[C@H]1C(C)=C[C@]23C(=O)[C@@H](C=C(CO)[C@@H](O)[C@]12O)[C@H]1[C@@H](C[C@H]3C)C1(C)C

>  <Name>  (640) 
INGENOL MEBUTATE

>  <Pocket>  (640) 
nan

>  <ATP_Site>  (640) 
nan

>  <Peripheral>  (640) 
nan

>  <Num_H_Atoms_ProtBoundConf>  (640) 
nan

>  <Num_Resolved_Atoms>  (640) 
nan

>  <Num_Not_Resolved_Atoms>  (640) 
nan

$$$$
CHEMBL186425
     RDKit          3D

  0  0  0  0  0  0  0  0  0  0999 V3000
M  V30 BEGIN CTAB
M  V30 COUNTS 44 48 0 0 0
M  V30 BEGIN ATOM
M  V30 1 F 1.278245 -2.115060 5.154315 0
M  V30 2 C 1.503308 -1.316720 4.056527 0
M  V30 3 C 2.242182 -1.810420 2.991182 0
M  V30 4 C 2.464488 -1.008678 1.895900 0
M  V30 5 C 1.953151 0.251578 1.882203 0
M  V30 6 C 2.020232 1.310198 0.860048 0
M  V30 7 N 2.624199 2.493541 0.925424 0
M  V30 8 N 2.464672 3.190603 -0.184746 0
M  V30 9 N 2.866403 4.406587 -0.593257 0
M  V30 10 C 2.543465 4.874436 -1.810943 0
M  V30 11 C 1.792052 4.179217 -2.735612 0
M  V30 12 C 1.378444 2.933266 -2.320556 0
M  V30 13 C 1.720906 2.467054 -1.061514 0
M  V30 14 C 1.449451 1.285034 -0.387714 0
M  V30 15 C 0.657272 0.149784 -0.917338 0
M  V30 16 C 1.005496 -0.465568 -2.100235 0
M  V30 17 C 0.182418 -1.508741 -2.490258 0
M  V30 18 N -0.895618 -1.900936 -1.758850 0
M  V30 19 C -1.217135 -1.289668 -0.610662 0
M  V30 20 N -2.272863 -1.490584 0.317983 0
M  V30 21 C -2.214161 -2.560212 1.287324 0
M  V30 22 C -3.141585 -2.670828 2.295126 0
M  V30 23 C -3.109029 -3.698303 3.215790 0
M  V30 24 C -2.077681 -4.593895 3.039088 0
M  V30 25 C -1.117049 -4.536325 2.048747 0
M  V30 26 C -1.176647 -3.496361 1.143383 0
M  V30 27 N -0.418276 -0.277491 -0.232209 0
M  V30 28 C 1.208314 0.750828 2.956209 0
M  V30 29 C 0.965929 -0.037672 4.080795 0
M  V30 30 H 2.662948 -2.803958 2.966808 0
M  V30 31 H 3.011606 -1.244508 1.004057 0
M  V30 32 H 2.913514 5.865215 -2.041449 0
M  V30 33 H 1.583794 4.639424 -3.689397 0
M  V30 34 H 0.785055 2.345943 -3.009471 0
M  V30 35 H 1.850700 -0.165678 -2.678961 0
M  V30 36 H 0.346818 -2.072680 -3.389612 0
M  V30 37 H -3.113414 -0.877948 0.334231 0
M  V30 38 H -3.938423 -1.917307 2.377920 0
M  V30 39 H -3.832430 -3.805097 4.022832 0
M  V30 40 H -1.945786 -5.453125 3.707996 0
M  V30 41 H -0.315685 -5.280580 1.954072 0
M  V30 42 H -0.437034 -3.425898 0.353389 0
M  V30 43 H 0.744009 1.738759 3.073455 0
M  V30 44 H 0.401630 0.271953 4.945570 0
M  V30 END ATOM
M  V30 BEGIN BOND
M  V30 1 1 1 2
M  V30 2 2 2 3
M  V30 3 1 3 4
M  V30 4 2 4 5
M  V30 5 1 5 6
M  V30 6 2 6 7
M  V30 7 1 7 8
M  V30 8 1 8 9
M  V30 9 2 9 10
M  V30 10 1 10 11
M  V30 11 2 11 12
M  V30 12 1 12 13
M  V30 13 2 13 14
M  V30 14 1 14 15
M  V30 15 2 15 16
M  V30 16 1 16 17
M  V30 17 2 17 18
M  V30 18 1 18 19
M  V30 19 1 19 20
M  V30 20 1 20 21
M  V30 21 2 21 22
M  V30 22 1 22 23
M  V30 23 2 23 24
M  V30 24 1 24 25
M  V30 25 2 25 26
M  V30 26 2 19 27
M  V30 27 1 5 28
M  V30 28 2 28 29
M  V30 29 1 29 2
M  V30 30 1 14 6
M  V30 31 1 27 15
M  V30 32 1 13 8
M  V30 33 1 26 21
M  V30 34 1 3 30
M  V30 35 1 4 31
M  V30 36 1 10 32
M  V30 37 1 11 33
M  V30 38 1 12 34
M  V30 39 1 16 35
M  V30 40 1 17 36
M  V30 41 1 20 37
M  V30 42 1 22 38
M  V30 43 1 23 39
M  V30 44 1 24 40
M  V30 45 1 25 41
M  V30 46 1 26 42
M  V30 47 1 28 43
M  V30 48 1 29 44
M  V30 END BOND
M  V30 END CTAB
M  END
>  <Dataset>  (641) 
ChEMBL_Kinases

>  <Ligand_Instance>  (641) 
nan

>  <PDB_ID>  (641) 
nan

>  <Standardized_SMILES>  (641) 
Fc1ccc(-c2nn3ncccc3c2-c2ccnc(Nc3ccccc3)n2)cc1

>  <Name>  (641) 
nan

>  <Pocket>  (641) 
nan

>  <ATP_Site>  (641) 
nan

>  <Peripheral>  (641) 
nan

>  <Num_H_Atoms_ProtBoundConf>  (641) 
nan

>  <Num_Resolved_Atoms>  (641) 
nan

>  <Num_Not_Resolved_Atoms>  (641) 
nan

$$$$
CHEMBL186476
     RDKit          3D

  0  0  0  0  0  0  0  0  0  0999 V3000
M  V30 BEGIN CTAB
M  V30 COUNTS 44 48 0 0 0
M  V30 BEGIN ATOM
M  V30 1 F 0.858246 -4.325738 -5.110251 0
M  V30 2 C 1.282776 -3.605355 -4.045534 0
M  V30 3 C 2.420300 -3.976758 -3.332407 0
M  V30 4 C 2.833052 -3.227526 -2.253668 0
M  V30 5 F 3.949484 -3.623288 -1.582513 0
M  V30 6 C 2.153106 -2.084051 -1.825046 0
M  V30 7 C 1.022309 -1.711164 -2.530342 0
M  V30 8 N 0.301069 -0.550405 -2.124368 0
M  V30 9 C 0.786472 0.194171 -1.015593 0
M  V30 10 N 1.632693 1.194769 -1.254263 0
M  V30 11 C 2.140620 1.948889 -0.262580 0
M  V30 12 C 1.791624 1.700282 1.050028 0
M  V30 13 C 0.914702 0.664834 1.309835 0
M  V30 14 C 0.365515 0.161065 2.562258 0
M  V30 15 C -0.957596 0.094822 2.983893 0
M  V30 16 C -2.076161 0.568671 2.152966 0
M  V30 17 C -3.121560 -0.179849 1.653372 0
M  V30 18 C -4.079673 0.482388 0.884044 0
M  V30 19 C -3.971521 1.820293 0.644397 0
M  V30 20 C -2.941110 2.595468 1.128248 0
M  V30 21 C -1.990819 1.919516 1.895787 0
M  V30 22 N -0.974655 -0.450638 4.214153 0
M  V30 23 N 0.273707 -0.722846 4.569483 0
M  V30 24 N 0.718715 -1.270408 5.709858 0
M  V30 25 C 2.039725 -1.482202 5.914562 0
M  V30 26 C 2.948041 -1.122762 4.919330 0
M  V30 27 C 2.494431 -0.557795 3.741776 0
M  V30 28 C 1.132804 -0.363045 3.583468 0
M  V30 29 N 0.428373 -0.069397 0.268732 0
M  V30 30 C 0.616086 -2.467374 -3.609615 0
M  V30 31 H 2.934309 -4.865051 -3.679406 0
M  V30 32 H 2.521880 -1.537734 -0.974831 0
M  V30 33 H -0.559118 -0.268365 -2.638112 0
M  V30 34 H 2.831514 2.777627 -0.373008 0
M  V30 35 H 2.090994 2.188545 1.961884 0
M  V30 36 H -3.080378 -1.224038 1.920303 0
M  V30 37 H -4.879636 -0.159515 0.517143 0
M  V30 38 H -4.740957 2.307690 0.036329 0
M  V30 39 H -2.892473 3.654394 0.915638 0
M  V30 40 H -1.191320 2.584766 2.256567 0
M  V30 41 H 2.436679 -1.920932 6.820281 0
M  V30 42 H 4.005695 -1.298655 5.098559 0
M  V30 43 H 3.199387 -0.271923 2.953703 0
M  V30 44 H -0.269448 -2.192193 -4.177472 0
M  V30 END ATOM
M  V30 BEGIN BOND
M  V30 1 1 1 2
M  V30 2 2 2 3
M  V30 3 1 3 4
M  V30 4 1 4 5
M  V30 5 2 4 6
M  V30 6 1 6 7
M  V30 7 1 7 8
M  V30 8 1 8 9
M  V30 9 2 9 10
M  V30 10 1 10 11
M  V30 11 2 11 12
M  V30 12 1 12 13
M  V30 13 1 13 14
M  V30 14 1 14 15
M  V30 15 1 15 16
M  V30 16 2 16 17
M  V30 17 1 17 18
M  V30 18 2 18 19
M  V30 19 1 19 20
M  V30 20 2 20 21
M  V30 21 2 15 22
M  V30 22 1 22 23
M  V30 23 1 23 24
M  V30 24 2 24 25
M  V30 25 1 25 26
M  V30 26 2 26 27
M  V30 27 1 27 28
M  V30 28 2 13 29
M  V30 29 2 7 30
M  V30 30 1 30 2
M  V30 31 1 29 9
M  V30 32 2 28 14
M  V30 33 1 21 16
M  V30 34 1 28 23
M  V30 35 1 3 31
M  V30 36 1 6 32
M  V30 37 1 8 33
M  V30 38 1 11 34
M  V30 39 1 12 35
M  V30 40 1 17 36
M  V30 41 1 18 37
M  V30 42 1 19 38
M  V30 43 1 20 39
M  V30 44 1 21 40
M  V30 45 1 25 41
M  V30 46 1 26 42
M  V30 47 1 27 43
M  V30 48 1 30 44
M  V30 END BOND
M  V30 END CTAB
M  END
>  <Dataset>  (642) 
ChEMBL_Kinases

>  <Ligand_Instance>  (642) 
nan

>  <PDB_ID>  (642) 
nan

>  <Standardized_SMILES>  (642) 
Fc1cc(F)cc(Nc2nccc(-c3c(-c4ccccc4)nn4ncccc34)n2)c1

>  <Name>  (642) 
nan

>  <Pocket>  (642) 
nan

>  <ATP_Site>  (642) 
nan

>  <Peripheral>  (642) 
nan

>  <Num_H_Atoms_ProtBoundConf>  (642) 
nan

>  <Num_Resolved_Atoms>  (642) 
nan

>  <Num_Not_Resolved_Atoms>  (642) 
nan

$$$$
CHEMBL186531
     RDKit          3D

  0  0  0  0  0  0  0  0  0  0999 V3000
M  V30 BEGIN CTAB
M  V30 COUNTS 69 73 0 0 0
M  V30 BEGIN ATOM
M  V30 1 C 1.128948 -4.088343 4.769041 0
M  V30 2 C 1.766888 -3.522561 3.566257 0
M  V30 3 C 3.000703 -3.951530 3.117108 0
M  V30 4 C 3.592858 -3.409227 1.971355 0
M  V30 5 C 2.921823 -2.411113 1.265333 0
M  V30 6 N 3.381356 -1.773857 0.077845 0
M  V30 7 C 3.176734 -2.065425 -1.281805 0
M  V30 8 O 2.455195 -3.071494 -1.532386 0
M  V30 9 C 3.777258 -1.232585 -2.313867 0
M  V30 10 C 4.639084 -0.224319 -2.036973 0
M  V30 11 C 5.156310 0.533784 -3.066192 0
M  V30 12 F 6.024562 1.542309 -2.778665 0
M  V30 13 C 4.813912 0.288963 -4.391835 0
M  V30 14 C 3.937091 -0.743579 -4.627607 0
M  V30 15 N 3.556438 -1.002321 -5.978061 0
M  V30 16 C 2.760825 -2.055952 -6.567075 0
M  V30 17 C 1.476645 -1.429101 -7.067956 0
M  V30 18 O 1.765132 -0.451269 -7.982880 0
M  V30 19 C 3.087543 -0.252548 -8.269650 0
M  V30 20 C 3.967058 -0.109373 -7.060545 0
M  V30 21 C 3.394138 -1.529166 -3.629823 0
M  V30 22 C 1.671748 -1.983065 1.729078 0
M  V30 23 C 1.091738 -2.537038 2.879454 0
M  V30 24 N -0.182093 -2.017858 3.241109 0
M  V30 25 C -0.706569 -0.985469 4.043541 0
M  V30 26 O 0.067700 -0.232038 4.682296 0
M  V30 27 C -2.151256 -0.823275 4.104222 0
M  V30 28 C -2.557465 0.196524 4.942220 0
M  V30 29 C -3.913324 0.466132 5.091491 0
M  V30 30 C -4.874833 -0.258293 4.424227 0
M  V30 31 O -6.246935 -0.249473 4.351070 0
M  V30 32 C -7.169404 0.564029 4.968424 0
M  V30 33 C -7.012085 1.980642 4.583693 0
M  V30 34 C -6.171378 2.686779 3.756761 0
M  V30 35 C -6.250168 4.039533 3.554122 0
M  V30 36 C -7.245266 4.757507 4.224473 0
M  V30 37 C -8.089238 4.056568 5.052833 0
M  V30 38 N -7.978442 2.721789 5.226704 0
M  V30 39 C -4.428665 -1.292863 3.576394 0
M  V30 40 C -3.069820 -1.580122 3.411876 0
M  V30 41 H 0.100912 -4.460337 4.605021 0
M  V30 42 H 1.741112 -4.964333 5.079894 0
M  V30 43 H 1.164885 -3.396911 5.640779 0
M  V30 44 H 3.555315 -4.734708 3.651448 0
M  V30 45 H 4.555844 -3.706328 1.580295 0
M  V30 46 H 3.955373 -0.974319 0.434301 0
M  V30 47 H 4.938050 0.010741 -1.042838 0
M  V30 48 H 5.267455 0.929681 -5.126150 0
M  V30 49 H 2.446542 -2.809148 -5.815520 0
M  V30 50 H 3.246835 -2.527697 -7.448713 0
M  V30 51 H 0.843330 -1.055101 -6.229367 0
M  V30 52 H 0.882594 -2.208480 -7.597157 0
M  V30 53 H 3.170332 0.721991 -8.823032 0
M  V30 54 H 3.518242 -1.037160 -8.949869 0
M  V30 55 H 3.983720 0.954325 -6.698862 0
M  V30 56 H 5.007025 -0.347725 -7.352951 0
M  V30 57 H 2.710155 -2.334786 -3.844197 0
M  V30 58 H 1.126544 -1.195587 1.181444 0
M  V30 59 H -0.722950 -2.706560 2.671642 0
M  V30 60 H -1.913985 0.840490 5.523691 0
M  V30 61 H -4.390541 1.208036 5.694154 0
M  V30 62 H -7.139224 0.510339 6.081912 0
M  V30 63 H -8.194803 0.273421 4.594085 0
M  V30 64 H -5.460909 2.020020 3.300851 0
M  V30 65 H -5.522461 4.451232 2.879236 0
M  V30 66 H -7.278989 5.842928 4.034109 0
M  V30 67 H -8.822682 4.688265 5.524917 0
M  V30 68 H -5.029200 -1.984189 2.960174 0
M  V30 69 H -2.694427 -2.365177 2.769422 0
M  V30 END ATOM
M  V30 BEGIN BOND
M  V30 1 1 1 2
M  V30 2 2 2 3
M  V30 3 1 3 4
M  V30 4 2 4 5
M  V30 5 1 5 6
M  V30 6 1 6 7
M  V30 7 2 7 8
M  V30 8 1 7 9
M  V30 9 2 9 10
M  V30 10 1 10 11
M  V30 11 1 11 12
M  V30 12 2 11 13
M  V30 13 1 13 14
M  V30 14 1 14 15
M  V30 15 1 15 16
M  V30 16 1 16 17
M  V30 17 1 17 18
M  V30 18 1 18 19
M  V30 19 1 19 20
M  V30 20 2 14 21
M  V30 21 1 5 22
M  V30 22 2 22 23
M  V30 23 1 23 24
M  V30 24 1 24 25
M  V30 25 2 25 26
M  V30 26 1 25 27
M  V30 27 2 27 28
M  V30 28 1 28 29
M  V30 29 2 29 30
M  V30 30 1 30 31
M  V30 31 1 31 32
M  V30 32 1 32 33
M  V30 33 2 33 34
M  V30 34 1 34 35
M  V30 35 2 35 36
M  V30 36 1 36 37
M  V30 37 2 37 38
M  V30 38 1 30 39
M  V30 39 2 39 40
M  V30 40 1 23 2
M  V30 41 1 40 27
M  V30 42 1 21 9
M  V30 43 1 38 33
M  V30 44 1 20 15
M  V30 45 1 1 41
M  V30 46 1 1 42
M  V30 47 1 1 43
M  V30 48 1 3 44
M  V30 49 1 4 45
M  V30 50 1 6 46
M  V30 51 1 10 47
M  V30 52 1 13 48
M  V30 53 1 16 49
M  V30 54 1 16 50
M  V30 55 1 17 51
M  V30 56 1 17 52
M  V30 57 1 19 53
M  V30 58 1 19 54
M  V30 59 1 20 55
M  V30 60 1 20 56
M  V30 61 1 21 57
M  V30 62 1 22 58
M  V30 63 1 24 59
M  V30 64 1 28 60
M  V30 65 1 29 61
M  V30 66 1 32 62
M  V30 67 1 32 63
M  V30 68 1 34 64
M  V30 69 1 35 65
M  V30 70 1 36 66
M  V30 71 1 37 67
M  V30 72 1 39 68
M  V30 73 1 40 69
M  V30 END BOND
M  V30 END CTAB
M  END
>  <Dataset>  (643) 
ChEMBL_Kinases

>  <Ligand_Instance>  (643) 
nan

>  <PDB_ID>  (643) 
nan

>  <Standardized_SMILES>  (643) 
Cc1ccc(NC(=O)c2cc(F)cc(N3CCOCC3)c2)cc1NC(=O)c1ccc(OCc2ccccn2)cc1

>  <Name>  (643) 
nan

>  <Pocket>  (643) 
nan

>  <ATP_Site>  (643) 
nan

>  <Peripheral>  (643) 
nan

>  <Num_H_Atoms_ProtBoundConf>  (643) 
nan

>  <Num_Resolved_Atoms>  (643) 
nan

>  <Num_Not_Resolved_Atoms>  (643) 
nan

$$$$
CHEMBL186542
     RDKit          3D

  0  0  0  0  0  0  0  0  0  0999 V3000
M  V30 BEGIN CTAB
M  V30 COUNTS 63 65 0 0 0
M  V30 BEGIN ATOM
M  V30 1 C 4.978715 -0.755061 6.261859 0
M  V30 2 O 4.119291 -1.849698 6.313425 0
M  V30 3 C 3.289527 -2.291891 5.292395 0
M  V30 4 C 3.220866 -1.669858 4.059421 0
M  V30 5 C 2.363752 -2.187889 3.110960 0
M  V30 6 C 2.323447 -1.501520 1.824309 0
M  V30 7 O 3.047835 -0.500496 1.645576 0
M  V30 8 N 1.467988 -1.981680 0.808753 0
M  V30 9 C 1.196136 -1.559350 -0.521057 0
M  V30 10 C 0.206684 -0.664256 -0.788876 0
M  V30 11 C -0.032517 -0.272658 -2.095304 0
M  V30 12 N -1.043813 0.655826 -2.470259 0
M  V30 13 C -1.020092 2.050721 -2.602900 0
M  V30 14 O 0.032200 2.658514 -2.369911 0
M  V30 15 C -2.215421 2.775689 -3.009012 0
M  V30 16 C -2.075458 4.151716 -3.112236 0
M  V30 17 C -3.168721 4.913288 -3.493595 0
M  V30 18 C -4.353650 4.272292 -3.755601 0
M  V30 19 C -4.532302 2.909709 -3.664373 0
M  V30 20 N -5.748336 2.223796 -3.928155 0
M  V30 21 C -5.795240 0.761600 -3.791681 0
M  V30 22 C -6.965294 2.899317 -4.329348 0
M  V30 23 C -3.418505 2.193977 -3.282086 0
M  V30 24 C 0.720319 -0.777193 -3.141561 0
M  V30 25 C 1.737028 -1.690714 -2.910455 0
M  V30 26 C 1.950790 -2.064071 -1.577272 0
M  V30 27 C 3.019839 -3.038113 -1.226204 0
M  V30 28 C 1.618931 -3.295028 3.432259 0
M  V30 29 C 1.678163 -3.925028 4.658511 0
M  V30 30 O 0.905323 -5.049065 4.948282 0
M  V30 31 C 0.048809 -5.506184 3.892168 0
M  V30 32 C 2.530076 -3.421818 5.621846 0
M  V30 33 O 2.618774 -4.027907 6.870190 0
M  V30 34 C 1.788995 -3.647579 7.956123 0
M  V30 35 H 5.829721 -0.908988 5.573726 0
M  V30 36 H 4.402060 0.122317 5.904131 0
M  V30 37 H 5.314507 -0.533296 7.301675 0
M  V30 38 H 3.837030 -0.803969 3.882393 0
M  V30 39 H 0.835838 -2.807576 0.884905 0
M  V30 40 H -0.410249 -0.240861 -0.003086 0
M  V30 41 H -1.880327 0.057670 -2.643543 0
M  V30 42 H -1.154293 4.664041 -2.909951 0
M  V30 43 H -3.050203 5.983023 -3.571333 0
M  V30 44 H -5.190980 4.879354 -4.050553 0
M  V30 45 H -5.454400 0.447559 -2.768496 0
M  V30 46 H -5.090829 0.296183 -4.520465 0
M  V30 47 H -6.807771 0.380998 -4.011855 0
M  V30 48 H -6.988689 3.938701 -3.974273 0
M  V30 49 H -7.026549 2.943693 -5.455195 0
M  V30 50 H -7.871269 2.329538 -4.022866 0
M  V30 51 H -3.521041 1.121473 -3.199852 0
M  V30 52 H 0.578660 -0.507676 -4.178770 0
M  V30 53 H 2.365702 -2.125243 -3.689954 0
M  V30 54 H 3.551225 -2.774755 -0.292142 0
M  V30 55 H 3.772651 -3.098373 -2.061964 0
M  V30 56 H 2.657508 -4.065156 -1.096658 0
M  V30 57 H 0.948539 -3.705034 2.698243 0
M  V30 58 H -0.634300 -4.679316 3.549614 0
M  V30 59 H 0.695222 -5.733343 3.039606 0
M  V30 60 H -0.624530 -6.313558 4.207311 0
M  V30 61 H 2.032313 -4.302848 8.816081 0
M  V30 62 H 0.728067 -3.677545 7.694361 0
M  V30 63 H 2.006781 -2.608965 8.293011 0
M  V30 END ATOM
M  V30 BEGIN BOND
M  V30 1 1 1 2
M  V30 2 1 2 3
M  V30 3 2 3 4
M  V30 4 1 4 5
M  V30 5 1 5 6
M  V30 6 2 6 7
M  V30 7 1 6 8
M  V30 8 1 8 9
M  V30 9 2 9 10
M  V30 10 1 10 11
M  V30 11 1 11 12
M  V30 12 1 12 13
M  V30 13 2 13 14
M  V30 14 1 13 15
M  V30 15 2 15 16
M  V30 16 1 16 17
M  V30 17 2 17 18
M  V30 18 1 18 19
M  V30 19 1 19 20
M  V30 20 1 20 21
M  V30 21 1 20 22
M  V30 22 2 19 23
M  V30 23 2 11 24
M  V30 24 1 24 25
M  V30 25 2 25 26
M  V30 26 1 26 27
M  V30 27 2 5 28
M  V30 28 1 28 29
M  V30 29 1 29 30
M  V30 30 1 30 31
M  V30 31 2 29 32
M  V30 32 1 32 33
M  V30 33 1 33 34
M  V30 34 1 32 3
M  V30 35 1 26 9
M  V30 36 1 23 15
M  V30 37 1 1 35
M  V30 38 1 1 36
M  V30 39 1 1 37
M  V30 40 1 4 38
M  V30 41 1 8 39
M  V30 42 1 10 40
M  V30 43 1 12 41
M  V30 44 1 16 42
M  V30 45 1 17 43
M  V30 46 1 18 44
M  V30 47 1 21 45
M  V30 48 1 21 46
M  V30 49 1 21 47
M  V30 50 1 22 48
M  V30 51 1 22 49
M  V30 52 1 22 50
M  V30 53 1 23 51
M  V30 54 1 24 52
M  V30 55 1 25 53
M  V30 56 1 27 54
M  V30 57 1 27 55
M  V30 58 1 27 56
M  V30 59 1 28 57
M  V30 60 1 31 58
M  V30 61 1 31 59
M  V30 62 1 31 60
M  V30 63 1 34 61
M  V30 64 1 34 62
M  V30 65 1 34 63
M  V30 END BOND
M  V30 END CTAB
M  END
>  <Dataset>  (644) 
ChEMBL_Kinases

>  <Ligand_Instance>  (644) 
nan

>  <PDB_ID>  (644) 
nan

>  <Standardized_SMILES>  (644) 
COc1cc(C(=O)Nc2cc(NC(=O)c3cccc(N(C)C)c3)ccc2C)cc(OC)c1OC

>  <Name>  (644) 
nan

>  <Pocket>  (644) 
nan

>  <ATP_Site>  (644) 
nan

>  <Peripheral>  (644) 
nan

>  <Num_H_Atoms_ProtBoundConf>  (644) 
nan

>  <Num_Resolved_Atoms>  (644) 
nan

>  <Num_Not_Resolved_Atoms>  (644) 
nan

$$$$
CHEMBL186580
     RDKit          3D

  0  0  0  0  0  0  0  0  0  0999 V3000
M  V30 BEGIN CTAB
M  V30 COUNTS 50 53 0 0 0
M  V30 BEGIN ATOM
M  V30 1 C -0.498410 -5.442814 2.837308 0
M  V30 2 O -0.474810 -4.918131 1.527729 0
M  V30 3 C 0.471874 -3.982343 1.117905 0
M  V30 4 C 1.450726 -3.496520 1.955998 0
M  V30 5 C 2.390276 -2.557750 1.516201 0
M  V30 6 N 3.298036 -2.136337 2.419668 0
M  V30 7 C 4.189915 -1.211670 1.958396 0
M  V30 8 N 4.213278 -0.715841 0.698941 0
M  V30 9 C 3.290345 -1.147170 -0.211379 0
M  V30 10 N 3.089369 -0.789574 -1.572320 0
M  V30 11 C 1.964043 0.058699 -1.792511 0
M  V30 12 C 1.161188 0.487878 -0.750430 0
M  V30 13 C 0.043915 1.284555 -0.852935 0
M  V30 14 N -0.719693 1.667742 0.283850 0
M  V30 15 C -0.726671 2.761105 1.190371 0
M  V30 16 O 0.155593 3.613132 0.946128 0
M  V30 17 C -1.755924 2.683689 2.225266 0
M  V30 18 C -2.611412 1.633890 2.483045 0
M  V30 19 C -3.522479 1.792442 3.497751 0
M  V30 20 C -3.607896 2.957518 4.259948 0
M  V30 21 C -2.729272 4.010255 3.981627 0
M  V30 22 C -1.813412 3.852055 2.962079 0
M  V30 23 C -0.301320 1.692465 -2.145846 0
M  V30 24 F -1.393368 2.478897 -2.325093 0
M  V30 25 C 0.484029 1.279195 -3.213962 0
M  V30 26 C 1.587872 0.481182 -3.026886 0
M  V30 27 F 2.358586 0.076756 -4.068040 0
M  V30 28 C 2.358235 -2.087567 0.203347 0
M  V30 29 C 1.350902 -2.616841 -0.580577 0
M  V30 30 C 0.412630 -3.532454 -0.194206 0
M  V30 31 O -0.562568 -4.018101 -1.017509 0
M  V30 32 C -0.815096 -3.711904 -2.346969 0
M  V30 33 H -0.865556 -4.700309 3.554674 0
M  V30 34 H -1.184133 -6.329394 2.838488 0
M  V30 35 H 0.526706 -5.806111 3.069242 0
M  V30 36 H 1.468282 -3.874291 2.984260 0
M  V30 37 H 4.944273 -0.825824 2.626097 0
M  V30 38 H 3.638795 -1.057643 -2.421168 0
M  V30 39 H 1.409872 0.185158 0.274719 0
M  V30 40 H -1.336855 0.804126 0.232239 0
M  V30 41 H -2.495904 0.761361 1.869595 0
M  V30 42 H -4.156664 0.898126 3.626605 0
M  V30 43 H -4.395573 2.850786 4.993164 0
M  V30 44 H -2.893177 4.861184 4.638980 0
M  V30 45 H -1.177814 4.737374 2.835957 0
M  V30 46 H 0.210614 1.600500 -4.223248 0
M  V30 47 H 1.296582 -2.284984 -1.588444 0
M  V30 48 H -0.565809 -4.575205 -2.997812 0
M  V30 49 H -1.931496 -3.551936 -2.429181 0
M  V30 50 H -0.329105 -2.780793 -2.681800 0
M  V30 END ATOM
M  V30 BEGIN BOND
M  V30 1 1 1 2
M  V30 2 1 2 3
M  V30 3 2 3 4
M  V30 4 1 4 5
M  V30 5 2 5 6
M  V30 6 1 6 7
M  V30 7 2 7 8
M  V30 8 1 8 9
M  V30 9 1 9 10
M  V30 10 1 10 11
M  V30 11 2 11 12
M  V30 12 1 12 13
M  V30 13 1 13 14
M  V30 14 1 14 15
M  V30 15 2 15 16
M  V30 16 1 15 17
M  V30 17 2 17 18
M  V30 18 1 18 19
M  V30 19 2 19 20
M  V30 20 1 20 21
M  V30 21 2 21 22
M  V30 22 2 13 23
M  V30 23 1 23 24
M  V30 24 1 23 25
M  V30 25 2 25 26
M  V30 26 1 26 27
M  V30 27 2 9 28
M  V30 28 1 28 29
M  V30 29 2 29 30
M  V30 30 1 30 31
M  V30 31 1 31 32
M  V30 32 1 30 3
M  V30 33 1 28 5
M  V30 34 1 26 11
M  V30 35 1 22 17
M  V30 36 1 1 33
M  V30 37 1 1 34
M  V30 38 1 1 35
M  V30 39 1 4 36
M  V30 40 1 7 37
M  V30 41 1 10 38
M  V30 42 1 12 39
M  V30 43 1 14 40
M  V30 44 1 18 41
M  V30 45 1 19 42
M  V30 46 1 20 43
M  V30 47 1 21 44
M  V30 48 1 22 45
M  V30 49 1 25 46
M  V30 50 1 29 47
M  V30 51 1 32 48
M  V30 52 1 32 49
M  V30 53 1 32 50
M  V30 END BOND
M  V30 END CTAB
M  END
>  <Dataset>  (645) 
ChEMBL_Kinases

>  <Ligand_Instance>  (645) 
nan

>  <PDB_ID>  (645) 
nan

>  <Standardized_SMILES>  (645) 
COc1cc2ncnc(Nc3cc(NC(=O)c4ccccc4)c(F)cc3F)c2cc1OC

>  <Name>  (645) 
nan

>  <Pocket>  (645) 
nan

>  <ATP_Site>  (645) 
nan

>  <Peripheral>  (645) 
nan

>  <Num_H_Atoms_ProtBoundConf>  (645) 
nan

>  <Num_Resolved_Atoms>  (645) 
nan

>  <Num_Not_Resolved_Atoms>  (645) 
nan

$$$$
CHEMBL186606
     RDKit          3D

  0  0  0  0  0  0  0  0  0  0999 V3000
M  V30 BEGIN CTAB
M  V30 COUNTS 50 55 0 0 0
M  V30 BEGIN ATOM
M  V30 1 C 7.879502 -0.663065 -3.139207 0
M  V30 2 C 7.457451 -0.853312 -1.852462 0
M  V30 3 C 6.158220 -0.581571 -1.461873 0
M  V30 4 C 5.232655 -0.106659 -2.354302 0
M  V30 5 C 3.848100 0.208037 -2.014067 0
M  V30 6 C 3.435534 0.022494 -0.691167 0
M  V30 7 C 2.102126 0.343054 -0.400159 0
M  V30 8 C 1.260362 0.813687 -1.382506 0
M  V30 9 C -0.060464 1.209951 -1.422139 0
M  V30 10 C -0.996968 1.241312 -0.310455 0
M  V30 11 C -2.285554 1.707198 -0.473626 0
M  V30 12 C -3.251951 1.798065 0.504905 0
M  V30 13 N -2.849824 1.376397 1.731743 0
M  V30 14 C -1.601884 0.912829 1.940541 0
M  V30 15 N -1.381133 0.538738 3.290643 0
M  V30 16 C -2.139701 -0.555379 3.783168 0
M  V30 17 C -2.045032 -1.033463 5.096295 0
M  V30 18 C -2.793949 -2.091517 5.586528 0
M  V30 19 C -3.692753 -2.729412 4.752560 0
M  V30 20 C -3.829549 -2.304145 3.451060 0
M  V30 21 C -3.055632 -1.249065 3.031260 0
M  V30 22 O -4.729429 -2.935776 2.601429 0
M  V30 23 C -5.787948 -3.744058 3.105856 0
M  V30 24 C -5.397492 -4.473925 4.350368 0
M  V30 25 O -4.477566 -3.793279 5.171374 0
M  V30 26 N -0.688366 0.847318 0.928382 0
M  V30 27 C -0.363582 1.595139 -2.709626 0
M  V30 28 N 0.770225 1.430296 -3.432621 0
M  V30 29 N 1.731420 0.963592 -2.629163 0
M  V30 30 N 3.001739 0.668334 -2.949195 0
M  V30 31 C 5.656866 0.088919 -3.665505 0
M  V30 32 C 6.968592 -0.184161 -4.065952 0
M  V30 33 H 8.893384 -0.869788 -3.470442 0
M  V30 34 H 8.200342 -1.233825 -1.139338 0
M  V30 35 H 5.906929 -0.754989 -0.446040 0
M  V30 36 H 4.028241 -0.335702 0.110907 0
M  V30 37 H 1.722692 0.223290 0.592072 0
M  V30 38 H -2.565257 2.035466 -1.480970 0
M  V30 39 H -4.229640 2.185151 0.239115 0
M  V30 40 H -0.713396 0.977321 3.987890 0
M  V30 41 H -1.349909 -0.554091 5.771561 0
M  V30 42 H -2.673759 -2.410156 6.606718 0
M  V30 43 H -3.202364 -0.958118 1.998686 0
M  V30 44 H -6.732524 -3.171276 3.191792 0
M  V30 45 H -5.968635 -4.526725 2.313449 0
M  V30 46 H -6.319764 -4.629544 4.961779 0
M  V30 47 H -5.009784 -5.506598 4.148639 0
M  V30 48 H -1.306205 1.961830 -3.108488 0
M  V30 49 H 4.924102 0.466690 -4.376562 0
M  V30 50 H 7.223053 -0.006944 -5.103588 0
M  V30 END ATOM
M  V30 BEGIN BOND
M  V30 1 2 1 2
M  V30 2 1 2 3
M  V30 3 2 3 4
M  V30 4 1 4 5
M  V30 5 1 5 6
M  V30 6 2 6 7
M  V30 7 1 7 8
M  V30 8 2 8 9
M  V30 9 1 9 10
M  V30 10 2 10 11
M  V30 11 1 11 12
M  V30 12 2 12 13
M  V30 13 1 13 14
M  V30 14 1 14 15
M  V30 15 1 15 16
M  V30 16 2 16 17
M  V30 17 1 17 18
M  V30 18 2 18 19
M  V30 19 1 19 20
M  V30 20 2 20 21
M  V30 21 1 20 22
M  V30 22 1 22 23
M  V30 23 1 23 24
M  V30 24 1 24 25
M  V30 25 2 14 26
M  V30 26 1 9 27
M  V30 27 2 27 28
M  V30 28 1 28 29
M  V30 29 1 29 30
M  V30 30 1 4 31
M  V30 31 2 31 32
M  V30 32 1 32 1
M  V30 33 2 30 5
M  V30 34 1 29 8
M  V30 35 1 26 10
M  V30 36 1 21 16
M  V30 37 1 25 19
M  V30 38 1 1 33
M  V30 39 1 2 34
M  V30 40 1 3 35
M  V30 41 1 6 36
M  V30 42 1 7 37
M  V30 43 1 11 38
M  V30 44 1 12 39
M  V30 45 1 15 40
M  V30 46 1 17 41
M  V30 47 1 18 42
M  V30 48 1 21 43
M  V30 49 1 23 44
M  V30 50 1 23 45
M  V30 51 1 24 46
M  V30 52 1 24 47
M  V30 53 1 27 48
M  V30 54 1 31 49
M  V30 55 1 32 50
M  V30 END BOND
M  V30 END CTAB
M  END
>  <Dataset>  (646) 
ChEMBL_Kinases

>  <Ligand_Instance>  (646) 
nan

>  <PDB_ID>  (646) 
nan

>  <Standardized_SMILES>  (646) 
c1ccc(-c2ccc3c(-c4ccnc(Nc5ccc6c(c5)OCCO6)n4)cnn3n2)cc1

>  <Name>  (646) 
nan

>  <Pocket>  (646) 
nan

>  <ATP_Site>  (646) 
nan

>  <Peripheral>  (646) 
nan

>  <Num_H_Atoms_ProtBoundConf>  (646) 
nan

>  <Num_Resolved_Atoms>  (646) 
nan

>  <Num_Not_Resolved_Atoms>  (646) 
nan

$$$$
CHEMBL186981
     RDKit          3D

  0  0  0  0  0  0  0  0  0  0999 V3000
M  V30 BEGIN CTAB
M  V30 COUNTS 36 39 0 0 0
M  V30 BEGIN ATOM
M  V30 1 O -2.588174 -3.492377 2.881597 0
M  V30 2 C -1.530432 -2.803390 2.848342 0
M  V30 3 N -0.816252 -2.254750 3.952499 0
M  V30 4 C 0.296405 -1.571268 3.406172 0
M  V30 5 O 1.075725 -1.003363 4.236054 0
M  V30 6 C 0.287014 -1.688036 1.945396 0
M  V30 7 C 1.339018 -1.117213 1.118743 0
M  V30 8 C 2.196957 -1.590077 0.149100 0
M  V30 9 N 2.965945 -0.602260 -0.339834 0
M  V30 10 C 2.616770 0.535145 0.309227 0
M  V30 11 C 3.141099 1.824595 0.130893 0
M  V30 12 C 2.538629 2.747982 0.959920 0
M  V30 13 C 1.543546 2.592526 1.891746 0
M  V30 14 C 1.091638 1.279955 1.992703 0
M  V30 15 C 1.610411 0.247922 1.219437 0
M  V30 16 C -0.768419 -2.396121 1.656782 0
M  V30 17 N -1.222594 -2.764503 0.355523 0
M  V30 18 C -1.335756 -1.780944 -0.697237 0
M  V30 19 C -2.385455 -0.862845 -0.580719 0
M  V30 20 C -2.593577 0.105652 -1.511919 0
M  V30 21 C -1.753952 0.210800 -2.623658 0
M  V30 22 C -0.714182 -0.687862 -2.752780 0
M  V30 23 F 0.208634 -0.762056 -3.741850 0
M  V30 24 C -0.536504 -1.644691 -1.799999 0
M  V30 25 H -1.168922 -2.407682 4.931512 0
M  V30 26 H 2.173264 -2.655547 -0.113286 0
M  V30 27 H 3.702415 -0.734475 -1.095992 0
M  V30 28 H 3.922242 2.090309 -0.562622 0
M  V30 29 H 2.921497 3.778267 0.852713 0
M  V30 30 H 1.174853 3.412903 2.463819 0
M  V30 31 H 0.295500 1.095953 2.711602 0
M  V30 32 H -1.476771 -3.771280 0.160355 0
M  V30 33 H -3.113432 -0.836692 0.239533 0
M  V30 34 H -3.357066 0.870661 -1.544846 0
M  V30 35 H -1.773367 0.924053 -3.463320 0
M  V30 36 H 0.246962 -2.416165 -1.790621 0
M  V30 END ATOM
M  V30 BEGIN BOND
M  V30 1 2 1 2
M  V30 2 1 2 3
M  V30 3 1 3 4
M  V30 4 2 4 5
M  V30 5 1 4 6
M  V30 6 1 6 7
M  V30 7 2 7 8
M  V30 8 1 8 9
M  V30 9 1 9 10
M  V30 10 2 10 11
M  V30 11 1 11 12
M  V30 12 2 12 13
M  V30 13 1 13 14
M  V30 14 2 14 15
M  V30 15 2 6 16
M  V30 16 1 16 17
M  V30 17 1 17 18
M  V30 18 2 18 19
M  V30 19 1 19 20
M  V30 20 2 20 21
M  V30 21 1 21 22
M  V30 22 1 22 23
M  V30 23 2 22 24
M  V30 24 1 16 2
M  V30 25 1 24 18
M  V30 26 1 15 7
M  V30 27 1 15 10
M  V30 28 1 3 25
M  V30 29 1 8 26
M  V30 30 1 9 27
M  V30 31 1 11 28
M  V30 32 1 12 29
M  V30 33 1 13 30
M  V30 34 1 14 31
M  V30 35 1 17 32
M  V30 36 1 19 33
M  V30 37 1 20 34
M  V30 38 1 21 35
M  V30 39 1 24 36
M  V30 END BOND
M  V30 END CTAB
M  END
>  <Dataset>  (647) 
ChEMBL_Kinases

>  <Ligand_Instance>  (647) 
nan

>  <PDB_ID>  (647) 
nan

>  <Standardized_SMILES>  (647) 
O=C1NC(=O)C(c2c[nH]c3ccccc23)=C1Nc1cccc(F)c1

>  <Name>  (647) 
nan

>  <Pocket>  (647) 
nan

>  <ATP_Site>  (647) 
nan

>  <Peripheral>  (647) 
nan

>  <Num_H_Atoms_ProtBoundConf>  (647) 
nan

>  <Num_Resolved_Atoms>  (647) 
nan

>  <Num_Not_Resolved_Atoms>  (647) 
nan

$$$$
CHEMBL186747
     RDKit          3D

  0  0  0  0  0  0  0  0  0  0999 V3000
M  V30 BEGIN CTAB
M  V30 COUNTS 53 56 0 0 0
M  V30 BEGIN ATOM
M  V30 1 C -0.154615 -6.801301 2.737143 0
M  V30 2 O 0.161189 -6.215549 1.504153 0
M  V30 3 C 0.826450 -4.963832 1.451377 0
M  V30 4 C 1.113642 -4.458216 2.703371 0
M  V30 5 C 1.769452 -3.230258 2.839369 0
M  V30 6 N 2.080409 -2.711446 4.008211 0
M  V30 7 C 2.729961 -1.530509 4.156601 0
M  V30 8 N 3.048683 -0.900132 3.012045 0
M  V30 9 C 2.747458 -1.399753 1.801867 0
M  V30 10 N 3.175831 -0.605902 0.701514 0
M  V30 11 C 2.286636 0.539224 0.755981 0
M  V30 12 C 2.967577 1.656713 1.228321 0
M  V30 13 C 2.211106 2.837561 1.342151 0
M  V30 14 C 0.890763 2.811452 0.990667 0
M  V30 15 C 0.153068 4.091684 1.138621 0
M  V30 16 C 0.270656 1.672366 0.528002 0
M  V30 17 N -1.108370 1.678714 0.181123 0
M  V30 18 C -1.713755 2.028673 -1.056603 0
M  V30 19 O -0.961758 2.391456 -1.988697 0
M  V30 20 C -3.157604 1.958205 -1.203770 0
M  V30 21 C -3.712499 2.420697 -2.401783 0
M  V30 22 C -5.081092 2.308082 -2.483361 0
M  V30 23 C -5.914629 1.795170 -1.515689 0
M  V30 24 C -5.351257 1.342278 -0.336173 0
M  V30 25 C -3.964254 1.441405 -0.218015 0
M  V30 26 C 0.965685 0.465186 0.391111 0
M  V30 27 C 2.081143 -2.611497 1.651712 0
M  V30 28 C 1.811771 -3.080225 0.391118 0
M  V30 29 C 1.153731 -4.315875 0.280428 0
M  V30 30 O 0.821728 -4.908642 -0.924959 0
M  V30 31 C 1.075908 -4.398395 -2.196081 0
M  V30 32 H 0.716314 -7.193289 3.292052 0
M  V30 33 H -0.832285 -7.670278 2.520442 0
M  V30 34 H -0.780415 -6.089001 3.344470 0
M  V30 35 H 0.871028 -4.937244 3.645937 0
M  V30 36 H 2.890489 -1.279763 5.193273 0
M  V30 37 H 3.793525 -0.435999 -0.127846 0
M  V30 38 H 3.999994 1.703482 1.508928 0
M  V30 39 H 2.688097 3.732578 1.702712 0
M  V30 40 H 0.413936 4.541297 2.141895 0
M  V30 41 H 0.382255 4.835794 0.358037 0
M  V30 42 H -0.944217 3.908223 1.198188 0
M  V30 43 H -1.608164 1.370110 1.025939 0
M  V30 44 H -3.166760 2.844528 -3.232610 0
M  V30 45 H -5.654856 2.626402 -3.348920 0
M  V30 46 H -6.993554 1.708601 -1.590693 0
M  V30 47 H -5.936247 0.921890 0.472030 0
M  V30 48 H -3.577712 1.077101 0.723183 0
M  V30 49 H 0.551362 -0.463159 0.038016 0
M  V30 50 H 2.085624 -2.539063 -0.504246 0
M  V30 51 H 1.704620 -5.160882 -2.741313 0
M  V30 52 H 0.120409 -4.354744 -2.772807 0
M  V30 53 H 1.639609 -3.467899 -2.248819 0
M  V30 END ATOM
M  V30 BEGIN BOND
M  V30 1 1 1 2
M  V30 2 1 2 3
M  V30 3 2 3 4
M  V30 4 1 4 5
M  V30 5 2 5 6
M  V30 6 1 6 7
M  V30 7 2 7 8
M  V30 8 1 8 9
M  V30 9 1 9 10
M  V30 10 1 10 11
M  V30 11 2 11 12
M  V30 12 1 12 13
M  V30 13 2 13 14
M  V30 14 1 14 15
M  V30 15 1 14 16
M  V30 16 1 16 17
M  V30 17 1 17 18
M  V30 18 2 18 19
M  V30 19 1 18 20
M  V30 20 2 20 21
M  V30 21 1 21 22
M  V30 22 2 22 23
M  V30 23 1 23 24
M  V30 24 2 24 25
M  V30 25 2 16 26
M  V30 26 2 9 27
M  V30 27 1 27 28
M  V30 28 2 28 29
M  V30 29 1 29 30
M  V30 30 1 30 31
M  V30 31 1 29 3
M  V30 32 1 27 5
M  V30 33 1 26 11
M  V30 34 1 25 20
M  V30 35 1 1 32
M  V30 36 1 1 33
M  V30 37 1 1 34
M  V30 38 1 4 35
M  V30 39 1 7 36
M  V30 40 1 10 37
M  V30 41 1 12 38
M  V30 42 1 13 39
M  V30 43 1 15 40
M  V30 44 1 15 41
M  V30 45 1 15 42
M  V30 46 1 17 43
M  V30 47 1 21 44
M  V30 48 1 22 45
M  V30 49 1 23 46
M  V30 50 1 24 47
M  V30 51 1 25 48
M  V30 52 1 26 49
M  V30 53 1 28 50
M  V30 54 1 31 51
M  V30 55 1 31 52
M  V30 56 1 31 53
M  V30 END BOND
M  V30 END CTAB
M  END
>  <Dataset>  (648) 
ChEMBL_Kinases

>  <Ligand_Instance>  (648) 
nan

>  <PDB_ID>  (648) 
nan

>  <Standardized_SMILES>  (648) 
COc1cc2ncnc(Nc3ccc(C)c(NC(=O)c4ccccc4)c3)c2cc1OC

>  <Name>  (648) 
nan

>  <Pocket>  (648) 
nan

>  <ATP_Site>  (648) 
nan

>  <Peripheral>  (648) 
nan

>  <Num_H_Atoms_ProtBoundConf>  (648) 
nan

>  <Num_Resolved_Atoms>  (648) 
nan

>  <Num_Not_Resolved_Atoms>  (648) 
nan

$$$$
CHEMBL186791
     RDKit          3D

  0  0  0  0  0  0  0  0  0  0999 V3000
M  V30 BEGIN CTAB
M  V30 COUNTS 69 73 0 0 0
M  V30 BEGIN ATOM
M  V30 1 C -2.005818 -3.099846 2.821807 0
M  V30 2 C -0.832018 -3.219593 1.917359 0
M  V30 3 C -0.793574 -4.350414 1.095257 0
M  V30 4 C 0.339957 -4.385877 0.274573 0
M  V30 5 C 1.309150 -3.407769 0.275299 0
M  V30 6 N 2.338087 -3.726081 -0.691271 0
M  V30 7 C 1.744252 -3.161979 -1.877930 0
M  V30 8 O 0.611168 -2.649982 -1.553604 0
M  V30 9 C 2.307502 -3.158040 -3.250320 0
M  V30 10 C 3.582705 -3.475100 -3.678174 0
M  V30 11 C 3.827775 -3.433730 -5.028289 0
M  V30 12 C 2.867186 -3.095072 -5.949647 0
M  V30 13 C 1.586441 -2.774446 -5.538027 0
M  V30 14 N 0.533827 -2.439216 -6.453455 0
M  V30 15 C -0.811724 -2.029124 -6.031913 0
M  V30 16 C -1.763261 -2.207627 -7.211891 0
M  V30 17 O -1.564802 -3.461451 -7.807574 0
M  V30 18 C -0.329982 -3.545831 -8.429681 0
M  V30 19 C 0.644695 -2.491090 -7.893567 0
M  V30 20 C 1.344931 -2.814348 -4.206493 0
M  V30 21 C 1.247878 -2.324469 1.079211 0
M  V30 22 C 0.146483 -2.260398 1.900726 0
M  V30 23 N 0.028261 -1.139204 2.805395 0
M  V30 24 C 0.405087 -1.110525 4.155884 0
M  V30 25 O 0.906618 -2.046099 4.811909 0
M  V30 26 C 0.198771 0.143142 4.915875 0
M  V30 27 C 0.260822 0.122930 6.305475 0
M  V30 28 C 0.059174 1.318314 6.977450 0
M  V30 29 C -0.200410 2.533370 6.323855 0
M  V30 30 O -0.359215 3.528682 7.207910 0
M  V30 31 C -0.619387 4.864836 7.143478 0
M  V30 32 C -1.901261 5.258962 6.471039 0
M  V30 33 C -3.024930 5.228274 7.300637 0
M  V30 34 C -4.186156 5.604958 6.636135 0
M  V30 35 N -4.326779 5.970049 5.362382 0
M  V30 36 C -3.231173 5.995925 4.558342 0
M  V30 37 C -2.021241 5.633104 5.144882 0
M  V30 38 C -0.239068 2.450368 4.961635 0
M  V30 39 C -0.054330 1.319202 4.198253 0
M  V30 40 H -1.713269 -3.616113 3.779403 0
M  V30 41 H -2.225889 -2.058059 3.101403 0
M  V30 42 H -2.894675 -3.628334 2.401156 0
M  V30 43 H -1.557164 -5.105759 1.096300 0
M  V30 44 H 0.329753 -5.291240 -0.354770 0
M  V30 45 H 3.271121 -4.171312 -0.829639 0
M  V30 46 H 4.240705 -3.719522 -2.861994 0
M  V30 47 H 4.840493 -3.688473 -5.313024 0
M  V30 48 H 3.122658 -3.081200 -6.986229 0
M  V30 49 H -1.182606 -2.667551 -5.182552 0
M  V30 50 H -0.795864 -0.953426 -5.778730 0
M  V30 51 H -2.810215 -2.227983 -6.844641 0
M  V30 52 H -1.702612 -1.417835 -7.962849 0
M  V30 53 H -0.412245 -3.481912 -9.541127 0
M  V30 54 H 0.109176 -4.523668 -8.161207 0
M  V30 55 H 0.293915 -1.506392 -8.306390 0
M  V30 56 H 1.658509 -2.663094 -8.276899 0
M  V30 57 H 0.330328 -2.552393 -3.903990 0
M  V30 58 H 2.050921 -1.608250 1.020572 0
M  V30 59 H -0.385012 -0.369486 2.245174 0
M  V30 60 H 0.466957 -0.822342 6.789928 0
M  V30 61 H 0.126961 1.177823 8.063727 0
M  V30 62 H -0.682807 5.259817 8.204731 0
M  V30 63 H 0.163036 5.492142 6.677875 0
M  V30 64 H -3.110860 4.965960 8.337787 0
M  V30 65 H -5.158706 5.631399 7.159646 0
M  V30 66 H -3.148455 6.261739 3.520855 0
M  V30 67 H -1.099074 5.638134 4.575853 0
M  V30 68 H -0.433007 3.365412 4.458565 0
M  V30 69 H -0.108877 1.391338 3.132459 0
M  V30 END ATOM
M  V30 BEGIN BOND
M  V30 1 1 1 2
M  V30 2 2 2 3
M  V30 3 1 3 4
M  V30 4 2 4 5
M  V30 5 1 5 6
M  V30 6 1 6 7
M  V30 7 2 7 8
M  V30 8 1 7 9
M  V30 9 2 9 10
M  V30 10 1 10 11
M  V30 11 2 11 12
M  V30 12 1 12 13
M  V30 13 1 13 14
M  V30 14 1 14 15
M  V30 15 1 15 16
M  V30 16 1 16 17
M  V30 17 1 17 18
M  V30 18 1 18 19
M  V30 19 2 13 20
M  V30 20 1 5 21
M  V30 21 2 21 22
M  V30 22 1 22 23
M  V30 23 1 23 24
M  V30 24 2 24 25
M  V30 25 1 24 26
M  V30 26 2 26 27
M  V30 27 1 27 28
M  V30 28 2 28 29
M  V30 29 1 29 30
M  V30 30 1 30 31
M  V30 31 1 31 32
M  V30 32 2 32 33
M  V30 33 1 33 34
M  V30 34 2 34 35
M  V30 35 1 35 36
M  V30 36 2 36 37
M  V30 37 1 29 38
M  V30 38 2 38 39
M  V30 39 1 22 2
M  V30 40 1 39 26
M  V30 41 1 20 9
M  V30 42 1 37 32
M  V30 43 1 19 14
M  V30 44 1 1 40
M  V30 45 1 1 41
M  V30 46 1 1 42
M  V30 47 1 3 43
M  V30 48 1 4 44
M  V30 49 1 6 45
M  V30 50 1 10 46
M  V30 51 1 11 47
M  V30 52 1 12 48
M  V30 53 1 15 49
M  V30 54 1 15 50
M  V30 55 1 16 51
M  V30 56 1 16 52
M  V30 57 1 18 53
M  V30 58 1 18 54
M  V30 59 1 19 55
M  V30 60 1 19 56
M  V30 61 1 20 57
M  V30 62 1 21 58
M  V30 63 1 23 59
M  V30 64 1 27 60
M  V30 65 1 28 61
M  V30 66 1 31 62
M  V30 67 1 31 63
M  V30 68 1 33 64
M  V30 69 1 34 65
M  V30 70 1 36 66
M  V30 71 1 37 67
M  V30 72 1 38 68
M  V30 73 1 39 69
M  V30 END BOND
M  V30 END CTAB
M  END
>  <Dataset>  (649) 
ChEMBL_Kinases

>  <Ligand_Instance>  (649) 
nan

>  <PDB_ID>  (649) 
nan

>  <Standardized_SMILES>  (649) 
Cc1ccc(NC(=O)c2cccc(N3CCOCC3)c2)cc1NC(=O)c1ccc(OCc2ccncc2)cc1

>  <Name>  (649) 
nan

>  <Pocket>  (649) 
nan

>  <ATP_Site>  (649) 
nan

>  <Peripheral>  (649) 
nan

>  <Num_H_Atoms_ProtBoundConf>  (649) 
nan

>  <Num_Resolved_Atoms>  (649) 
nan

>  <Num_Not_Resolved_Atoms>  (649) 
nan

$$$$
CHEMBL186802
     RDKit          3D

  0  0  0  0  0  0  0  0  0  0999 V3000
M  V30 BEGIN CTAB
M  V30 COUNTS 50 53 0 0 0
M  V30 BEGIN ATOM
M  V30 1 C 0.630139 -6.432995 1.938741 0
M  V30 2 O 0.678813 -5.499714 0.898111 0
M  V30 3 C 1.338732 -4.300798 0.961955 0
M  V30 4 C 2.023176 -3.931462 2.113152 0
M  V30 5 C 2.702447 -2.742790 2.233599 0
M  V30 6 N 3.364450 -2.349178 3.318481 0
M  V30 7 C 3.995086 -1.143180 3.318770 0
M  V30 8 N 3.971424 -0.322956 2.243284 0
M  V30 9 C 3.296435 -0.714400 1.122953 0
M  V30 10 N 3.371515 0.254374 0.099793 0
M  V30 11 C 2.474785 1.260912 -0.345933 0
M  V30 12 C 2.915595 2.246429 -1.204556 0
M  V30 13 C 2.025447 3.206193 -1.637757 0
M  V30 14 C 0.716577 3.171631 -1.212801 0
M  V30 15 C 0.216430 2.213759 -0.356972 0
M  V30 16 N -1.145753 2.261210 0.016873 0
M  V30 17 C -1.888259 1.380947 0.824278 0
M  V30 18 O -1.307333 0.388984 1.311208 0
M  V30 19 C -3.300110 1.525735 1.147381 0
M  V30 20 C -3.909263 0.537545 1.892278 0
M  V30 21 C -5.264656 0.649745 2.217844 0
M  V30 22 C -6.048634 1.716741 1.828492 0
M  V30 23 C -5.417227 2.689564 1.086314 0
M  V30 24 C -4.085226 2.595080 0.757402 0
M  V30 25 C 1.151779 1.302796 0.026889 0
M  V30 26 C 2.649490 -1.941259 1.110321 0
M  V30 27 C 1.996404 -2.227137 -0.070406 0
M  V30 28 C 1.326304 -3.447623 -0.127475 0
M  V30 29 O 0.627122 -3.862884 -1.250442 0
M  V30 30 C 0.490897 -3.150224 -2.445311 0
M  V30 31 H 0.470491 -7.461225 1.498444 0
M  V30 32 H -0.221057 -6.185935 2.611567 0
M  V30 33 H 1.533740 -6.512218 2.553775 0
M  V30 34 H 2.049030 -4.592715 2.993905 0
M  V30 35 H 4.504434 -0.905410 4.232356 0
M  V30 36 H 4.282710 0.143822 -0.367299 0
M  V30 37 H 3.938729 2.290396 -1.550418 0
M  V30 38 H 2.340467 3.989581 -2.310003 0
M  V30 39 H 0.054163 3.964787 -1.593059 0
M  V30 40 H -1.727770 3.057270 -0.339420 0
M  V30 41 H -3.422208 -0.352076 2.264693 0
M  V30 42 H -5.770975 -0.118647 2.806803 0
M  V30 43 H -7.093955 1.758319 2.103465 0
M  V30 44 H -6.046125 3.527253 0.783272 0
M  V30 45 H -3.653171 3.384835 0.177455 0
M  V30 46 H 0.871054 0.513540 0.695690 0
M  V30 47 H 1.993067 -1.564029 -0.903798 0
M  V30 48 H -0.570623 -3.337857 -2.787904 0
M  V30 49 H 1.174337 -3.497836 -3.242928 0
M  V30 50 H 0.598595 -2.078336 -2.273797 0
M  V30 END ATOM
M  V30 BEGIN BOND
M  V30 1 1 1 2
M  V30 2 1 2 3
M  V30 3 2 3 4
M  V30 4 1 4 5
M  V30 5 2 5 6
M  V30 6 1 6 7
M  V30 7 2 7 8
M  V30 8 1 8 9
M  V30 9 1 9 10
M  V30 10 1 10 11
M  V30 11 2 11 12
M  V30 12 1 12 13
M  V30 13 2 13 14
M  V30 14 1 14 15
M  V30 15 1 15 16
M  V30 16 1 16 17
M  V30 17 2 17 18
M  V30 18 1 17 19
M  V30 19 2 19 20
M  V30 20 1 20 21
M  V30 21 2 21 22
M  V30 22 1 22 23
M  V30 23 2 23 24
M  V30 24 2 15 25
M  V30 25 2 9 26
M  V30 26 1 26 27
M  V30 27 2 27 28
M  V30 28 1 28 29
M  V30 29 1 29 30
M  V30 30 1 28 3
M  V30 31 1 26 5
M  V30 32 1 25 11
M  V30 33 1 24 19
M  V30 34 1 1 31
M  V30 35 1 1 32
M  V30 36 1 1 33
M  V30 37 1 4 34
M  V30 38 1 7 35
M  V30 39 1 10 36
M  V30 40 1 12 37
M  V30 41 1 13 38
M  V30 42 1 14 39
M  V30 43 1 16 40
M  V30 44 1 20 41
M  V30 45 1 21 42
M  V30 46 1 22 43
M  V30 47 1 23 44
M  V30 48 1 24 45
M  V30 49 1 25 46
M  V30 50 1 27 47
M  V30 51 1 30 48
M  V30 52 1 30 49
M  V30 53 1 30 50
M  V30 END BOND
M  V30 END CTAB
M  END
>  <Dataset>  (650) 
ChEMBL_Kinases

>  <Ligand_Instance>  (650) 
nan

>  <PDB_ID>  (650) 
nan

>  <Standardized_SMILES>  (650) 
COc1cc2ncnc(Nc3cccc(NC(=O)c4ccccc4)c3)c2cc1OC

>  <Name>  (650) 
nan

>  <Pocket>  (650) 
nan

>  <ATP_Site>  (650) 
nan

>  <Peripheral>  (650) 
nan

>  <Num_H_Atoms_ProtBoundConf>  (650) 
nan

>  <Num_Resolved_Atoms>  (650) 
nan

>  <Num_Not_Resolved_Atoms>  (650) 
nan

$$$$
CHEMBL186826
     RDKit          3D

  0  0  0  0  0  0  0  0  0  0999 V3000
M  V30 BEGIN CTAB
M  V30 COUNTS 50 55 0 0 0
M  V30 BEGIN ATOM
M  V30 1 Cl 3.200630 -3.263252 4.636884 0
M  V30 2 C 3.292370 -2.091755 3.323673 0
M  V30 3 C 4.226637 -1.091776 3.495256 0
M  V30 4 C 4.361381 -0.133651 2.517046 0
M  V30 5 C 3.589716 -0.150148 1.378041 0
M  V30 6 C 3.588779 0.762743 0.233020 0
M  V30 7 N 4.586898 1.039002 -0.618490 0
M  V30 8 N 4.236835 1.910362 -1.543576 0
M  V30 9 N 4.796187 2.501241 -2.581504 0
M  V30 10 C 4.173382 3.372036 -3.379771 0
M  V30 11 C 2.842955 3.702576 -3.130203 0
M  V30 12 C 2.174982 3.122144 -2.051383 0
M  V30 13 C 2.941051 2.240835 -1.311389 0
M  V30 14 C 2.517368 1.537137 -0.207266 0
M  V30 15 C 1.200267 1.548479 0.456260 0
M  V30 16 C 1.024338 2.302709 1.598818 0
M  V30 17 C -0.233808 2.238661 2.158022 0
M  V30 18 N -1.231021 1.489357 1.627687 0
M  V30 19 C -1.058262 0.763892 0.523806 0
M  V30 20 N -1.873707 -0.140039 -0.249587 0
M  V30 21 C -2.691512 -1.117398 0.407088 0
M  V30 22 C -2.992689 -1.152813 1.745082 0
M  V30 23 C -3.747197 -2.189640 2.270224 0
M  V30 24 C -4.222803 -3.227733 1.451752 0
M  V30 25 C -3.894179 -3.153291 0.096137 0
M  V30 26 C -3.150290 -2.126103 -0.408460 0
M  V30 27 O -4.447246 -4.266397 -0.550780 0
M  V30 28 C -4.475503 -5.526537 0.128870 0
M  V30 29 C -5.450148 -5.356357 1.291690 0
M  V30 30 O -4.979269 -4.243155 2.049386 0
M  V30 31 N 0.183323 0.829273 -0.026029 0
M  V30 32 C 2.647791 -1.179069 1.231525 0
M  V30 33 C 2.493223 -2.151927 2.196778 0
M  V30 34 H 4.908242 -0.934351 4.330670 0
M  V30 35 H 5.038102 0.716638 2.483049 0
M  V30 36 H 4.614462 3.864439 -4.233108 0
M  V30 37 H 2.210842 4.400233 -3.704911 0
M  V30 38 H 1.139069 3.340333 -1.805549 0
M  V30 39 H 1.830179 2.890760 1.996678 0
M  V30 40 H -0.480493 2.789054 3.047976 0
M  V30 41 H -1.866534 -0.061766 -1.293051 0
M  V30 42 H -2.605889 -0.334322 2.345655 0
M  V30 43 H -3.967736 -2.184573 3.339771 0
M  V30 44 H -2.965066 -2.189287 -1.484802 0
M  V30 45 H -3.491083 -5.754702 0.570749 0
M  V30 46 H -4.857895 -6.316294 -0.532863 0
M  V30 47 H -6.462536 -5.089960 0.866925 0
M  V30 48 H -5.520651 -6.249854 1.919380 0
M  V30 49 H 1.951387 -1.357032 0.401423 0
M  V30 50 H 1.796643 -2.970159 2.162663 0
M  V30 END ATOM
M  V30 BEGIN BOND
M  V30 1 1 1 2
M  V30 2 2 2 3
M  V30 3 1 3 4
M  V30 4 2 4 5
M  V30 5 1 5 6
M  V30 6 2 6 7
M  V30 7 1 7 8
M  V30 8 1 8 9
M  V30 9 2 9 10
M  V30 10 1 10 11
M  V30 11 2 11 12
M  V30 12 1 12 13
M  V30 13 2 13 14
M  V30 14 1 14 15
M  V30 15 2 15 16
M  V30 16 1 16 17
M  V30 17 2 17 18
M  V30 18 1 18 19
M  V30 19 1 19 20
M  V30 20 1 20 21
M  V30 21 2 21 22
M  V30 22 1 22 23
M  V30 23 2 23 24
M  V30 24 1 24 25
M  V30 25 2 25 26
M  V30 26 1 25 27
M  V30 27 1 27 28
M  V30 28 1 28 29
M  V30 29 1 29 30
M  V30 30 2 19 31
M  V30 31 1 5 32
M  V30 32 2 32 33
M  V30 33 1 33 2
M  V30 34 1 14 6
M  V30 35 1 31 15
M  V30 36 1 13 8
M  V30 37 1 26 21
M  V30 38 1 30 24
M  V30 39 1 3 34
M  V30 40 1 4 35
M  V30 41 1 10 36
M  V30 42 1 11 37
M  V30 43 1 12 38
M  V30 44 1 16 39
M  V30 45 1 17 40
M  V30 46 1 20 41
M  V30 47 1 22 42
M  V30 48 1 23 43
M  V30 49 1 26 44
M  V30 50 1 28 45
M  V30 51 1 28 46
M  V30 52 1 29 47
M  V30 53 1 29 48
M  V30 54 1 32 49
M  V30 55 1 33 50
M  V30 END BOND
M  V30 END CTAB
M  END
>  <Dataset>  (651) 
ChEMBL_Kinases

>  <Ligand_Instance>  (651) 
nan

>  <PDB_ID>  (651) 
nan

>  <Standardized_SMILES>  (651) 
Clc1ccc(-c2nn3ncccc3c2-c2ccnc(Nc3ccc4c(c3)OCCO4)n2)cc1

>  <Name>  (651) 
nan

>  <Pocket>  (651) 
nan

>  <ATP_Site>  (651) 
nan

>  <Peripheral>  (651) 
nan

>  <Num_H_Atoms_ProtBoundConf>  (651) 
nan

>  <Num_Resolved_Atoms>  (651) 
nan

>  <Num_Not_Resolved_Atoms>  (651) 
nan

$$$$
CHEMBL186852
     RDKit          3D

  0  0  0  0  0  0  0  0  0  0999 V3000
M  V30 BEGIN CTAB
M  V30 COUNTS 74 78 0 0 0
M  V30 BEGIN ATOM
M  V30 1 C 3.047267 1.413658 4.583647 0
M  V30 2 C 2.575459 1.683491 3.187813 0
M  V30 3 C 3.559023 1.626822 2.194575 0
M  V30 4 C 3.056593 1.918400 0.959348 0
M  V30 5 C 1.758199 2.237138 0.644523 0
M  V30 6 N 1.460833 2.498812 -0.707753 0
M  V30 7 C 1.534027 3.460917 -1.719532 0
M  V30 8 O 2.090270 4.517835 -1.318934 0
M  V30 9 C 0.991723 3.109384 -3.013955 0
M  V30 10 C 1.395273 3.547914 -4.253809 0
M  V30 11 C 0.765013 3.183684 -5.433041 0
M  V30 12 N -0.274477 2.370725 -5.308350 0
M  V30 13 C -0.783904 1.865683 -4.182019 0
M  V30 14 N -1.935364 1.011792 -4.146743 0
M  V30 15 C -2.659547 0.668228 -2.946964 0
M  V30 16 C -3.002613 -0.771338 -2.944008 0
M  V30 17 O -2.857606 -1.462597 -4.109850 0
M  V30 18 C -3.227666 -0.740838 -5.239025 0
M  V30 19 C -2.390205 0.484478 -5.434970 0
M  V30 20 C -0.126242 2.252757 -3.034159 0
M  V30 21 C 0.902174 2.254645 1.708083 0
M  V30 22 C 1.245550 1.985075 3.025929 0
M  V30 23 N 0.218103 2.025088 4.002415 0
M  V30 24 C 0.004654 0.786322 4.708919 0
M  V30 25 C -0.635786 -0.259616 4.047459 0
M  V30 26 C -0.920066 -1.518489 4.562129 0
M  V30 27 N -1.561523 -2.550010 3.858259 0
M  V30 28 C -2.053139 -2.658432 2.529103 0
M  V30 29 C -1.055831 -2.621478 1.427982 0
M  V30 30 C -0.028806 -3.708308 1.448676 0
M  V30 31 N -0.556002 -5.047347 1.351769 0
M  V30 32 C -1.131509 -5.309372 0.042979 0
M  V30 33 C 0.037373 -5.774061 -0.804446 0
M  V30 34 C 0.753381 -6.686869 0.194807 0
M  V30 35 C 0.554290 -5.967133 1.484579 0
M  V30 36 N -0.521103 -1.731330 5.855112 0
M  V30 37 C 0.094428 -0.724693 6.492425 0
M  V30 38 N 0.362733 0.481815 5.986003 0
M  V30 39 H 2.506654 2.075257 5.283676 0
M  V30 40 H 4.129157 1.710654 4.682721 0
M  V30 41 H 2.883089 0.373038 4.854074 0
M  V30 42 H 4.568683 1.374601 2.460696 0
M  V30 43 H 3.806606 1.886537 0.154564 0
M  V30 44 H 1.062461 1.528215 -0.845198 0
M  V30 45 H 2.267864 4.196791 -4.170954 0
M  V30 46 H 1.157237 3.579214 -6.362071 0
M  V30 47 H -2.145418 0.914952 -2.007718 0
M  V30 48 H -3.593210 1.315793 -2.915304 0
M  V30 49 H -2.359328 -1.287343 -2.171835 0
M  V30 50 H -4.038020 -0.869285 -2.502760 0
M  V30 51 H -4.336616 -0.532182 -5.240149 0
M  V30 52 H -3.057759 -1.403837 -6.113749 0
M  V30 53 H -3.104761 1.271228 -5.813133 0
M  V30 54 H -1.594953 0.399025 -6.171333 0
M  V30 55 H -0.476391 1.883193 -2.078712 0
M  V30 56 H -0.132945 2.502379 1.477869 0
M  V30 57 H -0.404401 2.794291 4.293433 0
M  V30 58 H -0.936957 -0.024626 3.039155 0
M  V30 59 H -1.728119 -3.450152 4.412328 0
M  V30 60 H -2.765935 -3.512998 2.401986 0
M  V30 61 H -2.727422 -1.754784 2.377238 0
M  V30 62 H -0.494903 -1.663101 1.422731 0
M  V30 63 H -1.634893 -2.607422 0.471530 0
M  V30 64 H 0.607477 -3.648555 2.334229 0
M  V30 65 H 0.655848 -3.514296 0.577685 0
M  V30 66 H -1.848915 -6.144360 0.160251 0
M  V30 67 H -1.577877 -4.442907 -0.438937 0
M  V30 68 H -0.275806 -6.336754 -1.677937 0
M  V30 69 H 0.708351 -4.922052 -1.042357 0
M  V30 70 H 1.804672 -6.719666 -0.112805 0
M  V30 71 H 0.291881 -7.693759 0.195812 0
M  V30 72 H 1.501979 -5.406919 1.689593 0
M  V30 73 H 0.414099 -6.662996 2.345826 0
M  V30 74 H 0.419811 -0.875133 7.522039 0
M  V30 END ATOM
M  V30 BEGIN BOND
M  V30 1 1 1 2
M  V30 2 2 2 3
M  V30 3 1 3 4
M  V30 4 2 4 5
M  V30 5 1 5 6
M  V30 6 1 6 7
M  V30 7 2 7 8
M  V30 8 1 7 9
M  V30 9 2 9 10
M  V30 10 1 10 11
M  V30 11 2 11 12
M  V30 12 1 12 13
M  V30 13 1 13 14
M  V30 14 1 14 15
M  V30 15 1 15 16
M  V30 16 1 16 17
M  V30 17 1 17 18
M  V30 18 1 18 19
M  V30 19 2 13 20
M  V30 20 1 5 21
M  V30 21 2 21 22
M  V30 22 1 22 23
M  V30 23 1 23 24
M  V30 24 2 24 25
M  V30 25 1 25 26
M  V30 26 1 26 27
M  V30 27 1 27 28
M  V30 28 1 28 29
M  V30 29 1 29 30
M  V30 30 1 30 31
M  V30 31 1 31 32
M  V30 32 1 32 33
M  V30 33 1 33 34
M  V30 34 1 34 35
M  V30 35 2 26 36
M  V30 36 1 36 37
M  V30 37 2 37 38
M  V30 38 1 22 2
M  V30 39 1 38 24
M  V30 40 1 20 9
M  V30 41 1 35 31
M  V30 42 1 19 14
M  V30 43 1 1 39
M  V30 44 1 1 40
M  V30 45 1 1 41
M  V30 46 1 3 42
M  V30 47 1 4 43
M  V30 48 1 6 44
M  V30 49 1 10 45
M  V30 50 1 11 46
M  V30 51 1 15 47
M  V30 52 1 15 48
M  V30 53 1 16 49
M  V30 54 1 16 50
M  V30 55 1 18 51
M  V30 56 1 18 52
M  V30 57 1 19 53
M  V30 58 1 19 54
M  V30 59 1 20 55
M  V30 60 1 21 56
M  V30 61 1 23 57
M  V30 62 1 25 58
M  V30 63 1 27 59
M  V30 64 1 28 60
M  V30 65 1 28 61
M  V30 66 1 29 62
M  V30 67 1 29 63
M  V30 68 1 30 64
M  V30 69 1 30 65
M  V30 70 1 32 66
M  V30 71 1 32 67
M  V30 72 1 33 68
M  V30 73 1 33 69
M  V30 74 1 34 70
M  V30 75 1 34 71
M  V30 76 1 35 72
M  V30 77 1 35 73
M  V30 78 1 37 74
M  V30 END BOND
M  V30 END CTAB
M  END
>  <Dataset>  (652) 
ChEMBL_Kinases

>  <Ligand_Instance>  (652) 
nan

>  <PDB_ID>  (652) 
nan

>  <Standardized_SMILES>  (652) 
Cc1ccc(NC(=O)c2ccnc(N3CCOCC3)c2)cc1Nc1cc(NCCCN2CCCC2)ncn1

>  <Name>  (652) 
nan

>  <Pocket>  (652) 
nan

>  <ATP_Site>  (652) 
nan

>  <Peripheral>  (652) 
nan

>  <Num_H_Atoms_ProtBoundConf>  (652) 
nan

>  <Num_Resolved_Atoms>  (652) 
nan

>  <Num_Not_Resolved_Atoms>  (652) 
nan

$$$$
CHEMBL186901
     RDKit          3D

  0  0  0  0  0  0  0  0  0  0999 V3000
M  V30 BEGIN CTAB
M  V30 COUNTS 40 43 0 0 0
M  V30 BEGIN ATOM
M  V30 1 C 0.664190 -6.294167 2.952568 0
M  V30 2 O -0.208114 -5.343603 2.370313 0
M  V30 3 C 0.348503 -4.241532 1.756546 0
M  V30 4 C 1.716292 -4.036511 1.686930 0
M  V30 5 C 2.332665 -2.959018 1.088864 0
M  V30 6 C 1.482989 -2.036274 0.527967 0
M  V30 7 C 0.110037 -2.118544 0.527905 0
M  V30 8 N -0.829982 -1.238402 0.000384 0
M  V30 9 C -1.681672 -0.147832 0.292636 0
M  V30 10 C -1.616747 1.159965 0.200554 0
M  V30 11 C -0.593835 2.084459 -0.259264 0
M  V30 12 C -0.895459 3.109931 -1.162938 0
M  V30 13 N 0.228111 3.815419 -1.395118 0
M  V30 14 C 1.260693 3.330602 -0.706594 0
M  V30 15 C 2.574051 3.695367 -0.601568 0
M  V30 16 C 3.404691 2.961513 0.238077 0
M  V30 17 C 2.873286 1.890241 0.935920 0
M  V30 18 C 1.550790 1.538224 0.817585 0
M  V30 19 C 0.747894 2.277387 -0.018520 0
M  V30 20 C -2.895844 1.660252 0.698595 0
M  V30 21 O -3.251878 2.889402 0.783146 0
M  V30 22 N -3.765569 0.612904 1.106405 0
M  V30 23 C -2.974221 -0.559215 0.841128 0
M  V30 24 O -3.535811 -1.669826 1.125331 0
M  V30 25 C -0.410561 -3.252195 1.161247 0
M  V30 26 H 0.017157 -7.044729 3.466117 0
M  V30 27 H 1.223642 -6.886094 2.184727 0
M  V30 28 H 1.331897 -5.772086 3.658185 0
M  V30 29 H 2.360621 -4.781617 2.139093 0
M  V30 30 H 3.397112 -2.834239 1.054327 0
M  V30 31 H 1.902244 -1.175950 0.037867 0
M  V30 32 H -0.933097 -1.510196 -1.022872 0
M  V30 33 H -1.863928 3.311132 -1.606311 0
M  V30 34 H 0.304229 4.655118 -2.040667 0
M  V30 35 H 2.932492 4.543498 -1.173963 0
M  V30 36 H 4.432878 3.224454 0.338946 0
M  V30 37 H 3.530258 1.315650 1.595569 0
M  V30 38 H 1.149446 0.688773 1.382391 0
M  V30 39 H -4.729193 0.731051 1.494713 0
M  V30 40 H -1.486779 -3.441753 1.229606 0
M  V30 END ATOM
M  V30 BEGIN BOND
M  V30 1 1 1 2
M  V30 2 1 2 3
M  V30 3 2 3 4
M  V30 4 1 4 5
M  V30 5 2 5 6
M  V30 6 1 6 7
M  V30 7 1 7 8
M  V30 8 1 8 9
M  V30 9 2 9 10
M  V30 10 1 10 11
M  V30 11 2 11 12
M  V30 12 1 12 13
M  V30 13 1 13 14
M  V30 14 2 14 15
M  V30 15 1 15 16
M  V30 16 2 16 17
M  V30 17 1 17 18
M  V30 18 2 18 19
M  V30 19 1 10 20
M  V30 20 2 20 21
M  V30 21 1 20 22
M  V30 22 1 22 23
M  V30 23 2 23 24
M  V30 24 2 7 25
M  V30 25 1 25 3
M  V30 26 1 23 9
M  V30 27 1 19 11
M  V30 28 1 19 14
M  V30 29 1 1 26
M  V30 30 1 1 27
M  V30 31 1 1 28
M  V30 32 1 4 29
M  V30 33 1 5 30
M  V30 34 1 6 31
M  V30 35 1 8 32
M  V30 36 1 12 33
M  V30 37 1 13 34
M  V30 38 1 15 35
M  V30 39 1 16 36
M  V30 40 1 17 37
M  V30 41 1 18 38
M  V30 42 1 22 39
M  V30 43 1 25 40
M  V30 END BOND
M  V30 END CTAB
M  END
>  <Dataset>  (653) 
ChEMBL_Kinases

>  <Ligand_Instance>  (653) 
nan

>  <PDB_ID>  (653) 
nan

>  <Standardized_SMILES>  (653) 
COc1cccc(NC2=C(c3c[nH]c4ccccc34)C(=O)NC2=O)c1

>  <Name>  (653) 
nan

>  <Pocket>  (653) 
nan

>  <ATP_Site>  (653) 
nan

>  <Peripheral>  (653) 
nan

>  <Num_H_Atoms_ProtBoundConf>  (653) 
nan

>  <Num_Resolved_Atoms>  (653) 
nan

>  <Num_Not_Resolved_Atoms>  (653) 
nan

$$$$
CHEMBL186966
     RDKit          3D

  0  0  0  0  0  0  0  0  0  0999 V3000
M  V30 BEGIN CTAB
M  V30 COUNTS 34 37 0 0 0
M  V30 BEGIN ATOM
M  V30 1 N 2.582781 -3.162038 5.032241 0
M  V30 2 C 1.971966 -2.392035 3.983735 0
M  V30 3 N 1.984338 -2.500386 2.824726 0
M  V30 4 C 1.383235 -1.731581 1.933648 0
M  V30 5 C 1.479948 -1.981054 0.476988 0
M  V30 6 C 1.031005 -3.146655 -0.151764 0
M  V30 7 C 1.213867 -3.180512 -1.513465 0
M  V30 8 C 1.792712 -2.155563 -2.223001 0
M  V30 9 C 2.215580 -1.030087 -1.543104 0
M  V30 10 N 2.041869 -0.985514 -0.210032 0
M  V30 11 C 0.652739 -0.670314 2.466117 0
M  V30 12 C -0.096036 0.312720 1.680292 0
M  V30 13 C 0.162041 1.687050 1.673780 0
M  V30 14 C -0.633574 2.498479 0.876554 0
M  V30 15 C -1.632716 1.897163 0.137724 0
M  V30 16 C -2.409324 2.725394 -0.646339 0
M  V30 17 C -3.415778 2.142945 -1.394356 0
M  V30 18 C -3.659820 0.774384 -1.377017 0
M  V30 19 C -2.881680 -0.061358 -0.590455 0
M  V30 20 C -1.881639 0.539380 0.149239 0
M  V30 21 N -1.088474 -0.212714 0.934796 0
M  V30 22 S 0.884595 -0.852974 4.258579 0
M  V30 23 H 2.006639 -3.979564 5.362174 0
M  V30 24 H 3.519577 -2.848307 5.363382 0
M  V30 25 H 0.591536 -3.897349 0.474045 0
M  V30 26 H 0.872209 -4.074127 -2.012885 0
M  V30 27 H 1.897618 -2.268955 -3.303062 0
M  V30 28 H 2.668057 -0.247373 -2.156374 0
M  V30 29 H 0.967562 2.034863 2.291611 0
M  V30 30 H -0.442631 3.560056 0.864513 0
M  V30 31 H -2.275119 3.798923 -0.707863 0
M  V30 32 H -4.082134 2.700890 -2.042423 0
M  V30 33 H -4.440541 0.291345 -1.952182 0
M  V30 34 H -2.982013 -1.128617 -0.501579 0
M  V30 END ATOM
M  V30 BEGIN BOND
M  V30 1 1 1 2
M  V30 2 2 2 3
M  V30 3 1 3 4
M  V30 4 1 4 5
M  V30 5 2 5 6
M  V30 6 1 6 7
M  V30 7 2 7 8
M  V30 8 1 8 9
M  V30 9 2 9 10
M  V30 10 2 4 11
M  V30 11 1 11 12
M  V30 12 2 12 13
M  V30 13 1 13 14
M  V30 14 2 14 15
M  V30 15 1 15 16
M  V30 16 2 16 17
M  V30 17 1 17 18
M  V30 18 2 18 19
M  V30 19 1 19 20
M  V30 20 2 20 21
M  V30 21 1 11 22
M  V30 22 1 22 2
M  V30 23 1 10 5
M  V30 24 1 21 12
M  V30 25 1 20 15
M  V30 26 1 1 23
M  V30 27 1 1 24
M  V30 28 1 6 25
M  V30 29 1 7 26
M  V30 30 1 8 27
M  V30 31 1 9 28
M  V30 32 1 13 29
M  V30 33 1 14 30
M  V30 34 1 16 31
M  V30 35 1 17 32
M  V30 36 1 18 33
M  V30 37 1 19 34
M  V30 END BOND
M  V30 END CTAB
M  END
>  <Dataset>  (654) 
ChEMBL_Kinases

>  <Ligand_Instance>  (654) 
nan

>  <PDB_ID>  (654) 
nan

>  <Standardized_SMILES>  (654) 
Nc1nc(-c2ccccn2)c(-c2ccc3ccccc3n2)s1

>  <Name>  (654) 
nan

>  <Pocket>  (654) 
nan

>  <ATP_Site>  (654) 
nan

>  <Peripheral>  (654) 
nan

>  <Num_H_Atoms_ProtBoundConf>  (654) 
nan

>  <Num_Resolved_Atoms>  (654) 
nan

>  <Num_Not_Resolved_Atoms>  (654) 
nan

$$$$
CHEMBL186980
     RDKit          3D

  0  0  0  0  0  0  0  0  0  0999 V3000
M  V30 BEGIN CTAB
M  V30 COUNTS 39 42 0 0 0
M  V30 BEGIN ATOM
M  V30 1 C 1.341495 -4.886225 4.507860 0
M  V30 2 C 0.779374 -3.720682 3.779487 0
M  V30 3 C 1.142553 -3.552445 2.448274 0
M  V30 4 C 0.632713 -2.456789 1.763471 0
M  V30 5 C -0.211737 -1.520651 2.307588 0
M  V30 6 N -0.804033 -0.411903 1.658262 0
M  V30 7 C -1.289675 -0.734462 0.327925 0
M  V30 8 C -1.131214 -0.030342 -0.785389 0
M  V30 9 C -0.487077 1.219149 -1.127880 0
M  V30 10 C -1.075410 2.171463 -1.989647 0
M  V30 11 N -0.288135 3.229139 -2.159638 0
M  V30 12 C 0.852320 3.040970 -1.433454 0
M  V30 13 C 1.936909 3.870856 -1.326509 0
M  V30 14 C 2.958675 3.382715 -0.508013 0
M  V30 15 C 2.849873 2.162176 0.123410 0
M  V30 16 C 1.726069 1.349449 -0.012937 0
M  V30 17 C 0.701398 1.820577 -0.823038 0
M  V30 18 C -1.817181 -0.807749 -1.839006 0
M  V30 19 O -1.935727 -0.531762 -3.063840 0
M  V30 20 N -2.398682 -2.003753 -1.344222 0
M  V30 21 C -2.064870 -1.962647 0.040600 0
M  V30 22 O -2.355947 -2.817000 0.945087 0
M  V30 23 C -0.572944 -1.687973 3.634266 0
M  V30 24 C -0.080562 -2.777267 4.358237 0
M  V30 25 H 1.332135 -4.615245 5.589058 0
M  V30 26 H 0.709201 -5.792540 4.432842 0
M  V30 27 H 2.367303 -5.065685 4.133915 0
M  V30 28 H 1.809143 -4.218023 1.877824 0
M  V30 29 H 0.910462 -2.311429 0.729965 0
M  V30 30 H -0.894287 0.539930 2.070940 0
M  V30 31 H -2.068574 2.028678 -2.447346 0
M  V30 32 H -0.544886 4.051495 -2.761393 0
M  V30 33 H 1.961636 4.818529 -1.852253 0
M  V30 34 H 3.812131 4.033084 -0.426883 0
M  V30 35 H 3.679110 1.836589 0.748454 0
M  V30 36 H 1.615200 0.394666 0.474910 0
M  V30 37 H -2.935969 -2.751303 -1.825536 0
M  V30 38 H -1.236254 -0.991944 4.134033 0
M  V30 39 H -0.337574 -2.942446 5.386687 0
M  V30 END ATOM
M  V30 BEGIN BOND
M  V30 1 1 1 2
M  V30 2 2 2 3
M  V30 3 1 3 4
M  V30 4 2 4 5
M  V30 5 1 5 6
M  V30 6 1 6 7
M  V30 7 2 7 8
M  V30 8 1 8 9
M  V30 9 2 9 10
M  V30 10 1 10 11
M  V30 11 1 11 12
M  V30 12 2 12 13
M  V30 13 1 13 14
M  V30 14 2 14 15
M  V30 15 1 15 16
M  V30 16 2 16 17
M  V30 17 1 8 18
M  V30 18 2 18 19
M  V30 19 1 18 20
M  V30 20 1 20 21
M  V30 21 2 21 22
M  V30 22 1 5 23
M  V30 23 2 23 24
M  V30 24 1 24 2
M  V30 25 1 21 7
M  V30 26 1 17 9
M  V30 27 1 17 12
M  V30 28 1 1 25
M  V30 29 1 1 26
M  V30 30 1 1 27
M  V30 31 1 3 28
M  V30 32 1 4 29
M  V30 33 1 6 30
M  V30 34 1 10 31
M  V30 35 1 11 32
M  V30 36 1 13 33
M  V30 37 1 14 34
M  V30 38 1 15 35
M  V30 39 1 16 36
M  V30 40 1 20 37
M  V30 41 1 23 38
M  V30 42 1 24 39
M  V30 END BOND
M  V30 END CTAB
M  END
>  <Dataset>  (655) 
ChEMBL_Kinases

>  <Ligand_Instance>  (655) 
nan

>  <PDB_ID>  (655) 
nan

>  <Standardized_SMILES>  (655) 
Cc1ccc(NC2=C(c3c[nH]c4ccccc34)C(=O)NC2=O)cc1

>  <Name>  (655) 
nan

>  <Pocket>  (655) 
nan

>  <ATP_Site>  (655) 
nan

>  <Peripheral>  (655) 
nan

>  <Num_H_Atoms_ProtBoundConf>  (655) 
nan

>  <Num_Resolved_Atoms>  (655) 
nan

>  <Num_Not_Resolved_Atoms>  (655) 
nan

$$$$
CHEMBL186665
     RDKit          3D

  0  0  0  0  0  0  0  0  0  0999 V3000
M  V30 BEGIN CTAB
M  V30 COUNTS 69 72 0 0 0
M  V30 BEGIN ATOM
M  V30 1 C 3.524526 -3.777876 2.549822 0
M  V30 2 C 3.294951 -2.594072 1.685746 0
M  V30 3 C 4.244280 -2.295585 0.727494 0
M  V30 4 C 4.045740 -1.180995 -0.089341 0
M  V30 5 C 2.902898 -0.398946 0.077813 0
M  V30 6 N 2.693377 0.735977 -0.748714 0
M  V30 7 C 1.979180 0.429541 -1.921723 0
M  V30 8 O 1.665851 -0.800534 -2.004863 0
M  V30 9 C 1.641638 1.431750 -2.927646 0
M  V30 10 C 1.992807 2.762445 -2.824840 0
M  V30 11 C 1.620083 3.626586 -3.838406 0
M  V30 12 N 0.919253 3.184659 -4.923186 0
M  V30 13 C 0.563967 1.893436 -5.048973 0
M  V30 14 N -0.167007 1.503939 -6.207783 0
M  V30 15 C -0.475460 2.538984 -7.172850 0
M  V30 16 C -1.934202 2.375499 -7.546746 0
M  V30 17 O -2.016579 1.122684 -8.190512 0
M  V30 18 C -1.896577 0.111320 -7.252683 0
M  V30 19 C -0.610275 0.174172 -6.476291 0
M  V30 20 C 0.930557 1.025018 -4.044728 0
M  V30 21 C 1.992748 -0.757612 1.058971 0
M  V30 22 C 2.151285 -1.850602 1.886419 0
M  V30 23 N 1.165143 -2.104857 2.840586 0
M  V30 24 C 0.327898 -3.236921 2.999568 0
M  V30 25 C 0.320408 -4.331940 2.171927 0
M  V30 26 C -0.515892 -5.407689 2.379938 0
M  V30 27 N -1.353540 -5.355318 3.451579 0
M  V30 28 C -1.356376 -4.290955 4.268266 0
M  V30 29 O -2.245397 -4.335169 5.329496 0
M  V30 30 C -2.368001 -3.293256 6.276325 0
M  V30 31 C -2.770470 -1.972072 5.660914 0
M  V30 32 C -2.887874 -0.896624 6.716171 0
M  V30 33 N -3.261425 0.328326 6.144301 0
M  V30 34 C -3.422623 1.449632 6.955099 0
M  V30 35 C -3.835133 0.326037 4.855631 0
M  V30 36 N -0.528523 -3.272002 4.027389 0
M  V30 37 H 3.221286 -4.731052 2.109015 0
M  V30 38 H 2.975411 -3.627305 3.518992 0
M  V30 39 H 4.611936 -3.775447 2.814397 0
M  V30 40 H 5.129217 -2.921233 0.615391 0
M  V30 41 H 4.778413 -0.918085 -0.856805 0
M  V30 42 H 3.012850 1.708306 -0.553020 0
M  V30 43 H 2.541818 3.098719 -1.971434 0
M  V30 44 H 1.917565 4.678404 -3.721502 0
M  V30 45 H 0.102059 2.304810 -8.087050 0
M  V30 46 H -0.261518 3.554238 -6.783584 0
M  V30 47 H -2.495840 2.300568 -6.591119 0
M  V30 48 H -2.298213 3.190008 -8.191167 0
M  V30 49 H -2.768817 0.213962 -6.576213 0
M  V30 50 H -2.004640 -0.853594 -7.781700 0
M  V30 51 H 0.174471 -0.327113 -7.097491 0
M  V30 52 H -0.732456 -0.452152 -5.565532 0
M  V30 53 H 0.655667 -0.017044 -4.125245 0
M  V30 54 H 1.124585 -0.118331 1.147132 0
M  V30 55 H 1.097663 -1.296390 3.492800 0
M  V30 56 H 0.981724 -4.360497 1.329961 0
M  V30 57 H -0.472016 -6.239353 1.690699 0
M  V30 58 H -3.065039 -3.621000 7.063828 0
M  V30 59 H -1.328667 -3.135523 6.688852 0
M  V30 60 H -1.990863 -1.646879 4.958187 0
M  V30 61 H -3.759945 -2.099408 5.189096 0
M  V30 62 H -3.614998 -1.262526 7.470201 0
M  V30 63 H -1.887681 -0.786116 7.183472 0
M  V30 64 H -2.656441 2.243267 6.840798 0
M  V30 65 H -4.429749 1.949718 6.881651 0
M  V30 66 H -3.359642 1.133288 8.021358 0
M  V30 67 H -4.909466 0.096963 4.783646 0
M  V30 68 H -3.701931 1.366556 4.436804 0
M  V30 69 H -3.309148 -0.322515 4.125740 0
M  V30 END ATOM
M  V30 BEGIN BOND
M  V30 1 1 1 2
M  V30 2 2 2 3
M  V30 3 1 3 4
M  V30 4 2 4 5
M  V30 5 1 5 6
M  V30 6 1 6 7
M  V30 7 2 7 8
M  V30 8 1 7 9
M  V30 9 2 9 10
M  V30 10 1 10 11
M  V30 11 2 11 12
M  V30 12 1 12 13
M  V30 13 1 13 14
M  V30 14 1 14 15
M  V30 15 1 15 16
M  V30 16 1 16 17
M  V30 17 1 17 18
M  V30 18 1 18 19
M  V30 19 2 13 20
M  V30 20 1 5 21
M  V30 21 2 21 22
M  V30 22 1 22 23
M  V30 23 1 23 24
M  V30 24 2 24 25
M  V30 25 1 25 26
M  V30 26 2 26 27
M  V30 27 1 27 28
M  V30 28 1 28 29
M  V30 29 1 29 30
M  V30 30 1 30 31
M  V30 31 1 31 32
M  V30 32 1 32 33
M  V30 33 1 33 34
M  V30 34 1 33 35
M  V30 35 2 28 36
M  V30 36 1 22 2
M  V30 37 1 36 24
M  V30 38 1 20 9
M  V30 39 1 19 14
M  V30 40 1 1 37
M  V30 41 1 1 38
M  V30 42 1 1 39
M  V30 43 1 3 40
M  V30 44 1 4 41
M  V30 45 1 6 42
M  V30 46 1 10 43
M  V30 47 1 11 44
M  V30 48 1 15 45
M  V30 49 1 15 46
M  V30 50 1 16 47
M  V30 51 1 16 48
M  V30 52 1 18 49
M  V30 53 1 18 50
M  V30 54 1 19 51
M  V30 55 1 19 52
M  V30 56 1 20 53
M  V30 57 1 21 54
M  V30 58 1 23 55
M  V30 59 1 25 56
M  V30 60 1 26 57
M  V30 61 1 30 58
M  V30 62 1 30 59
M  V30 63 1 31 60
M  V30 64 1 31 61
M  V30 65 1 32 62
M  V30 66 1 32 63
M  V30 67 1 34 64
M  V30 68 1 34 65
M  V30 69 1 34 66
M  V30 70 1 35 67
M  V30 71 1 35 68
M  V30 72 1 35 69
M  V30 END BOND
M  V30 END CTAB
M  END
>  <Dataset>  (656) 
ChEMBL_Kinases

>  <Ligand_Instance>  (656) 
nan

>  <PDB_ID>  (656) 
nan

>  <Standardized_SMILES>  (656) 
Cc1ccc(NC(=O)c2ccnc(N3CCOCC3)c2)cc1Nc1ccnc(OCCCN(C)C)n1

>  <Name>  (656) 
nan

>  <Pocket>  (656) 
nan

>  <ATP_Site>  (656) 
nan

>  <Peripheral>  (656) 
nan

>  <Num_H_Atoms_ProtBoundConf>  (656) 
nan

>  <Num_Resolved_Atoms>  (656) 
nan

>  <Num_Not_Resolved_Atoms>  (656) 
nan

$$$$
CHEMBL188979
     RDKit          3D

  0  0  0  0  0  0  0  0  0  0999 V3000
M  V30 BEGIN CTAB
M  V30 COUNTS 41 44 0 0 0
M  V30 BEGIN ATOM
M  V30 1 Cl 2.032071 -5.050711 3.772042 0
M  V30 2 C 1.681232 -4.667854 2.107313 0
M  V30 3 C 1.273159 -5.591113 1.181382 0
M  V30 4 C 0.996756 -5.262828 -0.151802 0
M  V30 5 C 1.162483 -3.920922 -0.492150 0
M  V30 6 Cl 0.796447 -3.598766 -2.180172 0
M  V30 7 C 1.575751 -2.959146 0.425487 0
M  V30 8 C 1.681362 -1.615781 -0.196214 0
M  V30 9 N 0.392348 -0.997784 -0.418254 0
M  V30 10 C 0.651456 0.239722 -1.047801 0
M  V30 11 N 0.773041 0.348238 -2.397153 0
M  V30 12 N 1.030069 1.603763 -2.727913 0
M  V30 13 C 1.089182 2.375601 -1.622506 0
M  V30 14 C 1.317339 3.704518 -1.294420 0
M  V30 15 C 1.295607 4.099069 0.040885 0
M  V30 16 C 1.043424 3.158021 1.048971 0
M  V30 17 C 0.808348 1.805547 0.745378 0
M  V30 18 O 0.599926 1.171183 1.917451 0
M  V30 19 C -0.504926 0.507446 2.392231 0
M  V30 20 C -1.359239 1.539068 2.839952 0
M  V30 21 C -2.608090 1.268009 3.403283 0
M  V30 22 C -3.047801 -0.045295 3.538951 0
M  V30 23 C -2.218248 -1.051216 3.104430 0
M  V30 24 C -1.000642 -0.763528 2.556541 0
M  V30 25 C 0.849924 1.506400 -0.590286 0
M  V30 26 C 1.828876 -3.354740 1.717014 0
M  V30 27 H 1.163422 -6.627929 1.516220 0
M  V30 28 H 0.681538 -6.035476 -0.824998 0
M  V30 29 H 2.300086 -0.946592 0.440298 0
M  V30 30 H 2.259759 -1.689767 -1.164522 0
M  V30 31 H -0.624860 -1.168051 -0.270919 0
M  V30 32 H 0.679805 -0.438914 -3.089068 0
M  V30 33 H 1.502064 4.365561 -2.121077 0
M  V30 34 H 1.486524 5.141236 0.146081 0
M  V30 35 H 1.074373 3.679922 1.998336 0
M  V30 36 H -1.256564 2.624686 2.849940 0
M  V30 37 H -3.345623 1.961013 3.779645 0
M  V30 38 H -3.993124 -0.341561 3.960321 0
M  V30 39 H -2.403436 -2.108882 3.135626 0
M  V30 40 H -0.253655 -1.439310 2.189629 0
M  V30 41 H 2.142672 -2.518888 2.336932 0
M  V30 END ATOM
M  V30 BEGIN BOND
M  V30 1 1 1 2
M  V30 2 2 2 3
M  V30 3 1 3 4
M  V30 4 2 4 5
M  V30 5 1 5 6
M  V30 6 1 5 7
M  V30 7 1 7 8
M  V30 8 1 8 9
M  V30 9 1 9 10
M  V30 10 1 10 11
M  V30 11 1 11 12
M  V30 12 2 12 13
M  V30 13 1 13 14
M  V30 14 2 14 15
M  V30 15 1 15 16
M  V30 16 2 16 17
M  V30 17 1 17 18
M  V30 18 1 18 19
M  V30 19 2 19 20
M  V30 20 1 20 21
M  V30 21 2 21 22
M  V30 22 1 22 23
M  V30 23 2 23 24
M  V30 24 1 17 25
M  V30 25 2 7 26
M  V30 26 1 26 2
M  V30 27 2 25 10
M  V30 28 1 25 13
M  V30 29 1 24 19
M  V30 30 1 3 27
M  V30 31 1 4 28
M  V30 32 1 8 29
M  V30 33 1 8 30
M  V30 34 1 9 31
M  V30 35 1 11 32
M  V30 36 1 14 33
M  V30 37 1 15 34
M  V30 38 1 16 35
M  V30 39 1 20 36
M  V30 40 1 21 37
M  V30 41 1 22 38
M  V30 42 1 23 39
M  V30 43 1 24 40
M  V30 44 1 26 41
M  V30 END BOND
M  V30 END CTAB
M  END
>  <Dataset>  (657) 
ChEMBL_Kinases

>  <Ligand_Instance>  (657) 
nan

>  <PDB_ID>  (657) 
nan

>  <Standardized_SMILES>  (657) 
Clc1ccc(Cl)c(CNc2[nH]nc3cccc(Oc4ccccc4)c23)c1

>  <Name>  (657) 
nan

>  <Pocket>  (657) 
nan

>  <ATP_Site>  (657) 
nan

>  <Peripheral>  (657) 
nan

>  <Num_H_Atoms_ProtBoundConf>  (657) 
nan

>  <Num_Resolved_Atoms>  (657) 
nan

>  <Num_Not_Resolved_Atoms>  (657) 
nan

$$$$
CHEMBL188867
     RDKit          3D

  0  0  0  0  0  0  0  0  0  0999 V3000
M  V30 BEGIN CTAB
M  V30 COUNTS 43 46 0 0 0
M  V30 BEGIN ATOM
M  V30 1 O 3.659518 -4.100430 3.269798 0
M  V30 2 N 2.585930 -3.493861 3.080318 0 CHG=1 VAL=4
M  V30 3 O 1.512112 -4.287841 3.424157 0 CHG=-1 VAL=1
M  V30 4 C 2.589580 -2.172062 2.577386 0
M  V30 5 C 3.709544 -1.386998 2.842347 0
M  V30 6 C 3.758550 -0.085955 2.370074 0
M  V30 7 C 2.703271 0.437520 1.638005 0
M  V30 8 N 2.504853 1.644734 1.079686 0
M  V30 9 N 1.317167 1.595235 0.501983 0
M  V30 10 C 0.726537 0.400218 0.659480 0
M  V30 11 N -0.552977 0.037917 0.162900 0
M  V30 12 C -1.352773 0.989655 -0.606044 0
M  V30 13 C -1.635541 2.199469 0.203205 0
M  V30 14 C -1.005673 3.418699 0.014190 0
M  V30 15 C -1.281232 4.540720 0.771619 0
M  V30 16 C -2.219594 4.462496 1.761620 0
M  V30 17 C -2.885017 3.263600 1.997477 0
M  V30 18 C -2.582246 2.176251 1.224636 0
M  V30 19 Cl -3.403674 0.643528 1.494177 0
M  V30 20 C 1.612423 -0.366140 1.395003 0
M  V30 21 C 1.513044 -1.666260 1.841213 0
M  V30 22 O 0.425418 -2.499569 1.610586 0
M  V30 23 C 0.476458 -3.320182 0.463728 0
M  V30 24 C -0.682970 -4.096919 0.370423 0
M  V30 25 C -0.843195 -4.978017 -0.684950 0
M  V30 26 C 0.128606 -5.089579 -1.634047 0
M  V30 27 C 1.246360 -4.323404 -1.520614 0
M  V30 28 C 1.466709 -3.431423 -0.500172 0
M  V30 29 H 4.533634 -1.826320 3.425832 0
M  V30 30 H 4.625350 0.522901 2.574479 0
M  V30 31 H 3.132811 2.475372 1.079187 0
M  V30 32 H -0.994015 -0.871571 0.301085 0
M  V30 33 H -2.257203 0.554154 -1.033830 0
M  V30 34 H -0.652293 1.341410 -1.419547 0
M  V30 35 H -0.259645 3.511017 -0.764722 0
M  V30 36 H -0.736008 5.459723 0.552890 0
M  V30 37 H -2.421429 5.362105 2.348149 0
M  V30 38 H -3.631028 3.194452 2.781691 0
M  V30 39 H -1.511974 -4.091315 1.059649 0
M  V30 40 H -1.729544 -5.610539 -0.808491 0
M  V30 41 H 0.029377 -5.766486 -2.465021 0
M  V30 42 H 2.064089 -4.364157 -2.247524 0
M  V30 43 H 2.291654 -2.781531 -0.303221 0
M  V30 END ATOM
M  V30 BEGIN BOND
M  V30 1 2 1 2
M  V30 2 1 2 3
M  V30 3 1 2 4
M  V30 4 2 4 5
M  V30 5 1 5 6
M  V30 6 2 6 7
M  V30 7 1 7 8
M  V30 8 1 8 9
M  V30 9 2 9 10
M  V30 10 1 10 11
M  V30 11 1 11 12
M  V30 12 1 12 13
M  V30 13 2 13 14
M  V30 14 1 14 15
M  V30 15 2 15 16
M  V30 16 1 16 17
M  V30 17 2 17 18
M  V30 18 1 18 19
M  V30 19 1 10 20
M  V30 20 2 20 21
M  V30 21 1 21 22
M  V30 22 1 22 23
M  V30 23 2 23 24
M  V30 24 1 24 25
M  V30 25 2 25 26
M  V30 26 1 26 27
M  V30 27 2 27 28
M  V30 28 1 21 4
M  V30 29 1 28 23
M  V30 30 1 20 7
M  V30 31 1 18 13
M  V30 32 1 5 29
M  V30 33 1 6 30
M  V30 34 1 8 31
M  V30 35 1 11 32
M  V30 36 1 12 33
M  V30 37 1 12 34
M  V30 38 1 14 35
M  V30 39 1 15 36
M  V30 40 1 16 37
M  V30 41 1 17 38
M  V30 42 1 24 39
M  V30 43 1 25 40
M  V30 44 1 26 41
M  V30 45 1 27 42
M  V30 46 1 28 43
M  V30 END BOND
M  V30 END CTAB
M  END
>  <Dataset>  (658) 
ChEMBL_Kinases

>  <Ligand_Instance>  (658) 
nan

>  <PDB_ID>  (658) 
nan

>  <Standardized_SMILES>  (658) 
O=[N+]([O-])c1ccc2[nH]nc(NCc3ccccc3Cl)c2c1Oc1ccccc1

>  <Name>  (658) 
nan

>  <Pocket>  (658) 
nan

>  <ATP_Site>  (658) 
nan

>  <Peripheral>  (658) 
nan

>  <Num_H_Atoms_ProtBoundConf>  (658) 
nan

>  <Num_Resolved_Atoms>  (658) 
nan

>  <Num_Not_Resolved_Atoms>  (658) 
nan

$$$$
CHEMBL188806
     RDKit          3D

  0  0  0  0  0  0  0  0  0  0999 V3000
M  V30 BEGIN CTAB
M  V30 COUNTS 36 39 0 0 0
M  V30 BEGIN ATOM
M  V30 1 N 0.629803 -2.987562 2.646379 0
M  V30 2 C 1.726786 -2.248876 3.008055 0
M  V30 3 N 2.476111 -2.728161 4.037124 0
M  V30 4 O 3.433601 -1.851417 4.210782 0
M  V30 5 N 3.280256 -0.911945 3.354776 0
M  V30 6 C 2.222453 -1.069903 2.540551 0
M  V30 7 C 1.873704 -0.150925 1.482202 0
M  V30 8 N 2.633947 0.970529 1.347970 0
M  V30 9 C 2.188747 1.722787 0.344887 0
M  V30 10 C 2.727856 2.925273 -0.046311 0
M  V30 11 N 2.130327 3.568842 -1.092216 0
M  V30 12 C 1.057854 3.022910 -1.695318 0
M  V30 13 C 0.588240 1.814952 -1.234739 0
M  V30 14 C 1.103506 1.077405 -0.198547 0
M  V30 15 N 0.959521 -0.030694 0.510310 0
M  V30 16 C -0.034068 -0.994605 0.232321 0
M  V30 17 C -1.298269 -0.848195 1.013952 0
M  V30 18 C -2.187137 -2.013717 0.614059 0
M  V30 19 C -2.628663 -1.883023 -0.833656 0
M  V30 20 N -1.797740 -0.867826 -1.451475 0
M  V30 21 C -0.411830 -1.186385 -1.230516 0
M  V30 22 H -0.382249 -3.232551 2.746280 0
M  V30 23 H -0.380554 -3.231442 2.746806 0
M  V30 24 H 3.588956 3.351435 0.447850 0
M  V30 25 H 0.548143 3.500567 -2.533260 0
M  V30 26 H -0.265882 1.390663 -1.691888 0
M  V30 27 H 0.408336 -1.991570 0.488492 0
M  V30 28 H -1.807685 0.126233 0.837539 0
M  V30 29 H -1.113949 -0.948219 2.101220 0
M  V30 30 H -1.579940 -2.933428 0.684562 0
M  V30 31 H -3.065637 -2.109607 1.283451 0
M  V30 32 H -2.538475 -2.818163 -1.405341 0
M  V30 33 H -3.681046 -1.525938 -0.889698 0
M  V30 34 H -2.125242 0.043534 -1.146295 0
M  V30 35 H 0.307588 -0.771703 -1.937937 0
M  V30 36 H -0.373704 -2.306148 -1.497388 0
M  V30 END ATOM
M  V30 BEGIN BOND
M  V30 1 1 1 2
M  V30 2 2 2 3
M  V30 3 1 3 4
M  V30 4 1 4 5
M  V30 5 2 5 6
M  V30 6 1 6 7
M  V30 7 2 7 8
M  V30 8 1 8 9
M  V30 9 2 9 10
M  V30 10 1 10 11
M  V30 11 2 11 12
M  V30 12 1 12 13
M  V30 13 2 13 14
M  V30 14 1 14 15
M  V30 15 1 15 16
M  V30 16 1 16 17
M  V30 17 1 17 18
M  V30 18 1 18 19
M  V30 19 1 19 20
M  V30 20 1 20 21
M  V30 21 1 6 2
M  V30 22 1 15 7
M  V30 23 1 21 16
M  V30 24 1 14 9
M  V30 25 1 1 22
M  V30 26 1 1 23
M  V30 27 1 10 24
M  V30 28 1 12 25
M  V30 29 1 13 26
M  V30 30 1 16 27
M  V30 31 1 17 28
M  V30 32 1 17 29
M  V30 33 1 18 30
M  V30 34 1 18 31
M  V30 35 1 19 32
M  V30 36 1 19 33
M  V30 37 1 20 34
M  V30 38 1 21 35
M  V30 39 1 21 36
M  V30 END BOND
M  V30 END CTAB
M  END
>  <Dataset>  (659) 
ChEMBL_Kinases

>  <Ligand_Instance>  (659) 
nan

>  <PDB_ID>  (659) 
nan

>  <Standardized_SMILES>  (659) 
Nc1nonc1-c1nc2cnccc2n1C1CCCNC1

>  <Name>  (659) 
nan

>  <Pocket>  (659) 
nan

>  <ATP_Site>  (659) 
nan

>  <Peripheral>  (659) 
nan

>  <Num_H_Atoms_ProtBoundConf>  (659) 
nan

>  <Num_Resolved_Atoms>  (659) 
nan

>  <Num_Not_Resolved_Atoms>  (659) 
nan

$$$$
CHEMBL188705
     RDKit          3D

  0  0  0  0  0  0  0  0  0  0999 V3000
M  V30 BEGIN CTAB
M  V30 COUNTS 55 58 0 0 0
M  V30 BEGIN ATOM
M  V30 1 C 0.207800 -2.438932 3.185965 0
M  V30 2 O 1.418561 -1.817254 3.538583 0
M  V30 3 C 2.076635 -0.919716 2.688653 0
M  V30 4 C 3.237020 -0.464576 3.290888 0
M  V30 5 C 3.988759 0.447531 2.536468 0
M  V30 6 C 3.597262 0.857790 1.289091 0
M  V30 7 O 4.223138 1.741400 0.437074 0
M  V30 8 C 5.431891 2.371634 0.768960 0
M  V30 9 C 2.420047 0.375690 0.712757 0
M  V30 10 C 1.925479 0.778938 -0.632213 0
M  V30 11 N 0.514997 0.713373 -0.777000 0
M  V30 12 C -0.289701 1.469087 0.087533 0
M  V30 13 N 0.183215 2.226675 1.082352 0
M  V30 14 N -0.798770 2.865068 1.686783 0
M  V30 15 C -1.997386 2.576588 1.134593 0
M  V30 16 C -3.316273 2.943966 1.302299 0
M  V30 17 C -4.283606 2.411544 0.444786 0
M  V30 18 C -3.913432 1.521959 -0.563077 0
M  V30 19 C -2.577444 1.159708 -0.717243 0
M  V30 20 O -2.458561 0.273854 -1.767294 0
M  V30 21 C -2.151500 -1.052765 -1.522148 0
M  V30 22 C -1.858256 -1.991737 -2.513287 0
M  V30 23 C -1.562843 -3.298962 -2.217685 0
M  V30 24 C -1.539550 -3.762264 -0.922404 0
M  V30 25 S -1.185342 -5.392083 -0.403663 0
M  V30 26 C -2.766231 -6.250122 -0.407034 0
M  V30 27 O -0.188128 -6.069021 -1.272670 0
M  V30 28 O -0.701445 -5.325141 1.026289 0
M  V30 29 C -1.834992 -2.808767 0.043938 0
M  V30 30 C -2.133711 -1.492705 -0.215632 0
M  V30 31 C -1.654554 1.691101 0.125941 0
M  V30 32 C 1.653724 -0.530735 1.438557 0
M  V30 33 H -0.683219 -1.880695 3.466695 0
M  V30 34 H 0.211727 -2.625051 2.094164 0
M  V30 35 H 0.188212 -3.440105 3.696947 0
M  V30 36 H 3.613067 -0.736144 4.253621 0
M  V30 37 H 4.909221 0.850830 2.927076 0
M  V30 38 H 6.244684 2.015698 0.069931 0
M  V30 39 H 5.752699 2.274053 1.811911 0
M  V30 40 H 5.316480 3.464064 0.579101 0
M  V30 41 H 2.482853 0.166589 -1.354577 0
M  V30 42 H 2.275219 1.833795 -0.797500 0
M  V30 43 H 0.295715 0.079313 -1.559594 0
M  V30 44 H 1.147404 2.377555 1.427517 0
M  V30 45 H -3.479510 3.632339 2.118157 0
M  V30 46 H -5.291056 2.747324 0.638258 0
M  V30 47 H -4.761710 1.194437 -1.148321 0
M  V30 48 H -1.868801 -1.658537 -3.558413 0
M  V30 49 H -1.330838 -4.041408 -2.982106 0
M  V30 50 H -3.157915 -6.181785 -1.441003 0
M  V30 51 H -3.437845 -5.646100 0.256502 0
M  V30 52 H -2.676351 -7.285034 -0.022500 0
M  V30 53 H -1.841350 -3.119538 1.076814 0
M  V30 54 H -2.348822 -0.822772 0.602151 0
M  V30 55 H 0.718416 -0.950890 1.062256 0
M  V30 END ATOM
M  V30 BEGIN BOND
M  V30 1 1 1 2
M  V30 2 1 2 3
M  V30 3 2 3 4
M  V30 4 1 4 5
M  V30 5 2 5 6
M  V30 6 1 6 7
M  V30 7 1 7 8
M  V30 8 1 6 9
M  V30 9 1 9 10
M  V30 10 1 10 11
M  V30 11 1 11 12
M  V30 12 1 12 13
M  V30 13 1 13 14
M  V30 14 2 14 15
M  V30 15 1 15 16
M  V30 16 2 16 17
M  V30 17 1 17 18
M  V30 18 2 18 19
M  V30 19 1 19 20
M  V30 20 1 20 21
M  V30 21 2 21 22
M  V30 22 1 22 23
M  V30 23 2 23 24
M  V30 24 1 24 25
M  V30 25 1 25 26
M  V30 26 2 25 27
M  V30 27 2 25 28
M  V30 28 1 24 29
M  V30 29 2 29 30
M  V30 30 1 19 31
M  V30 31 2 9 32
M  V30 32 1 32 3
M  V30 33 2 31 12
M  V30 34 1 31 15
M  V30 35 1 30 21
M  V30 36 1 1 33
M  V30 37 1 1 34
M  V30 38 1 1 35
M  V30 39 1 4 36
M  V30 40 1 5 37
M  V30 41 1 8 38
M  V30 42 1 8 39
M  V30 43 1 8 40
M  V30 44 1 10 41
M  V30 45 1 10 42
M  V30 46 1 11 43
M  V30 47 1 13 44
M  V30 48 1 16 45
M  V30 49 1 17 46
M  V30 50 1 18 47
M  V30 51 1 22 48
M  V30 52 1 23 49
M  V30 53 1 26 50
M  V30 54 1 26 51
M  V30 55 1 26 52
M  V30 56 1 29 53
M  V30 57 1 30 54
M  V30 58 1 32 55
M  V30 END BOND
M  V30 END CTAB
M  END
>  <Dataset>  (660) 
ChEMBL_Kinases

>  <Ligand_Instance>  (660) 
nan

>  <PDB_ID>  (660) 
nan

>  <Standardized_SMILES>  (660) 
COc1ccc(OC)c(CNc2[nH]nc3cccc(Oc4ccc(S(C)(=O)=O)cc4)c23)c1

>  <Name>  (660) 
nan

>  <Pocket>  (660) 
nan

>  <ATP_Site>  (660) 
nan

>  <Peripheral>  (660) 
nan

>  <Num_H_Atoms_ProtBoundConf>  (660) 
nan

>  <Num_Resolved_Atoms>  (660) 
nan

>  <Num_Not_Resolved_Atoms>  (660) 
nan

$$$$
CHEMBL188620
     RDKit          3D

  0  0  0  0  0  0  0  0  0  0999 V3000
M  V30 BEGIN CTAB
M  V30 COUNTS 32 34 0 0 0
M  V30 BEGIN ATOM
M  V30 1 C -0.961314 -1.409842 2.752412 0
M  V30 2 C -0.181762 -1.506849 1.435748 0
M  V30 3 C -0.844268 -2.470255 0.494788 0
M  V30 4 N -0.111815 -2.539217 -0.722661 0
M  V30 5 N 0.038305 -0.256610 0.800273 0
M  V30 6 C 1.162992 0.132001 0.205066 0
M  V30 7 C 2.469230 -0.393059 -0.097367 0
M  V30 8 N 3.446103 0.313498 -0.706160 0
M  V30 9 O 4.543007 -0.328855 -0.860822 0
M  V30 10 N 4.391070 -1.534142 -0.363039 0
M  V30 11 C 3.112127 -1.563818 0.103493 0
M  V30 12 N 2.714658 -2.764862 0.660811 0
M  V30 13 N 0.879057 1.383105 -0.188282 0
M  V30 14 C -0.357963 1.733315 0.149889 0
M  V30 15 C -0.959900 2.939860 -0.110951 0
M  V30 16 N -2.234744 3.117881 0.301596 0
M  V30 17 C -2.888997 2.121527 0.954442 0
M  V30 18 C -2.218014 0.940283 1.178924 0
M  V30 19 C -0.926248 0.667844 0.799514 0
M  V30 20 H -0.449772 -2.001644 3.573585 0
M  V30 21 H -0.948335 -0.377711 3.125979 0
M  V30 22 H -1.940617 -1.851035 2.596654 0
M  V30 23 H 0.778853 -1.930123 1.759892 0
M  V30 24 H -1.903434 -2.180382 0.274787 0
M  V30 25 H -0.921454 -3.439436 1.031632 0
M  V30 26 H -0.569870 -2.096567 -1.530817 0
M  V30 27 H 0.354874 -3.436751 -0.911216 0
M  V30 28 H 3.031723 -2.984498 1.644737 0
M  V30 29 H 2.239585 -3.681646 0.697727 0
M  V30 30 H -0.437604 3.725956 -0.628787 0
M  V30 31 H -3.910478 2.193979 1.313050 0
M  V30 32 H -2.697108 0.133760 1.672477 0
M  V30 END ATOM
M  V30 BEGIN BOND
M  V30 1 1 1 2
M  V30 2 1 2 3
M  V30 3 1 3 4
M  V30 4 1 2 5
M  V30 5 1 5 6
M  V30 6 1 6 7
M  V30 7 2 7 8
M  V30 8 1 8 9
M  V30 9 1 9 10
M  V30 10 2 10 11
M  V30 11 1 11 12
M  V30 12 2 6 13
M  V30 13 1 13 14
M  V30 14 2 14 15
M  V30 15 1 15 16
M  V30 16 2 16 17
M  V30 17 1 17 18
M  V30 18 2 18 19
M  V30 19 1 19 5
M  V30 20 1 11 7
M  V30 21 1 19 14
M  V30 22 1 1 20
M  V30 23 1 1 21
M  V30 24 1 1 22
M  V30 25 1 2 23
M  V30 26 1 3 24
M  V30 27 1 3 25
M  V30 28 1 4 26
M  V30 29 1 4 27
M  V30 30 1 12 28
M  V30 31 1 12 29
M  V30 32 1 15 30
M  V30 33 1 17 31
M  V30 34 1 18 32
M  V30 END BOND
M  V30 END CTAB
M  END
>  <Dataset>  (661) 
ChEMBL_Kinases

>  <Ligand_Instance>  (661) 
nan

>  <PDB_ID>  (661) 
nan

>  <Standardized_SMILES>  (661) 
CC(CN)n1c(-c2nonc2N)nc2cnccc21

>  <Name>  (661) 
nan

>  <Pocket>  (661) 
nan

>  <ATP_Site>  (661) 
nan

>  <Peripheral>  (661) 
nan

>  <Num_H_Atoms_ProtBoundConf>  (661) 
nan

>  <Num_Resolved_Atoms>  (661) 
nan

>  <Num_Not_Resolved_Atoms>  (661) 
nan

$$$$
CHEMBL188606
     RDKit          3D

  0  0  0  0  0  0  0  0  0  0999 V3000
M  V30 BEGIN CTAB
M  V30 COUNTS 43 46 0 0 0
M  V30 BEGIN ATOM
M  V30 1 N -0.621576 -4.858075 0.768937 0
M  V30 2 C 0.410084 -3.998754 0.317988 0
M  V30 3 C 1.656843 -4.556859 0.175198 0
M  V30 4 C 2.664829 -3.746615 -0.263738 0
M  V30 5 C 2.340567 -2.434138 -0.527349 0
M  V30 6 N 3.152394 -1.454035 -0.979344 0
M  V30 7 N 2.454671 -0.319509 -1.122649 0
M  V30 8 C 1.165094 -0.537440 -0.764687 0
M  V30 9 N 0.113173 0.429173 -0.826900 0
M  V30 10 C 0.411416 1.776871 -1.249624 0
M  V30 11 C 1.263451 2.538531 -0.336786 0
M  V30 12 C 2.617515 2.815436 -0.375139 0
M  V30 13 C 3.213731 3.556220 0.629521 0
M  V30 14 C 2.488974 4.041494 1.695503 0
M  V30 15 C 1.136586 3.776614 1.752457 0
M  V30 16 C 0.537034 3.037777 0.751555 0
M  V30 17 Cl -1.200240 2.849077 1.024154 0
M  V30 18 C 1.092405 -1.863368 -0.388437 0
M  V30 19 C 0.059382 -2.692345 0.063592 0
M  V30 20 O -1.207079 -2.132234 0.215076 0
M  V30 21 C -1.677850 -1.736437 1.462594 0
M  V30 22 C -1.422493 -0.627081 2.231805 0
M  V30 23 C -1.976265 -0.372795 3.462202 0
M  V30 24 C -2.863833 -1.283410 3.997595 0
M  V30 25 C -3.156625 -2.418467 3.265976 0
M  V30 26 C -2.581941 -2.648788 2.026015 0
M  V30 27 H -0.494270 -4.843213 1.825423 0
M  V30 28 H -1.384877 -5.488868 1.039934 0
M  V30 29 H 1.825301 -5.595604 0.403130 0
M  V30 30 H 3.661636 -4.137084 -0.391152 0
M  V30 31 H 4.177058 -1.550113 -1.191069 0
M  V30 32 H -0.864218 0.167014 -0.574761 0
M  V30 33 H -0.537948 2.323898 -1.440718 0
M  V30 34 H 0.943973 1.704627 -2.237574 0
M  V30 35 H 3.091745 2.395149 -1.242700 0
M  V30 36 H 4.277051 3.735936 0.537516 0
M  V30 37 H 2.997427 4.616843 2.457305 0
M  V30 38 H 0.643572 4.192844 2.619563 0
M  V30 39 H -0.725991 0.040900 1.786090 0
M  V30 40 H -1.666551 0.551553 3.934723 0
M  V30 41 H -3.244923 -0.994871 4.967097 0
M  V30 42 H -3.856532 -3.062333 3.769195 0
M  V30 43 H -2.937737 -3.576903 1.621275 0
M  V30 END ATOM
M  V30 BEGIN BOND
M  V30 1 1 1 2
M  V30 2 2 2 3
M  V30 3 1 3 4
M  V30 4 2 4 5
M  V30 5 1 5 6
M  V30 6 1 6 7
M  V30 7 2 7 8
M  V30 8 1 8 9
M  V30 9 1 9 10
M  V30 10 1 10 11
M  V30 11 2 11 12
M  V30 12 1 12 13
M  V30 13 2 13 14
M  V30 14 1 14 15
M  V30 15 2 15 16
M  V30 16 1 16 17
M  V30 17 1 8 18
M  V30 18 2 18 19
M  V30 19 1 19 20
M  V30 20 1 20 21
M  V30 21 2 21 22
M  V30 22 1 22 23
M  V30 23 2 23 24
M  V30 24 1 24 25
M  V30 25 2 25 26
M  V30 26 1 19 2
M  V30 27 1 26 21
M  V30 28 1 18 5
M  V30 29 1 16 11
M  V30 30 1 1 27
M  V30 31 1 1 28
M  V30 32 1 3 29
M  V30 33 1 4 30
M  V30 34 1 6 31
M  V30 35 1 9 32
M  V30 36 1 10 33
M  V30 37 1 10 34
M  V30 38 1 12 35
M  V30 39 1 13 36
M  V30 40 1 14 37
M  V30 41 1 15 38
M  V30 42 1 22 39
M  V30 43 1 23 40
M  V30 44 1 24 41
M  V30 45 1 25 42
M  V30 46 1 26 43
M  V30 END BOND
M  V30 END CTAB
M  END
>  <Dataset>  (662) 
ChEMBL_Kinases

>  <Ligand_Instance>  (662) 
nan

>  <PDB_ID>  (662) 
nan

>  <Standardized_SMILES>  (662) 
Nc1ccc2[nH]nc(NCc3ccccc3Cl)c2c1Oc1ccccc1

>  <Name>  (662) 
nan

>  <Pocket>  (662) 
nan

>  <ATP_Site>  (662) 
nan

>  <Peripheral>  (662) 
nan

>  <Num_H_Atoms_ProtBoundConf>  (662) 
nan

>  <Num_Resolved_Atoms>  (662) 
nan

>  <Num_Not_Resolved_Atoms>  (662) 
nan

$$$$
CHEMBL188544
     RDKit          3D

  0  0  0  0  0  0  0  0  0  0999 V3000
M  V30 BEGIN CTAB
M  V30 COUNTS 23 25 0 0 0
M  V30 BEGIN ATOM
M  V30 1 O 0.157037 -4.629176 2.646548 0
M  V30 2 C 0.887964 -3.786501 2.040821 0
M  V30 3 N 1.673714 -2.800891 2.758801 0
M  V30 4 C 1.841641 -1.552657 2.040520 0
M  V30 5 O 2.479129 -0.544794 2.422620 0
M  V30 6 C 1.193445 -1.520516 0.751902 0
M  V30 7 C 0.569067 -0.674690 0.023651 0
M  V30 8 C -0.018970 -0.836312 -1.294841 0
M  V30 9 O 0.066776 -1.909567 -1.916044 0
M  V30 10 N -0.629889 0.398348 -1.624416 0
M  V30 11 C -0.396009 1.270229 -0.496264 0
M  V30 12 C -0.873091 2.561906 -0.458636 0
M  V30 13 C -0.622903 3.304718 0.672132 0
M  V30 14 C 0.097454 2.717962 1.722024 0
M  V30 15 F 0.282038 3.542552 2.783650 0
M  V30 16 C 0.521713 1.421253 1.566843 0
M  V30 17 C 0.310360 0.642789 0.482166 0
M  V30 18 S 1.384228 -3.289180 0.344718 0
M  V30 19 H 2.123337 -2.891073 3.728048 0
M  V30 20 H -1.123329 0.540704 -2.527689 0
M  V30 21 H -1.430030 3.042043 -1.249194 0
M  V30 22 H -0.985440 4.317550 0.724386 0
M  V30 23 H 1.006405 1.152145 2.467369 0
M  V30 END ATOM
M  V30 BEGIN BOND
M  V30 1 2 1 2
M  V30 2 1 2 3
M  V30 3 1 3 4
M  V30 4 2 4 5
M  V30 5 1 4 6
M  V30 6 2 6 7
M  V30 7 1 7 8
M  V30 8 2 8 9
M  V30 9 1 8 10
M  V30 10 1 10 11
M  V30 11 2 11 12
M  V30 12 1 12 13
M  V30 13 2 13 14
M  V30 14 1 14 15
M  V30 15 1 14 16
M  V30 16 2 16 17
M  V30 17 1 6 18
M  V30 18 1 18 2
M  V30 19 1 17 7
M  V30 20 1 17 11
M  V30 21 1 3 19
M  V30 22 1 10 20
M  V30 23 1 12 21
M  V30 24 1 13 22
M  V30 25 1 16 23
M  V30 END BOND
M  V30 END CTAB
M  END
>  <Dataset>  (663) 
ChEMBL_Kinases

>  <Ligand_Instance>  (663) 
nan

>  <PDB_ID>  (663) 
nan

>  <Standardized_SMILES>  (663) 
O=C1NC(=O)/C(=C2/C(=O)Nc3ccc(F)cc32)S1

>  <Name>  (663) 
nan

>  <Pocket>  (663) 
nan

>  <ATP_Site>  (663) 
nan

>  <Peripheral>  (663) 
nan

>  <Num_H_Atoms_ProtBoundConf>  (663) 
nan

>  <Num_Resolved_Atoms>  (663) 
nan

>  <Num_Not_Resolved_Atoms>  (663) 
nan

$$$$
CHEMBL188504
     RDKit          3D

  0  0  0  0  0  0  0  0  0  0999 V3000
M  V30 BEGIN CTAB
M  V30 COUNTS 43 45 0 0 0
M  V30 BEGIN ATOM
M  V30 1 C 0.339500 -6.398998 2.069196 0
M  V30 2 O 1.228083 -5.742230 1.206251 0
M  V30 3 C 0.924715 -4.595590 0.498643 0
M  V30 4 C 1.950547 -4.122682 -0.277378 0
M  V30 5 C 1.899557 -3.001974 -1.070417 0
M  V30 6 C 0.730913 -2.269447 -1.111370 0
M  V30 7 O 0.292881 -1.205912 -1.696721 0
M  V30 8 C -0.014150 0.000049 -1.978482 0
M  V30 9 N -0.633994 0.028597 -3.195694 0
M  V30 10 C -1.057522 1.193355 -3.715210 0
M  V30 11 C -0.869719 2.370555 -3.026902 0
M  V30 12 C -0.248890 2.355838 -1.806863 0
M  V30 13 C 0.186255 1.163421 -1.269567 0
M  V30 14 C 0.814558 1.264440 0.014809 0
M  V30 15 O 0.945222 2.403891 0.587438 0
M  V30 16 N 1.414907 0.469993 1.001462 0
M  V30 17 C 1.986588 0.867721 2.245348 0
M  V30 18 C 1.035334 1.540988 3.150497 0
M  V30 19 C -0.273156 1.142259 2.940085 0
M  V30 20 C -1.296985 1.701123 3.707129 0
M  V30 21 C -0.946809 2.628699 4.642559 0
M  V30 22 C 0.343243 3.042015 4.868806 0
M  V30 23 C 1.383752 2.503329 4.120360 0
M  V30 24 Cl 3.097890 2.901276 4.263232 0
M  V30 25 C -0.342314 -2.738959 -0.320184 0
M  V30 26 C -0.267084 -3.890525 0.487097 0
M  V30 27 H 0.535968 -7.504205 2.020027 0
M  V30 28 H 0.544479 -6.079884 3.122676 0
M  V30 29 H -0.715931 -6.188587 1.791134 0
M  V30 30 H 2.919356 -4.601495 -0.335825 0
M  V30 31 H 2.634445 -2.541885 -1.712224 0
M  V30 32 H -1.569026 1.334617 -4.675680 0
M  V30 33 H -1.204221 3.328779 -3.422705 0
M  V30 34 H -0.121803 3.313073 -1.306476 0
M  V30 35 H 1.402208 -0.525428 0.705920 0
M  V30 36 H 2.376957 -0.025398 2.759828 0
M  V30 37 H 2.896934 1.516629 2.066754 0
M  V30 38 H -0.579125 0.414930 2.215562 0
M  V30 39 H -2.321831 1.387163 3.530970 0
M  V30 40 H -1.724625 3.062047 5.245938 0
M  V30 41 H 0.671538 3.783620 5.604539 0
M  V30 42 H -1.351356 -2.352840 -0.176999 0
M  V30 43 H -1.042321 -4.311752 1.121227 0
M  V30 END ATOM
M  V30 BEGIN BOND
M  V30 1 1 1 2
M  V30 2 1 2 3
M  V30 3 2 3 4
M  V30 4 1 4 5
M  V30 5 2 5 6
M  V30 6 1 6 7
M  V30 7 1 7 8
M  V30 8 2 8 9
M  V30 9 1 9 10
M  V30 10 2 10 11
M  V30 11 1 11 12
M  V30 12 2 12 13
M  V30 13 1 13 14
M  V30 14 2 14 15
M  V30 15 1 14 16
M  V30 16 1 16 17
M  V30 17 1 17 18
M  V30 18 2 18 19
M  V30 19 1 19 20
M  V30 20 2 20 21
M  V30 21 1 21 22
M  V30 22 2 22 23
M  V30 23 1 23 24
M  V30 24 1 6 25
M  V30 25 2 25 26
M  V30 26 1 26 3
M  V30 27 1 13 8
M  V30 28 1 23 18
M  V30 29 1 1 27
M  V30 30 1 1 28
M  V30 31 1 1 29
M  V30 32 1 4 30
M  V30 33 1 5 31
M  V30 34 1 10 32
M  V30 35 1 11 33
M  V30 36 1 12 34
M  V30 37 1 16 35
M  V30 38 1 17 36
M  V30 39 1 17 37
M  V30 40 1 19 38
M  V30 41 1 20 39
M  V30 42 1 21 40
M  V30 43 1 22 41
M  V30 44 1 25 42
M  V30 45 1 26 43
M  V30 END BOND
M  V30 END CTAB
M  END
>  <Dataset>  (664) 
ChEMBL_Kinases

>  <Ligand_Instance>  (664) 
nan

>  <PDB_ID>  (664) 
nan

>  <Standardized_SMILES>  (664) 
COc1ccc(Oc2ncccc2C(=O)NCc2ccccc2Cl)cc1

>  <Name>  (664) 
nan

>  <Pocket>  (664) 
nan

>  <ATP_Site>  (664) 
nan

>  <Peripheral>  (664) 
nan

>  <Num_H_Atoms_ProtBoundConf>  (664) 
nan

>  <Num_Resolved_Atoms>  (664) 
nan

>  <Num_Not_Resolved_Atoms>  (664) 
nan

$$$$
CHEMBL188499
     RDKit          3D

  0  0  0  0  0  0  0  0  0  0999 V3000
M  V30 BEGIN CTAB
M  V30 COUNTS 39 42 0 0 0
M  V30 BEGIN ATOM
M  V30 1 N 3.831420 1.049911 4.513170 0
M  V30 2 C 3.135409 0.757894 3.611375 0
M  V30 3 C 2.280376 0.401066 2.489750 0
M  V30 4 C 2.500200 -0.748255 1.871654 0
M  V30 5 N 1.793314 -1.286819 0.763902 0
M  V30 6 C 2.244929 -2.519688 0.302543 0
M  V30 7 C 1.804710 -3.317916 -0.740532 0
M  V30 8 C 2.416715 -4.518105 -1.024412 0
M  V30 9 C 3.481571 -5.020107 -0.327895 0
M  V30 10 C 3.937766 -4.244157 0.714853 0
M  V30 11 C 3.335349 -3.064069 0.993651 0
M  V30 12 S 3.788750 -1.909604 2.320187 0
M  V30 13 C 1.214869 1.308643 2.098637 0
M  V30 14 C 1.344815 2.688877 2.061062 0
M  V30 15 C 0.325000 3.549689 1.694529 0
M  V30 16 N -0.859783 2.970784 1.358681 0
M  V30 17 C -0.981493 1.635167 1.396621 0
M  V30 18 N -2.202961 0.999739 1.053413 0
M  V30 19 C -3.416590 1.642217 0.579078 0
M  V30 20 C -3.605927 1.100337 -0.844401 0
M  V30 21 O -3.715373 -0.271449 -0.883210 0
M  V30 22 C -2.702269 -0.948939 -0.253239 0
M  V30 23 C -2.402530 -0.434897 1.145268 0
M  V30 24 N 0.032136 0.836454 1.757458 0
M  V30 25 H 0.989331 -0.776385 0.334178 0
M  V30 26 H 0.976375 -3.023808 -1.354508 0
M  V30 27 H 2.030411 -5.115972 -1.863271 0
M  V30 28 H 3.930693 -5.957169 -0.578784 0
M  V30 29 H 4.773984 -4.619910 1.276986 0
M  V30 30 H 2.327224 3.100153 2.343450 0
M  V30 31 H 0.481943 4.626000 1.681897 0
M  V30 32 H -3.276779 2.740090 0.477045 0
M  V30 33 H -4.304421 1.389953 1.200367 0
M  V30 34 H -2.756037 1.494829 -1.433437 0
M  V30 35 H -4.524206 1.525333 -1.290584 0
M  V30 36 H -3.055293 -2.009134 -0.097757 0
M  V30 37 H -1.774288 -1.068957 -0.871318 0
M  V30 38 H -1.498287 -0.927455 1.517190 0
M  V30 39 H -3.314089 -0.675147 1.752518 0
M  V30 END ATOM
M  V30 BEGIN BOND
M  V30 1 3 1 2
M  V30 2 1 2 3
M  V30 3 2 3 4
M  V30 4 1 4 5
M  V30 5 1 5 6
M  V30 6 2 6 7
M  V30 7 1 7 8
M  V30 8 2 8 9
M  V30 9 1 9 10
M  V30 10 2 10 11
M  V30 11 1 11 12
M  V30 12 1 3 13
M  V30 13 2 13 14
M  V30 14 1 14 15
M  V30 15 2 15 16
M  V30 16 1 16 17
M  V30 17 1 17 18
M  V30 18 1 18 19
M  V30 19 1 19 20
M  V30 20 1 20 21
M  V30 21 1 21 22
M  V30 22 1 22 23
M  V30 23 2 17 24
M  V30 24 1 12 4
M  V30 25 1 24 13
M  V30 26 1 11 6
M  V30 27 1 23 18
M  V30 28 1 5 25
M  V30 29 1 7 26
M  V30 30 1 8 27
M  V30 31 1 9 28
M  V30 32 1 10 29
M  V30 33 1 14 30
M  V30 34 1 15 31
M  V30 35 1 19 32
M  V30 36 1 19 33
M  V30 37 1 20 34
M  V30 38 1 20 35
M  V30 39 1 22 36
M  V30 40 1 22 37
M  V30 41 1 23 38
M  V30 42 1 23 39
M  V30 END BOND
M  V30 END CTAB
M  END
>  <Dataset>  (665) 
ChEMBL_Kinases

>  <Ligand_Instance>  (665) 
nan

>  <PDB_ID>  (665) 
nan

>  <Standardized_SMILES>  (665) 
N#C/C(=C1/Nc2ccccc2S1)c1ccnc(N2CCOCC2)n1

>  <Name>  (665) 
nan

>  <Pocket>  (665) 
nan

>  <ATP_Site>  (665) 
nan

>  <Peripheral>  (665) 
nan

>  <Num_H_Atoms_ProtBoundConf>  (665) 
nan

>  <Num_Resolved_Atoms>  (665) 
nan

>  <Num_Not_Resolved_Atoms>  (665) 
nan

$$$$
CHEMBL188457
     RDKit          3D

  0  0  0  0  0  0  0  0  0  0999 V3000
M  V30 BEGIN CTAB
M  V30 COUNTS 35 37 0 0 0
M  V30 BEGIN ATOM
M  V30 1 C 0.953517 -3.640610 3.004062 0
M  V30 2 C 0.723551 -3.491869 1.557778 0
M  V30 3 C -0.022831 -2.325450 1.057497 0
M  V30 4 C 0.532932 -0.980610 1.346489 0
M  V30 5 N 0.666836 -0.677530 2.756460 0
M  V30 6 N -0.042901 0.084401 0.567326 0
M  V30 7 C 0.308253 0.561860 -0.642052 0
M  V30 8 C 1.413349 0.060519 -1.452603 0
M  V30 9 N 2.310440 -0.902255 -1.279766 0
M  V30 10 O 3.113087 -0.978598 -2.298692 0
M  V30 11 N 2.790272 -0.074626 -3.194297 0
M  V30 12 C 1.721185 0.601987 -2.696561 0
M  V30 13 N 1.133650 1.658893 -3.447070 0
M  V30 14 N -0.493620 1.551596 -0.989616 0
M  V30 15 C -1.402754 1.750063 -0.002985 0
M  V30 16 C -2.457673 2.613732 0.195096 0
M  V30 17 N -3.207717 2.573987 1.313238 0
M  V30 18 C -2.933837 1.663261 2.287986 0
M  V30 19 C -1.883584 0.782118 2.122615 0
M  V30 20 C -1.104549 0.808575 0.983413 0
M  V30 21 H 1.988056 -3.287963 3.294244 0
M  V30 22 H 1.003751 -4.724631 3.252650 0
M  V30 23 H 0.227309 -3.203602 3.699262 0
M  V30 24 H 0.148740 -4.398070 1.196473 0
M  V30 25 H 1.710333 -3.619437 1.061858 0
M  V30 26 H -1.099586 -2.334573 1.331814 0
M  V30 27 H -0.085934 -2.471962 -0.046286 0
M  V30 28 H 1.604732 -1.012037 0.990750 0
M  V30 29 H 1.600086 -0.924462 3.156195 0
M  V30 30 H 0.673501 0.387465 2.792815 0
M  V30 31 H 0.143486 1.551042 -3.765770 0
M  V30 32 H 1.753646 2.488529 -3.629217 0
M  V30 33 H -2.639842 3.316855 -0.598783 0
M  V30 34 H -3.547119 1.635584 3.195030 0
M  V30 35 H -1.704602 0.086364 2.909935 0
M  V30 END ATOM
M  V30 BEGIN BOND
M  V30 1 1 1 2
M  V30 2 1 2 3
M  V30 3 1 3 4
M  V30 4 1 4 5
M  V30 5 1 4 6
M  V30 6 1 6 7
M  V30 7 1 7 8
M  V30 8 2 8 9
M  V30 9 1 9 10
M  V30 10 1 10 11
M  V30 11 2 11 12
M  V30 12 1 12 13
M  V30 13 2 7 14
M  V30 14 1 14 15
M  V30 15 2 15 16
M  V30 16 1 16 17
M  V30 17 2 17 18
M  V30 18 1 18 19
M  V30 19 2 19 20
M  V30 20 1 20 6
M  V30 21 1 12 8
M  V30 22 1 20 15
M  V30 23 1 1 21
M  V30 24 1 1 22
M  V30 25 1 1 23
M  V30 26 1 2 24
M  V30 27 1 2 25
M  V30 28 1 3 26
M  V30 29 1 3 27
M  V30 30 1 4 28
M  V30 31 1 5 29
M  V30 32 1 5 30
M  V30 33 1 13 31
M  V30 34 1 13 32
M  V30 35 1 16 33
M  V30 36 1 18 34
M  V30 37 1 19 35
M  V30 END BOND
M  V30 END CTAB
M  END
>  <Dataset>  (666) 
ChEMBL_Kinases

>  <Ligand_Instance>  (666) 
nan

>  <PDB_ID>  (666) 
nan

>  <Standardized_SMILES>  (666) 
CCCC(N)n1c(-c2nonc2N)nc2cnccc21

>  <Name>  (666) 
nan

>  <Pocket>  (666) 
nan

>  <ATP_Site>  (666) 
nan

>  <Peripheral>  (666) 
nan

>  <Num_H_Atoms_ProtBoundConf>  (666) 
nan

>  <Num_Resolved_Atoms>  (666) 
nan

>  <Num_Not_Resolved_Atoms>  (666) 
nan

$$$$
CHEMBL188433
     RDKit          3D

  0  0  0  0  0  0  0  0  0  0999 V3000
M  V30 BEGIN CTAB
M  V30 COUNTS 31 34 0 0 0
M  V30 BEGIN ATOM
M  V30 1 N -0.116439 -2.133814 3.260133 0
M  V30 2 C 0.835947 -1.192050 3.679613 0
M  V30 3 N 1.321645 -1.174923 4.948896 0
M  V30 4 O 2.164781 -0.182406 4.959921 0
M  V30 5 N 2.227124 0.390815 3.822568 0
M  V30 6 C 1.404502 -0.194844 2.940288 0
M  V30 7 C 1.278869 0.256482 1.571230 0
M  V30 8 N 1.956201 1.288861 1.046943 0
M  V30 9 C 1.660895 1.501503 -0.238048 0
M  V30 10 C 2.154440 2.463478 -1.098994 0
M  V30 11 N 1.674778 2.451704 -2.370502 0
M  V30 12 C 0.761840 1.545246 -2.771610 0
M  V30 13 C 0.290534 0.597042 -1.881905 0
M  V30 14 C 0.728442 0.547499 -0.583382 0
M  V30 15 N 0.546470 -0.158902 0.537252 0
M  V30 16 C -0.383539 -1.224037 0.449404 0
M  V30 17 C 0.128689 -2.469181 0.059187 0
M  V30 18 C -0.779368 -3.496140 -0.049084 0
M  V30 19 C -2.124932 -3.258219 0.225754 0
M  V30 20 C -2.602806 -2.017348 0.609404 0
M  V30 21 C -1.729350 -0.949144 0.733427 0
M  V30 22 H -1.068784 -1.765276 3.431905 0
M  V30 23 H -0.359244 -3.047139 2.850306 0
M  V30 24 H 2.886781 3.173803 -0.738838 0
M  V30 25 H 0.391372 1.559421 -3.806834 0
M  V30 26 H -0.445492 -0.151334 -2.165113 0
M  V30 27 H 1.177187 -2.571805 -0.134489 0
M  V30 28 H -0.401486 -4.458704 -0.347848 0
M  V30 29 H -2.800766 -4.090573 0.128358 0
M  V30 30 H -3.640817 -1.825918 0.823387 0
M  V30 31 H -1.982838 0.061591 1.024135 0
M  V30 END ATOM
M  V30 BEGIN BOND
M  V30 1 1 1 2
M  V30 2 2 2 3
M  V30 3 1 3 4
M  V30 4 1 4 5
M  V30 5 2 5 6
M  V30 6 1 6 7
M  V30 7 2 7 8
M  V30 8 1 8 9
M  V30 9 2 9 10
M  V30 10 1 10 11
M  V30 11 2 11 12
M  V30 12 1 12 13
M  V30 13 2 13 14
M  V30 14 1 14 15
M  V30 15 1 15 16
M  V30 16 2 16 17
M  V30 17 1 17 18
M  V30 18 2 18 19
M  V30 19 1 19 20
M  V30 20 2 20 21
M  V30 21 1 6 2
M  V30 22 1 15 7
M  V30 23 1 21 16
M  V30 24 1 14 9
M  V30 25 1 1 22
M  V30 26 1 1 23
M  V30 27 1 10 24
M  V30 28 1 12 25
M  V30 29 1 13 26
M  V30 30 1 17 27
M  V30 31 1 18 28
M  V30 32 1 19 29
M  V30 33 1 20 30
M  V30 34 1 21 31
M  V30 END BOND
M  V30 END CTAB
M  END
>  <Dataset>  (667) 
ChEMBL_Kinases

>  <Ligand_Instance>  (667) 
nan

>  <PDB_ID>  (667) 
nan

>  <Standardized_SMILES>  (667) 
Nc1nonc1-c1nc2cnccc2n1-c1ccccc1

>  <Name>  (667) 
nan

>  <Pocket>  (667) 
nan

>  <ATP_Site>  (667) 
nan

>  <Peripheral>  (667) 
nan

>  <Num_H_Atoms_ProtBoundConf>  (667) 
nan

>  <Num_Resolved_Atoms>  (667) 
nan

>  <Num_Not_Resolved_Atoms>  (667) 
nan

$$$$
CHEMBL188426
     RDKit          3D

  0  0  0  0  0  0  0  0  0  0999 V3000
M  V30 BEGIN CTAB
M  V30 COUNTS 48 51 0 0 0
M  V30 BEGIN ATOM
M  V30 1 C 1.857196 -6.451463 3.413686 0
M  V30 2 C 2.616972 -5.152404 3.626952 0
M  V30 3 O 2.489959 -4.226217 2.711839 0
M  V30 4 C 2.390525 -3.366358 1.777123 0
M  V30 5 C 1.907779 -2.097377 1.936567 0
M  V30 6 C 1.760692 -1.104470 0.995402 0
M  V30 7 C 2.188827 -1.544009 -0.256910 0
M  V30 8 C 2.229907 -0.885035 -1.494614 0
M  V30 9 C 1.776776 0.519209 -1.683782 0
M  V30 10 C 1.902603 1.031853 -2.953837 0
M  V30 11 C 1.438485 2.328484 -3.014743 0
M  V30 12 N 0.910090 3.086626 -2.018319 0
M  V30 13 C 0.826135 2.503715 -0.810479 0
M  V30 14 N 0.342982 2.871704 0.503220 0
M  V30 15 C -0.948070 2.334883 0.764739 0
M  V30 16 C -1.712522 1.657810 -0.165528 0
M  V30 17 C -2.963474 1.147053 0.198330 0
M  V30 18 O -3.585583 0.502410 -0.854529 0
M  V30 19 C -4.855437 -0.071759 -0.638857 0
M  V30 20 C -3.484710 1.296287 1.492974 0
M  V30 21 C -2.683832 1.978721 2.382614 0
M  V30 22 C -3.322562 2.070210 3.729665 0
M  V30 23 F -3.864653 0.838975 4.080273 0
M  V30 24 F -2.399519 2.455333 4.679641 0
M  V30 25 F -4.371952 2.971038 3.638522 0
M  V30 26 C -1.463204 2.482688 2.044090 0
M  V30 27 N 1.262055 1.220697 -0.651407 0
M  V30 28 C 2.744550 -1.759343 -2.421017 0
M  V30 29 N 3.004454 -2.906385 -1.765090 0
M  V30 30 N 2.673304 -2.780042 -0.470127 0
M  V30 31 N 2.779318 -3.678910 0.502140 0
M  V30 32 H 0.904080 -6.403589 3.976775 0
M  V30 33 H 2.462100 -7.282532 3.820729 0
M  V30 34 H 1.673759 -6.614305 2.317594 0
M  V30 35 H 2.307138 -4.809201 4.658393 0
M  V30 36 H 3.708557 -5.441357 3.783195 0
M  V30 37 H 1.600264 -1.836461 2.946938 0
M  V30 38 H 1.370142 -0.133795 1.225877 0
M  V30 39 H 2.293785 0.555369 -3.820934 0
M  V30 40 H 1.461266 2.910983 -3.953776 0
M  V30 41 H 0.833111 3.456311 1.208314 0
M  V30 42 H -1.297133 1.554623 -1.154986 0
M  V30 43 H -4.759385 -1.058900 -0.102443 0
M  V30 44 H -5.489256 0.602591 -0.056422 0
M  V30 45 H -5.314331 -0.256394 -1.644970 0
M  V30 46 H -4.457182 0.865374 1.674596 0
M  V30 47 H -0.904769 3.005023 2.806492 0
M  V30 48 H 2.904787 -1.554879 -3.469185 0
M  V30 END ATOM
M  V30 BEGIN BOND
M  V30 1 1 1 2
M  V30 2 1 2 3
M  V30 3 1 3 4
M  V30 4 1 4 5
M  V30 5 2 5 6
M  V30 6 1 6 7
M  V30 7 2 7 8
M  V30 8 1 8 9
M  V30 9 2 9 10
M  V30 10 1 10 11
M  V30 11 2 11 12
M  V30 12 1 12 13
M  V30 13 1 13 14
M  V30 14 1 14 15
M  V30 15 2 15 16
M  V30 16 1 16 17
M  V30 17 1 17 18
M  V30 18 1 18 19
M  V30 19 2 17 20
M  V30 20 1 20 21
M  V30 21 1 21 22
M  V30 22 1 22 23
M  V30 23 1 22 24
M  V30 24 1 22 25
M  V30 25 2 21 26
M  V30 26 2 13 27
M  V30 27 1 8 28
M  V30 28 2 28 29
M  V30 29 1 29 30
M  V30 30 1 30 31
M  V30 31 2 31 4
M  V30 32 1 30 7
M  V30 33 1 27 9
M  V30 34 1 26 15
M  V30 35 1 1 32
M  V30 36 1 1 33
M  V30 37 1 1 34
M  V30 38 1 2 35
M  V30 39 1 2 36
M  V30 40 1 5 37
M  V30 41 1 6 38
M  V30 42 1 10 39
M  V30 43 1 11 40
M  V30 44 1 14 41
M  V30 45 1 16 42
M  V30 46 1 19 43
M  V30 47 1 19 44
M  V30 48 1 19 45
M  V30 49 1 20 46
M  V30 50 1 26 47
M  V30 51 1 28 48
M  V30 END BOND
M  V30 END CTAB
M  END
>  <Dataset>  (668) 
ChEMBL_Kinases

>  <Ligand_Instance>  (668) 
nan

>  <PDB_ID>  (668) 
nan

>  <Standardized_SMILES>  (668) 
CCOc1ccc2c(-c3ccnc(Nc4cc(OC)cc(C(F)(F)F)c4)n3)cnn2n1

>  <Name>  (668) 
GW807982X

>  <Pocket>  (668) 
nan

>  <ATP_Site>  (668) 
nan

>  <Peripheral>  (668) 
nan

>  <Num_H_Atoms_ProtBoundConf>  (668) 
nan

>  <Num_Resolved_Atoms>  (668) 
nan

>  <Num_Not_Resolved_Atoms>  (668) 
nan

$$$$
CHEMBL188381
     RDKit          3D

  0  0  0  0  0  0  0  0  0  0999 V3000
M  V30 BEGIN CTAB
M  V30 COUNTS 62 65 0 0 0
M  V30 BEGIN ATOM
M  V30 1 C 1.003108 -4.635036 3.023671 0
M  V30 2 N 0.394003 -4.464976 1.714510 0
M  V30 3 C -0.742946 -3.607098 1.613791 0
M  V30 4 C -1.203072 -2.985388 2.756955 0
M  V30 5 C -2.306228 -2.134283 2.738356 0
M  V30 6 C -2.912604 -1.949060 1.508441 0
M  V30 7 N -4.043779 -1.075749 1.488510 0
M  V30 8 C -3.675381 0.281565 1.239229 0
M  V30 9 O -2.451250 0.527620 1.074875 0
M  V30 10 N -4.602227 1.355946 1.167323 0
M  V30 11 C -4.195473 2.701615 0.915134 0
M  V30 12 C -4.166169 3.038419 -0.440953 0
M  V30 13 C -3.794950 4.303225 -0.874269 0
M  V30 14 C -3.443741 5.254736 0.083276 0
M  V30 15 O -3.076665 6.512184 -0.382226 0
M  V30 16 C -4.119988 7.462653 -0.525964 0
M  V30 17 F -4.767114 7.719136 0.678260 0
M  V30 18 F -5.078385 6.956151 -1.409822 0
M  V30 19 F -3.660456 8.641371 -1.079661 0
M  V30 20 C -3.472014 4.923794 1.424948 0
M  V30 21 C -3.842663 3.663987 1.840445 0
M  V30 22 C -2.471219 -2.559521 0.351361 0
M  V30 23 C -1.370483 -3.402478 0.397124 0
M  V30 24 C 0.909522 -5.128310 0.564458 0
M  V30 25 C 0.565164 -6.357553 0.087666 0
M  V30 26 C 1.188564 -6.816476 -1.048687 0
M  V30 27 N 2.106463 -6.058960 -1.654233 0
M  V30 28 C 2.473125 -4.843611 -1.216173 0
M  V30 29 N 3.457479 -4.103725 -1.919410 0
M  V30 30 C 3.983903 -2.820244 -1.634056 0
M  V30 31 C 4.948529 -2.241964 -2.427098 0
M  V30 32 C 5.480061 -1.011564 -2.187944 0
M  V30 33 C 5.072759 -0.267632 -1.120317 0
M  V30 34 C 4.100054 -0.782882 -0.270208 0
M  V30 35 S 3.555354 0.145298 1.108030 0
M  V30 36 N 4.466960 -0.154884 2.523353 0
M  V30 37 O 2.106055 -0.166036 1.380715 0
M  V30 38 O 3.622544 1.628168 0.787837 0
M  V30 39 C 3.607536 -2.032810 -0.573265 0
M  V30 40 N 1.840186 -4.446130 -0.113551 0
M  V30 41 H 1.822201 -5.387362 2.932780 0
M  V30 42 H 0.272244 -4.898714 3.803322 0
M  V30 43 H 1.511469 -3.674144 3.258848 0
M  V30 44 H -0.735053 -3.124307 3.722653 0
M  V30 45 H -2.665698 -1.651980 3.617173 0
M  V30 46 H -5.062325 -1.292137 1.626789 0
M  V30 47 H -5.597095 1.064527 1.315952 0
M  V30 48 H -4.431516 2.331095 -1.227685 0
M  V30 49 H -3.780880 4.537676 -1.930672 0
M  V30 50 H -3.200774 5.659036 2.163721 0
M  V30 51 H -3.887235 3.338205 2.860516 0
M  V30 52 H -2.965749 -2.396608 -0.600501 0
M  V30 53 H -0.962869 -3.916514 -0.457421 0
M  V30 54 H -0.190710 -6.892079 0.652858 0
M  V30 55 H 0.918253 -7.790031 -1.429595 0
M  V30 56 H 3.864651 -4.568186 -2.785265 0
M  V30 57 H 5.323415 -2.785593 -3.305049 0
M  V30 58 H 6.238832 -0.610882 -2.852560 0
M  V30 59 H 5.486675 0.706656 -0.922172 0
M  V30 60 H 4.676374 0.675080 3.095148 0
M  V30 61 H 5.220727 -0.842084 2.432109 0
M  V30 62 H 2.859318 -2.373392 0.122326 0
M  V30 END ATOM
M  V30 BEGIN BOND
M  V30 1 1 1 2
M  V30 2 1 2 3
M  V30 3 2 3 4
M  V30 4 1 4 5
M  V30 5 2 5 6
M  V30 6 1 6 7
M  V30 7 1 7 8
M  V30 8 2 8 9
M  V30 9 1 8 10
M  V30 10 1 10 11
M  V30 11 2 11 12
M  V30 12 1 12 13
M  V30 13 2 13 14
M  V30 14 1 14 15
M  V30 15 1 15 16
M  V30 16 1 16 17
M  V30 17 1 16 18
M  V30 18 1 16 19
M  V30 19 1 14 20
M  V30 20 2 20 21
M  V30 21 1 6 22
M  V30 22 2 22 23
M  V30 23 1 2 24
M  V30 24 2 24 25
M  V30 25 1 25 26
M  V30 26 2 26 27
M  V30 27 1 27 28
M  V30 28 1 28 29
M  V30 29 1 29 30
M  V30 30 2 30 31
M  V30 31 1 31 32
M  V30 32 2 32 33
M  V30 33 1 33 34
M  V30 34 1 34 35
M  V30 35 1 35 36
M  V30 36 2 35 37
M  V30 37 2 35 38
M  V30 38 2 34 39
M  V30 39 2 28 40
M  V30 40 1 23 3
M  V30 41 1 40 24
M  V30 42 1 21 11
M  V30 43 1 39 30
M  V30 44 1 1 41
M  V30 45 1 1 42
M  V30 46 1 1 43
M  V30 47 1 4 44
M  V30 48 1 5 45
M  V30 49 1 7 46
M  V30 50 1 10 47
M  V30 51 1 12 48
M  V30 52 1 13 49
M  V30 53 1 20 50
M  V30 54 1 21 51
M  V30 55 1 22 52
M  V30 56 1 23 53
M  V30 57 1 25 54
M  V30 58 1 26 55
M  V30 59 1 29 56
M  V30 60 1 31 57
M  V30 61 1 32 58
M  V30 62 1 33 59
M  V30 63 1 36 60
M  V30 64 1 36 61
M  V30 65 1 39 62
M  V30 END BOND
M  V30 END CTAB
M  END
>  <Dataset>  (669) 
ChEMBL_Kinases

>  <Ligand_Instance>  (669) 
nan

>  <PDB_ID>  (669) 
nan

>  <Standardized_SMILES>  (669) 
CN(c1ccc(NC(=O)Nc2ccc(OC(F)(F)F)cc2)cc1)c1ccnc(Nc2cccc(S(N)(=O)=O)c2)n1

>  <Name>  (669) 
GW806742X

>  <Pocket>  (669) 
nan

>  <ATP_Site>  (669) 
nan

>  <Peripheral>  (669) 
nan

>  <Num_H_Atoms_ProtBoundConf>  (669) 
nan

>  <Num_Resolved_Atoms>  (669) 
nan

>  <Num_Not_Resolved_Atoms>  (669) 
nan

$$$$
CHEMBL188313
     RDKit          3D

  0  0  0  0  0  0  0  0  0  0999 V3000
M  V30 BEGIN CTAB
M  V30 COUNTS 41 44 0 0 0
M  V30 BEGIN ATOM
M  V30 1 Cl -0.232947 -4.451065 3.972149 0
M  V30 2 C 0.764850 -4.310072 2.552257 0
M  V30 3 C 1.233861 -5.451878 1.929568 0
M  V30 4 C 2.027489 -5.294227 0.807445 0
M  V30 5 C 2.312327 -4.010407 0.364432 0
M  V30 6 C 1.839960 -2.869240 0.991570 0
M  V30 7 C 2.218619 -1.550742 0.437948 0
M  V30 8 N 1.246232 -1.154926 -0.561330 0
M  V30 9 C 1.744719 0.126069 -1.005373 0
M  V30 10 N 2.817073 0.280539 -1.840915 0
M  V30 11 N 3.028451 1.594412 -2.055310 0
M  V30 12 C 2.077541 2.267302 -1.344550 0
M  V30 13 C 1.918381 3.631192 -1.269861 0
M  V30 14 C 0.887013 4.082625 -0.489597 0
M  V30 15 C 0.042733 3.211827 0.191560 0
M  V30 16 C 0.201152 1.850392 0.118231 0
M  V30 17 O -0.507740 0.884448 0.693051 0
M  V30 18 C -1.568405 0.795841 1.527409 0
M  V30 19 C -1.920400 -0.565014 1.425719 0
M  V30 20 C -3.008861 -1.067528 2.165680 0
M  V30 21 C -3.725627 -0.227059 2.983897 0
M  V30 22 C -3.397999 1.103775 3.096282 0
M  V30 23 C -2.333397 1.564931 2.365539 0
M  V30 24 C 1.241456 1.373257 -0.665265 0
M  V30 25 C 1.047340 -3.021007 2.111623 0
M  V30 26 H 1.016008 -6.450567 2.266742 0
M  V30 27 H 2.429395 -6.158826 0.270729 0
M  V30 28 H 2.936920 -3.943579 -0.514338 0
M  V30 29 H 3.238810 -1.632941 -0.011606 0
M  V30 30 H 2.326748 -0.860506 1.276928 0
M  V30 31 H 0.389347 -1.703008 -0.865557 0
M  V30 32 H 3.370449 -0.527847 -2.236276 0
M  V30 33 H 2.568772 4.310947 -1.799101 0
M  V30 34 H 0.740601 5.154706 -0.415436 0
M  V30 35 H -0.723466 3.653869 0.765361 0
M  V30 36 H -1.541814 -1.427105 0.872339 0
M  V30 37 H -3.413250 -2.076479 2.204539 0
M  V30 38 H -4.578931 -0.515592 3.594905 0
M  V30 39 H -3.890765 1.842547 3.706231 0
M  V30 40 H -1.967158 2.569200 2.362304 0
M  V30 41 H 0.697349 -2.124315 2.575163 0
M  V30 END ATOM
M  V30 BEGIN BOND
M  V30 1 1 1 2
M  V30 2 2 2 3
M  V30 3 1 3 4
M  V30 4 2 4 5
M  V30 5 1 5 6
M  V30 6 1 6 7
M  V30 7 1 7 8
M  V30 8 1 8 9
M  V30 9 1 9 10
M  V30 10 1 10 11
M  V30 11 2 11 12
M  V30 12 1 12 13
M  V30 13 2 13 14
M  V30 14 1 14 15
M  V30 15 2 15 16
M  V30 16 1 16 17
M  V30 17 1 17 18
M  V30 18 2 18 19
M  V30 19 1 19 20
M  V30 20 2 20 21
M  V30 21 1 21 22
M  V30 22 2 22 23
M  V30 23 1 16 24
M  V30 24 2 6 25
M  V30 25 1 25 2
M  V30 26 2 24 9
M  V30 27 1 24 12
M  V30 28 1 23 18
M  V30 29 1 3 26
M  V30 30 1 4 27
M  V30 31 1 5 28
M  V30 32 1 7 29
M  V30 33 1 7 30
M  V30 34 1 8 31
M  V30 35 1 10 32
M  V30 36 1 13 33
M  V30 37 1 14 34
M  V30 38 1 15 35
M  V30 39 1 19 36
M  V30 40 1 20 37
M  V30 41 1 21 38
M  V30 42 1 22 39
M  V30 43 1 23 40
M  V30 44 1 25 41
M  V30 END BOND
M  V30 END CTAB
M  END
>  <Dataset>  (670) 
ChEMBL_Kinases

>  <Ligand_Instance>  (670) 
nan

>  <PDB_ID>  (670) 
nan

>  <Standardized_SMILES>  (670) 
Clc1cccc(CNc2[nH]nc3cccc(Oc4ccccc4)c23)c1

>  <Name>  (670) 
nan

>  <Pocket>  (670) 
nan

>  <ATP_Site>  (670) 
nan

>  <Peripheral>  (670) 
nan

>  <Num_H_Atoms_ProtBoundConf>  (670) 
nan

>  <Num_Resolved_Atoms>  (670) 
nan

>  <Num_Not_Resolved_Atoms>  (670) 
nan

$$$$
CHEMBL188268
     RDKit          3D

  0  0  0  0  0  0  0  0  0  0999 V3000
M  V30 BEGIN CTAB
M  V30 COUNTS 36 39 0 0 0
M  V30 BEGIN ATOM
M  V30 1 N 1.253984 -5.641625 1.918888 0
M  V30 2 C 2.230532 -4.639600 1.468105 0
M  V30 3 C 1.560709 -3.342520 1.198246 0
M  V30 4 C 1.391256 -2.354320 2.149528 0
M  V30 5 C 0.758981 -1.165388 1.840212 0
M  V30 6 C 0.293113 -0.977330 0.549697 0
M  V30 7 N -0.345570 0.273005 0.313716 0
M  V30 8 C 0.158298 1.414655 -0.188500 0
M  V30 9 C 1.538816 1.609339 -0.615659 0
M  V30 10 N 2.565850 0.740910 -0.605637 0
M  V30 11 O 3.648332 1.319167 -1.078222 0
M  V30 12 N 3.372299 2.558809 -1.406416 0
M  V30 13 C 2.062729 2.775303 -1.131024 0
M  V30 14 N 1.360921 4.008443 -1.344824 0
M  V30 15 N -0.775240 2.381246 -0.254891 0
M  V30 16 C -1.932971 1.863840 0.217886 0
M  V30 17 C -3.175339 2.441633 0.358735 0
M  V30 18 N -4.161888 1.680949 0.865068 0
M  V30 19 C -3.958310 0.385547 1.230400 0
M  V30 20 C -2.698259 -0.176682 1.079849 0
M  V30 21 C -1.637683 0.562679 0.560883 0
M  V30 22 C 0.430930 -1.925584 -0.447271 0
M  V30 23 C 1.078499 -3.107324 -0.074937 0
M  V30 24 H 0.583740 -5.231246 2.613134 0
M  V30 25 H 1.792737 -6.438501 2.321531 0
M  V30 26 H 2.636768 -5.051200 0.520010 0
M  V30 27 H 3.043181 -4.576226 2.190037 0
M  V30 28 H 1.765236 -2.527171 3.151764 0
M  V30 29 H 0.640352 -0.408352 2.607026 0
M  V30 30 H 0.686601 4.069056 -2.161946 0
M  V30 31 H 1.373549 4.934732 -0.824901 0
M  V30 32 H -3.304167 3.467061 0.061052 0
M  V30 33 H -4.767292 -0.220894 1.640016 0
M  V30 34 H -2.509697 -1.214469 1.365796 0
M  V30 35 H 0.057962 -1.749313 -1.440715 0
M  V30 36 H 1.194708 -3.865499 -0.851652 0
M  V30 END ATOM
M  V30 BEGIN BOND
M  V30 1 1 1 2
M  V30 2 1 2 3
M  V30 3 2 3 4
M  V30 4 1 4 5
M  V30 5 2 5 6
M  V30 6 1 6 7
M  V30 7 1 7 8
M  V30 8 1 8 9
M  V30 9 2 9 10
M  V30 10 1 10 11
M  V30 11 1 11 12
M  V30 12 2 12 13
M  V30 13 1 13 14
M  V30 14 2 8 15
M  V30 15 1 15 16
M  V30 16 2 16 17
M  V30 17 1 17 18
M  V30 18 2 18 19
M  V30 19 1 19 20
M  V30 20 2 20 21
M  V30 21 1 6 22
M  V30 22 2 22 23
M  V30 23 1 23 3
M  V30 24 1 21 7
M  V30 25 1 13 9
M  V30 26 1 21 16
M  V30 27 1 1 24
M  V30 28 1 1 25
M  V30 29 1 2 26
M  V30 30 1 2 27
M  V30 31 1 4 28
M  V30 32 1 5 29
M  V30 33 1 14 30
M  V30 34 1 14 31
M  V30 35 1 17 32
M  V30 36 1 19 33
M  V30 37 1 20 34
M  V30 38 1 22 35
M  V30 39 1 23 36
M  V30 END BOND
M  V30 END CTAB
M  END
>  <Dataset>  (671) 
ChEMBL_Kinases

>  <Ligand_Instance>  (671) 
nan

>  <PDB_ID>  (671) 
nan

>  <Standardized_SMILES>  (671) 
NCc1ccc(-n2c(-c3nonc3N)nc3cnccc32)cc1

>  <Name>  (671) 
nan

>  <Pocket>  (671) 
nan

>  <ATP_Site>  (671) 
nan

>  <Peripheral>  (671) 
nan

>  <Num_H_Atoms_ProtBoundConf>  (671) 
nan

>  <Num_Resolved_Atoms>  (671) 
nan

>  <Num_Not_Resolved_Atoms>  (671) 
nan

$$$$
CHEMBL18772
     RDKit          3D

  0  0  0  0  0  0  0  0  0  0999 V3000
M  V30 BEGIN CTAB
M  V30 COUNTS 31 33 0 0 0
M  V30 BEGIN ATOM
M  V30 1 C 0.112511 0.276538 5.446650 0
M  V30 2 C 0.328225 -1.066039 5.178302 0
M  V30 3 C 0.438883 -1.516244 3.859937 0
M  V30 4 C 0.328553 -0.595332 2.837644 0
M  V30 5 N 0.445709 -1.103545 1.597523 0
M  V30 6 C 0.359367 -0.322871 0.499863 0
M  V30 7 N 0.482573 -0.853848 -0.813725 0
M  V30 8 C 0.406075 -0.141327 -2.045324 0
M  V30 9 C -0.225501 -0.874900 -3.182357 0
M  V30 10 N -0.166584 -2.297645 -3.131116 0
M  V30 11 C -0.463810 -2.776046 -1.793376 0
M  V30 12 C 0.713010 -2.278745 -0.950494 0
M  V30 13 C 0.145181 1.012302 0.756053 0
M  V30 14 C 0.020629 1.564252 2.016675 0
M  V30 15 C 0.113862 0.739671 3.110618 0
M  V30 16 C 0.003351 1.193119 4.408270 0
M  V30 17 H 0.023123 0.650649 6.460034 0
M  V30 18 H 0.406678 -1.740972 6.004565 0
M  V30 19 H 0.608866 -2.586648 3.710537 0
M  V30 20 H -0.109327 0.826469 -1.875710 0
M  V30 21 H 1.467869 0.130930 -2.316942 0
M  V30 22 H -1.323691 -0.609649 -3.182659 0
M  V30 23 H 0.165156 -0.484248 -4.144311 0
M  V30 24 H 0.691377 -2.732932 -3.483964 0
M  V30 25 H -1.426076 -2.333287 -1.443807 0
M  V30 26 H -0.507301 -3.873806 -1.744284 0
M  V30 27 H 1.638167 -2.479046 -1.555775 0
M  V30 28 H 0.728386 -2.836217 -0.011962 0
M  V30 29 H 0.062171 1.713890 -0.051267 0
M  V30 30 H -0.148906 2.632952 2.160604 0
M  V30 31 H -0.163888 2.238262 4.595259 0
M  V30 END ATOM
M  V30 BEGIN BOND
M  V30 1 2 1 2
M  V30 2 1 2 3
M  V30 3 2 3 4
M  V30 4 1 4 5
M  V30 5 2 5 6
M  V30 6 1 6 7
M  V30 7 1 7 8
M  V30 8 1 8 9
M  V30 9 1 9 10
M  V30 10 1 10 11
M  V30 11 1 11 12
M  V30 12 1 6 13
M  V30 13 2 13 14
M  V30 14 1 14 15
M  V30 15 2 15 16
M  V30 16 1 16 1
M  V30 17 1 15 4
M  V30 18 1 12 7
M  V30 19 1 1 17
M  V30 20 1 2 18
M  V30 21 1 3 19
M  V30 22 1 8 20
M  V30 23 1 8 21
M  V30 24 1 9 22
M  V30 25 1 9 23
M  V30 26 1 10 24
M  V30 27 1 11 25
M  V30 28 1 11 26
M  V30 29 1 12 27
M  V30 30 1 12 28
M  V30 31 1 13 29
M  V30 32 1 14 30
M  V30 33 1 16 31
M  V30 END BOND
M  V30 END CTAB
M  END
>  <Dataset>  (672) 
ChEMBL_Kinases

>  <Ligand_Instance>  (672) 
nan

>  <PDB_ID>  (672) 
nan

>  <Standardized_SMILES>  (672) 
c1ccc2nc(N3CCNCC3)ccc2c1

>  <Name>  (672) 
QUIPAZINE

>  <Pocket>  (672) 
nan

>  <ATP_Site>  (672) 
nan

>  <Peripheral>  (672) 
nan

>  <Num_H_Atoms_ProtBoundConf>  (672) 
nan

>  <Num_Resolved_Atoms>  (672) 
nan

>  <Num_Not_Resolved_Atoms>  (672) 
nan

$$$$
CHEMBL187800
     RDKit          3D

  0  0  0  0  0  0  0  0  0  0999 V3000
M  V30 BEGIN CTAB
M  V30 COUNTS 33 35 0 0 0
M  V30 BEGIN ATOM
M  V30 1 C 1.549174 -4.000019 3.538303 0
M  V30 2 C 0.995867 -3.878361 2.168437 0
M  V30 3 C 0.816114 -5.040198 1.415537 0
M  V30 4 C 0.295219 -4.884097 0.136508 0
M  V30 5 C -0.047426 -3.668360 -0.419615 0
M  V30 6 C 0.149473 -2.551133 0.365271 0
M  V30 7 C 0.666924 -2.640333 1.652725 0
M  V30 8 C -0.265243 -1.366231 -0.381290 0
M  V30 9 C -0.266836 -0.092082 -0.058864 0
M  V30 10 C -0.711289 1.000530 -0.904378 0
M  V30 11 O -1.171927 1.064990 -2.054280 0
M  V30 12 C -0.633799 2.350701 -0.362237 0
M  V30 13 C -0.156338 2.587765 0.907431 0
M  V30 14 C -0.067814 3.847203 1.454315 0
M  V30 15 C -0.457265 4.955945 0.752372 0
M  V30 16 C -0.943225 4.782286 -0.522575 0
M  V30 17 C -1.006008 3.510670 -1.007405 0
M  V30 18 C -0.715245 -1.896215 -1.656626 0
M  V30 19 O -1.168464 -1.282912 -2.647157 0
M  V30 20 N -0.586773 -3.310079 -1.693594 0
M  V30 21 H 2.640102 -3.839318 3.551571 0
M  V30 22 H 1.213640 -4.965033 3.962494 0
M  V30 23 H 1.088307 -3.195715 4.161867 0
M  V30 24 H 1.062935 -6.002452 1.793988 0
M  V30 25 H 0.146706 -5.764265 -0.465117 0
M  V30 26 H 0.798842 -1.708693 2.225523 0
M  V30 27 H 0.113279 0.038787 0.937187 0
M  V30 28 H 0.190710 1.856178 1.598669 0
M  V30 29 H 0.305278 4.069349 2.455852 0
M  V30 30 H -0.412350 5.968844 1.125672 0
M  V30 31 H -1.258811 5.635498 -1.102980 0
M  V30 32 H -1.399838 3.409350 -2.030561 0
M  V30 33 H -0.822936 -3.974672 -2.461936 0
M  V30 END ATOM
M  V30 BEGIN BOND
M  V30 1 1 1 2
M  V30 2 2 2 3
M  V30 3 1 3 4
M  V30 4 2 4 5
M  V30 5 1 5 6
M  V30 6 2 6 7
M  V30 7 1 6 8
M  V30 8 2 8 9
M  V30 9 1 9 10
M  V30 10 2 10 11
M  V30 11 1 10 12
M  V30 12 2 12 13
M  V30 13 1 13 14
M  V30 14 2 14 15
M  V30 15 1 15 16
M  V30 16 2 16 17
M  V30 17 1 8 18
M  V30 18 2 18 19
M  V30 19 1 18 20
M  V30 20 1 7 2
M  V30 21 1 17 12
M  V30 22 1 20 5
M  V30 23 1 1 21
M  V30 24 1 1 22
M  V30 25 1 1 23
M  V30 26 1 3 24
M  V30 27 1 4 25
M  V30 28 1 7 26
M  V30 29 1 9 27
M  V30 30 1 13 28
M  V30 31 1 14 29
M  V30 32 1 15 30
M  V30 33 1 16 31
M  V30 34 1 17 32
M  V30 35 1 20 33
M  V30 END BOND
M  V30 END CTAB
M  END
>  <Dataset>  (673) 
ChEMBL_Kinases

>  <Ligand_Instance>  (673) 
nan

>  <PDB_ID>  (673) 
nan

>  <Standardized_SMILES>  (673) 
Cc1ccc2c(c1)/C(=C/C(=O)c1ccccc1)C(=O)N2

>  <Name>  (673) 
nan

>  <Pocket>  (673) 
nan

>  <ATP_Site>  (673) 
nan

>  <Peripheral>  (673) 
nan

>  <Num_H_Atoms_ProtBoundConf>  (673) 
nan

>  <Num_Resolved_Atoms>  (673) 
nan

>  <Num_Not_Resolved_Atoms>  (673) 
nan

$$$$
CHEMBL187845
     RDKit          3D

  0  0  0  0  0  0  0  0  0  0999 V3000
M  V30 BEGIN CTAB
M  V30 COUNTS 40 42 0 0 0
M  V30 BEGIN ATOM
M  V30 1 O -2.283711 -1.224925 -0.396351 0
M  V30 2 C -1.411816 -0.328093 -0.136631 0
M  V30 3 N -0.213357 -1.029089 -0.281708 0
M  V30 4 C -0.291598 -2.442854 -0.630388 0
M  V30 5 C 1.120989 -2.947578 -0.720608 0
M  V30 6 C 1.634513 -3.715113 0.307386 0
M  V30 7 C 2.930040 -4.196252 0.260616 0
M  V30 8 C 3.711909 -3.896255 -0.838763 0
M  V30 9 C 3.192384 -3.129238 -1.861377 0
M  V30 10 C 1.902632 -2.638060 -1.836968 0
M  V30 11 Cl 1.255680 -1.668189 -3.138522 0
M  V30 12 C -1.826961 0.999494 0.201068 0
M  V30 13 C -3.166669 1.272925 0.024537 0
M  V30 14 C -3.661990 2.540260 0.210336 0
M  V30 15 C -2.854323 3.591683 0.578833 0
M  V30 16 C -1.510049 3.345414 0.764429 0
M  V30 17 C -1.054052 2.058848 0.569300 0
M  V30 18 O 0.304313 1.979663 0.802159 0
M  V30 19 C 0.746251 1.218710 1.909136 0
M  V30 20 C 2.085151 1.072700 2.207142 0
M  V30 21 C 2.465876 0.319326 3.299004 0
M  V30 22 C 1.547136 -0.301206 4.114115 0
M  V30 23 C 0.186223 -0.169069 3.834109 0
M  V30 24 C -0.160959 0.584998 2.743763 0
M  V30 25 H 0.630354 -0.446473 -0.147062 0
M  V30 26 H -0.829011 -3.048102 0.112986 0
M  V30 27 H -0.765031 -2.515212 -1.634910 0
M  V30 28 H 1.063378 -3.981704 1.196511 0
M  V30 29 H 3.348902 -4.798457 1.056155 0
M  V30 30 H 4.724029 -4.282888 -0.855480 0
M  V30 31 H 3.835494 -2.908919 -2.717713 0
M  V30 32 H -3.901943 0.507688 -0.269416 0
M  V30 33 H -4.716241 2.726941 0.064773 0
M  V30 34 H -3.310696 4.562847 0.705993 0
M  V30 35 H -0.929104 4.195977 1.049470 0
M  V30 36 H 2.830406 1.559854 1.569133 0
M  V30 37 H 3.503459 0.180553 3.565964 0
M  V30 38 H 1.836879 -0.895499 4.975017 0
M  V30 39 H -0.542741 -0.655864 4.472815 0
M  V30 40 H -1.222267 0.652713 2.576970 0
M  V30 END ATOM
M  V30 BEGIN BOND
M  V30 1 2 1 2
M  V30 2 1 2 3
M  V30 3 1 3 4
M  V30 4 1 4 5
M  V30 5 2 5 6
M  V30 6 1 6 7
M  V30 7 2 7 8
M  V30 8 1 8 9
M  V30 9 2 9 10
M  V30 10 1 10 11
M  V30 11 1 2 12
M  V30 12 2 12 13
M  V30 13 1 13 14
M  V30 14 2 14 15
M  V30 15 1 15 16
M  V30 16 2 16 17
M  V30 17 1 17 18
M  V30 18 1 18 19
M  V30 19 2 19 20
M  V30 20 1 20 21
M  V30 21 2 21 22
M  V30 22 1 22 23
M  V30 23 2 23 24
M  V30 24 1 10 5
M  V30 25 1 17 12
M  V30 26 1 24 19
M  V30 27 1 3 25
M  V30 28 1 4 26
M  V30 29 1 4 27
M  V30 30 1 6 28
M  V30 31 1 7 29
M  V30 32 1 8 30
M  V30 33 1 9 31
M  V30 34 1 13 32
M  V30 35 1 14 33
M  V30 36 1 15 34
M  V30 37 1 16 35
M  V30 38 1 20 36
M  V30 39 1 21 37
M  V30 40 1 22 38
M  V30 41 1 23 39
M  V30 42 1 24 40
M  V30 END BOND
M  V30 END CTAB
M  END
>  <Dataset>  (674) 
ChEMBL_Kinases

>  <Ligand_Instance>  (674) 
nan

>  <PDB_ID>  (674) 
nan

>  <Standardized_SMILES>  (674) 
O=C(NCc1ccccc1Cl)c1ccccc1Oc1ccccc1

>  <Name>  (674) 
nan

>  <Pocket>  (674) 
nan

>  <ATP_Site>  (674) 
nan

>  <Peripheral>  (674) 
nan

>  <Num_H_Atoms_ProtBoundConf>  (674) 
nan

>  <Num_Resolved_Atoms>  (674) 
nan

>  <Num_Not_Resolved_Atoms>  (674) 
nan

$$$$
CHEMBL187857
     RDKit          3D

  0  0  0  0  0  0  0  0  0  0999 V3000
M  V30 BEGIN CTAB
M  V30 COUNTS 56 59 0 0 0
M  V30 BEGIN ATOM
M  V30 1 C -0.727548 0.755267 5.701707 0
M  V30 2 S 0.072432 -0.137267 4.369717 0
M  V30 3 C 1.454401 0.720702 3.654748 0
M  V30 4 N 2.653532 0.481411 4.220662 0
M  V30 5 C 3.808894 1.045709 3.791861 0
M  V30 6 C 3.786262 1.918813 2.715610 0
M  V30 7 C 2.542533 2.157266 2.139917 0
M  V30 8 N 2.479387 3.030144 1.019779 0
M  V30 9 C 2.387453 2.415650 -0.260719 0
M  V30 10 C 2.347338 1.033488 -0.302679 0
M  V30 11 C 2.240516 0.415226 -1.556053 0
M  V30 12 N 2.192646 -1.036127 -1.557938 0
M  V30 13 C 0.772904 -1.221815 -1.363501 0
M  V30 14 O 0.219570 -0.087857 -1.278521 0
M  V30 15 C 0.132361 -2.557139 -1.281696 0
M  V30 16 C 0.763623 -3.749346 -1.555180 0
M  V30 17 C 0.030625 -4.916931 -1.412696 0
M  V30 18 F 0.689393 -6.044230 -1.692801 0
M  V30 19 C -1.283725 -4.831264 -1.006452 0
M  V30 20 C -1.948811 -3.673817 -0.724102 0
M  V30 21 N -3.326929 -3.637094 -0.303937 0
M  V30 22 C -3.714561 -2.428170 0.406505 0
M  V30 23 C -4.719290 -2.785097 1.455114 0
M  V30 24 O -5.036178 -4.117929 1.545786 0
M  V30 25 C -5.390457 -4.671953 0.318975 0
M  V30 26 C -4.202546 -4.746728 -0.618880 0
M  V30 27 C -1.190005 -2.528150 -0.877394 0
M  V30 28 C 2.172972 1.088788 -2.759249 0
M  V30 29 C 2.215747 2.470085 -2.694934 0
M  V30 30 C 2.319946 3.082720 -1.464106 0
M  V30 31 C 2.366361 4.568542 -1.432549 0
M  V30 32 N 1.411343 1.565994 2.608663 0
M  V30 33 H -0.082284 1.523134 6.130795 0
M  V30 34 H -1.714392 1.194965 5.387208 0
M  V30 35 H -0.972949 0.007874 6.499951 0
M  V30 36 H 4.791623 0.887657 4.209932 0
M  V30 37 H 4.640861 2.405178 2.313473 0
M  V30 38 H 2.507642 4.021491 1.270671 0
M  V30 39 H 2.395172 0.388933 0.581139 0
M  V30 40 H 2.803679 -1.895151 -1.642719 0
M  V30 41 H 1.790962 -3.662709 -1.862540 0
M  V30 42 H -1.730066 -5.793506 -0.937622 0
M  V30 43 H -2.830446 -1.907982 0.833266 0
M  V30 44 H -4.192030 -1.745973 -0.326118 0
M  V30 45 H -4.308845 -2.504389 2.472732 0
M  V30 46 H -5.650689 -2.151733 1.371081 0
M  V30 47 H -6.220289 -4.095502 -0.091636 0
M  V30 48 H -5.671104 -5.729507 0.551973 0
M  V30 49 H -3.672455 -5.691963 -0.560220 0
M  V30 50 H -4.557005 -4.531329 -1.673023 0
M  V30 51 H -1.648455 -1.544508 -0.682366 0
M  V30 52 H 2.093381 0.507956 -3.661183 0
M  V30 53 H 2.167664 3.025415 -3.610147 0
M  V30 54 H 2.886780 4.958499 -2.334366 0
M  V30 55 H 2.908937 4.901744 -0.521810 0
M  V30 56 H 1.367622 5.046651 -1.401286 0
M  V30 END ATOM
M  V30 BEGIN BOND
M  V30 1 1 1 2
M  V30 2 1 2 3
M  V30 3 2 3 4
M  V30 4 1 4 5
M  V30 5 2 5 6
M  V30 6 1 6 7
M  V30 7 1 7 8
M  V30 8 1 8 9
M  V30 9 2 9 10
M  V30 10 1 10 11
M  V30 11 1 11 12
M  V30 12 1 12 13
M  V30 13 2 13 14
M  V30 14 1 13 15
M  V30 15 2 15 16
M  V30 16 1 16 17
M  V30 17 1 17 18
M  V30 18 2 17 19
M  V30 19 1 19 20
M  V30 20 1 20 21
M  V30 21 1 21 22
M  V30 22 1 22 23
M  V30 23 1 23 24
M  V30 24 1 24 25
M  V30 25 1 25 26
M  V30 26 2 20 27
M  V30 27 2 11 28
M  V30 28 1 28 29
M  V30 29 2 29 30
M  V30 30 1 30 31
M  V30 31 2 7 32
M  V30 32 1 32 3
M  V30 33 1 30 9
M  V30 34 1 27 15
M  V30 35 1 26 21
M  V30 36 1 1 33
M  V30 37 1 1 34
M  V30 38 1 1 35
M  V30 39 1 5 36
M  V30 40 1 6 37
M  V30 41 1 8 38
M  V30 42 1 10 39
M  V30 43 1 12 40
M  V30 44 1 16 41
M  V30 45 1 19 42
M  V30 46 1 22 43
M  V30 47 1 22 44
M  V30 48 1 23 45
M  V30 49 1 23 46
M  V30 50 1 25 47
M  V30 51 1 25 48
M  V30 52 1 26 49
M  V30 53 1 26 50
M  V30 54 1 27 51
M  V30 55 1 28 52
M  V30 56 1 29 53
M  V30 57 1 31 54
M  V30 58 1 31 55
M  V30 59 1 31 56
M  V30 END BOND
M  V30 END CTAB
M  END
>  <Dataset>  (675) 
ChEMBL_Kinases

>  <Ligand_Instance>  (675) 
nan

>  <PDB_ID>  (675) 
nan

>  <Standardized_SMILES>  (675) 
CSc1nccc(Nc2cc(NC(=O)c3cc(F)cc(N4CCOCC4)c3)ccc2C)n1

>  <Name>  (675) 
nan

>  <Pocket>  (675) 
nan

>  <ATP_Site>  (675) 
nan

>  <Peripheral>  (675) 
nan

>  <Num_H_Atoms_ProtBoundConf>  (675) 
nan

>  <Num_Resolved_Atoms>  (675) 
nan

>  <Num_Not_Resolved_Atoms>  (675) 
nan

$$$$
CHEMBL187926
     RDKit          3D

  0  0  0  0  0  0  0  0  0  0999 V3000
M  V30 BEGIN CTAB
M  V30 COUNTS 35 36 0 0 0
M  V30 BEGIN ATOM
M  V30 1 C 2.383051 -4.302301 5.996650 0
M  V30 2 C 1.894909 -3.474112 4.878512 0
M  V30 3 O 1.218946 -2.522756 5.287444 0
M  V30 4 N 2.120263 -3.667019 3.498074 0
M  V30 5 C 1.686519 -2.921397 2.407129 0
M  V30 6 C 0.911262 -1.792553 2.497349 0
M  V30 7 C 0.578006 -1.186434 1.326834 0
M  V30 8 C 0.920269 -1.561336 0.051743 0
M  V30 9 C 0.573008 -0.927169 -1.193634 0
M  V30 10 O 1.043102 -1.512014 -2.244974 0
M  V30 11 C -0.184834 0.225458 -1.597362 0
M  V30 12 C -0.880406 1.195279 -1.087034 0
M  V30 13 C -1.598837 2.310210 -1.692108 0
M  V30 14 C -2.258755 3.196410 -0.868827 0
M  V30 15 C -2.938839 4.251474 -1.437629 0
M  V30 16 C -2.985621 4.456535 -2.801041 0
M  V30 17 C -2.325873 3.572881 -3.647297 0
M  V30 18 C -1.652230 2.524823 -3.054019 0
M  V30 19 C 1.695557 -2.698212 0.041436 0
M  V30 20 C 2.082034 -3.378411 1.171593 0
M  V30 21 H 3.134354 -5.055538 5.720230 0
M  V30 22 H 1.494502 -4.748562 6.495687 0
M  V30 23 H 2.866882 -3.676991 6.798936 0
M  V30 24 H 2.721974 -4.539671 3.392311 0
M  V30 25 H 0.590628 -1.415255 3.430790 0
M  V30 26 H -0.029970 -0.306704 1.453093 0
M  V30 27 H -0.253047 0.433874 -2.680396 0
M  V30 28 H -0.901318 1.118503 -0.012568 0
M  V30 29 H -2.252648 3.079563 0.209521 0
M  V30 30 H -3.447373 4.931558 -0.774992 0
M  V30 31 H -3.524955 5.291406 -3.233703 0
M  V30 32 H -2.365662 3.737941 -4.713461 0
M  V30 33 H -1.164002 1.876966 -3.740912 0
M  V30 34 H 2.041007 -3.110237 -0.908997 0
M  V30 35 H 2.702259 -4.277664 1.060913 0
M  V30 END ATOM
M  V30 BEGIN BOND
M  V30 1 1 1 2
M  V30 2 2 2 3
M  V30 3 1 2 4
M  V30 4 1 4 5
M  V30 5 2 5 6
M  V30 6 1 6 7
M  V30 7 2 7 8
M  V30 8 1 8 9
M  V30 9 2 9 10
M  V30 10 1 9 11
M  V30 11 2 11 12
M  V30 12 1 12 13
M  V30 13 2 13 14
M  V30 14 1 14 15
M  V30 15 2 15 16
M  V30 16 1 16 17
M  V30 17 2 17 18
M  V30 18 1 8 19
M  V30 19 2 19 20
M  V30 20 1 20 5
M  V30 21 1 18 13
M  V30 22 1 1 21
M  V30 23 1 1 22
M  V30 24 1 1 23
M  V30 25 1 4 24
M  V30 26 1 6 25
M  V30 27 1 7 26
M  V30 28 1 11 27
M  V30 29 1 12 28
M  V30 30 1 14 29
M  V30 31 1 15 30
M  V30 32 1 16 31
M  V30 33 1 17 32
M  V30 34 1 18 33
M  V30 35 1 19 34
M  V30 36 1 20 35
M  V30 END BOND
M  V30 END CTAB
M  END
>  <Dataset>  (676) 
ChEMBL_Kinases

>  <Ligand_Instance>  (676) 
nan

>  <PDB_ID>  (676) 
nan

>  <Standardized_SMILES>  (676) 
CC(=O)Nc1ccc(C(=O)/C=C/c2ccccc2)cc1

>  <Name>  (676) 
nan

>  <Pocket>  (676) 
nan

>  <ATP_Site>  (676) 
nan

>  <Peripheral>  (676) 
nan

>  <Num_H_Atoms_ProtBoundConf>  (676) 
nan

>  <Num_Resolved_Atoms>  (676) 
nan

>  <Num_Not_Resolved_Atoms>  (676) 
nan

$$$$
CHEMBL187961
     RDKit          3D

  0  0  0  0  0  0  0  0  0  0999 V3000
M  V30 BEGIN CTAB
M  V30 COUNTS 47 50 0 0 0
M  V30 BEGIN ATOM
M  V30 1 C 1.311354 -3.520371 2.958735 0
M  V30 2 O 2.271109 -2.534802 3.077349 0
M  V30 3 C 2.924856 -2.320206 1.849018 0
M  V30 4 C 3.957213 -1.250243 2.014601 0 CFG=1
M  V30 5 C 4.715292 -1.091124 0.700006 0
M  V30 6 N 3.442884 0.024054 2.431613 0
M  V30 7 C 2.531007 0.663616 1.558441 0
M  V30 8 N 3.184184 1.435889 0.648300 0
M  V30 9 C 2.473043 2.138119 -0.280361 0
M  V30 10 C 1.094589 2.066573 -0.298040 0
M  V30 11 C 0.454008 1.277261 0.634198 0
M  V30 12 C -0.996586 1.266853 0.543374 0
M  V30 13 N -1.639923 2.443808 0.770968 0
M  V30 14 N -2.937099 2.319177 0.661058 0
M  V30 15 C -3.207332 1.025935 0.349815 0
M  V30 16 C -2.000633 0.361114 0.274419 0
M  V30 17 C -1.644740 -1.022010 -0.019270 0
M  V30 18 C -0.852834 -1.392292 -1.087305 0
M  V30 19 C -0.605133 -2.739003 -1.249266 0
M  V30 20 C -1.134517 -3.645365 -0.373865 0
M  V30 21 F -0.846740 -4.964704 -0.596290 0
M  V30 22 C -1.936542 -3.271135 0.708287 0
M  V30 23 C -2.185529 -1.911707 0.870108 0
M  V30 24 O -4.565546 0.776409 0.207876 0
M  V30 25 C -5.265705 1.945137 0.595029 0
M  V30 26 C -4.216726 2.996657 0.733709 0
M  V30 27 N 1.166331 0.585574 1.549683 0
M  V30 28 H 0.791802 -3.687630 3.947470 0
M  V30 29 H 0.506392 -3.224227 2.253688 0
M  V30 30 H 1.739256 -4.472578 2.609964 0
M  V30 31 H 3.444133 -3.240768 1.562512 0
M  V30 32 H 2.177388 -1.999832 1.085954 0
M  V30 33 H 4.726735 -1.562313 2.759329 0
M  V30 34 H 3.919528 -0.907364 -0.075613 0
M  V30 35 H 5.285663 -1.997835 0.474444 0
M  V30 36 H 5.332716 -0.183302 0.789533 0
M  V30 37 H 3.689928 0.503779 3.319327 0
M  V30 38 H 2.961566 2.759499 -1.016048 0
M  V30 39 H 0.565445 2.626265 -1.035124 0
M  V30 40 H -0.472065 -0.605519 -1.735559 0
M  V30 41 H 0.019376 -3.051166 -2.088479 0
M  V30 42 H -2.326819 -4.046318 1.368920 0
M  V30 43 H -2.810833 -1.652781 1.718268 0
M  V30 44 H -5.967012 2.145182 -0.267190 0
M  V30 45 H -5.863151 1.793205 1.518696 0
M  V30 46 H -4.304057 3.760020 -0.056228 0
M  V30 47 H -4.316188 3.436203 1.755540 0
M  V30 END ATOM
M  V30 BEGIN BOND
M  V30 1 1 1 2
M  V30 2 1 2 3
M  V30 3 1 3 4
M  V30 4 1 4 5
M  V30 5 1 4 6
M  V30 6 1 6 7
M  V30 7 2 7 8
M  V30 8 1 8 9
M  V30 9 2 9 10
M  V30 10 1 10 11
M  V30 11 1 11 12
M  V30 12 2 12 13
M  V30 13 1 13 14
M  V30 14 1 14 15
M  V30 15 2 15 16
M  V30 16 1 16 17
M  V30 17 2 17 18
M  V30 18 1 18 19
M  V30 19 2 19 20
M  V30 20 1 20 21
M  V30 21 1 20 22
M  V30 22 2 22 23
M  V30 23 1 15 24
M  V30 24 1 24 25
M  V30 25 1 25 26
M  V30 26 2 11 27
M  V30 27 1 27 7
M  V30 28 1 16 12
M  V30 29 1 23 17
M  V30 30 1 26 14
M  V30 31 1 1 28
M  V30 32 1 1 29
M  V30 33 1 1 30
M  V30 34 1 3 31
M  V30 35 1 3 32
M  V30 36 1 4 33 CFG=1
M  V30 37 1 5 34
M  V30 38 1 5 35
M  V30 39 1 5 36
M  V30 40 1 6 37
M  V30 41 1 9 38
M  V30 42 1 10 39
M  V30 43 1 18 40
M  V30 44 1 19 41
M  V30 45 1 22 42
M  V30 46 1 23 43
M  V30 47 1 25 44
M  V30 48 1 25 45
M  V30 49 1 26 46
M  V30 50 1 26 47
M  V30 END BOND
M  V30 END CTAB
M  END
>  <Dataset>  (677) 
ChEMBL_Kinases

>  <Ligand_Instance>  (677) 
nan

>  <PDB_ID>  (677) 
nan

>  <Standardized_SMILES>  (677) 
COC[C@@H](C)Nc1nccc(-c2nn3c(c2-c2ccc(F)cc2)OCC3)n1

>  <Name>  (677) 
nan

>  <Pocket>  (677) 
nan

>  <ATP_Site>  (677) 
nan

>  <Peripheral>  (677) 
nan

>  <Num_H_Atoms_ProtBoundConf>  (677) 
nan

>  <Num_Resolved_Atoms>  (677) 
nan

>  <Num_Not_Resolved_Atoms>  (677) 
nan

$$$$
CHEMBL187985
     RDKit          3D

  0  0  0  0  0  0  0  0  0  0999 V3000
M  V30 BEGIN CTAB
M  V30 COUNTS 39 42 0 0 0
M  V30 BEGIN ATOM
M  V30 1 C -0.613802 -3.043749 4.270873 0
M  V30 2 C -0.672802 -3.448676 2.833056 0
M  V30 3 N -0.352824 -2.342211 1.929228 0
M  V30 4 C 0.879470 -2.034326 1.484911 0
M  V30 5 C 2.150674 -2.689498 1.773768 0
M  V30 6 N 2.378064 -3.759371 2.557138 0
M  V30 7 O 3.672251 -4.009453 2.530961 0
M  V30 8 N 4.265388 -3.143903 1.766145 0
M  V30 9 C 3.356718 -2.271443 1.249292 0
M  V30 10 N 3.620381 -1.178370 0.365311 0
M  V30 11 N 0.751460 -0.961983 0.682845 0
M  V30 12 C -0.531191 -0.581540 0.606955 0
M  V30 13 C -1.127465 0.449745 -0.084569 0
M  V30 14 N -0.429173 1.369216 -0.908680 0
M  V30 15 C -1.030680 2.471040 -1.653007 0
M  V30 16 C 0.023252 3.559504 -1.648052 0
M  V30 17 C 1.244706 2.944232 -1.005296 0
M  V30 18 C 0.965559 1.449488 -1.206267 0
M  V30 19 N -2.459804 0.549295 0.063708 0
M  V30 20 C -3.185880 -0.277899 0.821532 0
M  V30 21 C -2.596533 -1.315106 1.518771 0
M  V30 22 C -1.235644 -1.467971 1.406627 0
M  V30 23 H -1.411838 -3.564800 4.861556 0
M  V30 24 H -0.686253 -1.960567 4.427343 0
M  V30 25 H 0.342255 -3.371163 4.765665 0
M  V30 26 H -1.670148 -3.888835 2.573589 0
M  V30 27 H 0.054385 -4.274377 2.676358 0
M  V30 28 H 3.653763 -1.125122 -0.688736 0
M  V30 29 H 3.833087 -0.200134 0.719432 0
M  V30 30 H -1.215406 2.130858 -2.713684 0
M  V30 31 H -1.986618 2.789886 -1.181878 0
M  V30 32 H -0.379534 4.411760 -1.056816 0
M  V30 33 H 0.266738 3.856563 -2.700814 0
M  V30 34 H 1.285923 3.097889 0.093308 0
M  V30 35 H 2.180117 3.238283 -1.521441 0
M  V30 36 H 1.073654 1.263084 -2.305288 0
M  V30 37 H 1.630931 0.835179 -0.605348 0
M  V30 38 H -4.261988 -0.156815 0.910047 0
M  V30 39 H -3.194230 -1.989513 2.137573 0
M  V30 END ATOM
M  V30 BEGIN BOND
M  V30 1 1 1 2
M  V30 2 1 2 3
M  V30 3 1 3 4
M  V30 4 1 4 5
M  V30 5 2 5 6
M  V30 6 1 6 7
M  V30 7 1 7 8
M  V30 8 2 8 9
M  V30 9 1 9 10
M  V30 10 2 4 11
M  V30 11 1 11 12
M  V30 12 2 12 13
M  V30 13 1 13 14
M  V30 14 1 14 15
M  V30 15 1 15 16
M  V30 16 1 16 17
M  V30 17 1 17 18
M  V30 18 1 13 19
M  V30 19 2 19 20
M  V30 20 1 20 21
M  V30 21 2 21 22
M  V30 22 1 22 3
M  V30 23 1 9 5
M  V30 24 1 22 12
M  V30 25 1 18 14
M  V30 26 1 1 23
M  V30 27 1 1 24
M  V30 28 1 1 25
M  V30 29 1 2 26
M  V30 30 1 2 27
M  V30 31 1 10 28
M  V30 32 1 10 29
M  V30 33 1 15 30
M  V30 34 1 15 31
M  V30 35 1 16 32
M  V30 36 1 16 33
M  V30 37 1 17 34
M  V30 38 1 17 35
M  V30 39 1 18 36
M  V30 40 1 18 37
M  V30 41 1 20 38
M  V30 42 1 21 39
M  V30 END BOND
M  V30 END CTAB
M  END
>  <Dataset>  (678) 
ChEMBL_Kinases

>  <Ligand_Instance>  (678) 
nan

>  <PDB_ID>  (678) 
nan

>  <Standardized_SMILES>  (678) 
CCn1c(-c2nonc2N)nc2c(N3CCCC3)nccc21

>  <Name>  (678) 
nan

>  <Pocket>  (678) 
nan

>  <ATP_Site>  (678) 
nan

>  <Peripheral>  (678) 
nan

>  <Num_H_Atoms_ProtBoundConf>  (678) 
nan

>  <Num_Resolved_Atoms>  (678) 
nan

>  <Num_Not_Resolved_Atoms>  (678) 
nan

$$$$
CHEMBL188048
     RDKit          3D

  0  0  0  0  0  0  0  0  0  0999 V3000
M  V30 BEGIN CTAB
M  V30 COUNTS 24 26 0 0 0
M  V30 BEGIN ATOM
M  V30 1 C 0.826799 -1.512618 2.761476 0
M  V30 2 N 0.519918 -0.574551 1.710751 0
M  V30 3 C 0.912679 -0.619595 0.437422 0
M  V30 4 C 1.750015 -1.640331 -0.182141 0
M  V30 5 N 2.293493 -2.728448 0.380056 0
M  V30 6 O 2.981096 -3.390450 -0.527907 0
M  V30 7 N 2.915113 -2.784224 -1.670389 0
M  V30 8 C 2.155192 -1.684742 -1.500392 0
M  V30 9 N 1.787676 -0.693364 -2.459593 0
M  V30 10 N 0.406186 0.445442 -0.201943 0
M  V30 11 C -0.328566 1.196700 0.668926 0
M  V30 12 C -1.007634 2.366175 0.397277 0
M  V30 13 N -1.652147 2.882536 1.484351 0
M  V30 14 C -1.603996 2.276655 2.688444 0
M  V30 15 C -0.911847 1.102240 2.925481 0
M  V30 16 C -0.235006 0.522628 1.868515 0
M  V30 17 H 0.515804 -1.129723 3.746079 0
M  V30 18 H 1.901731 -1.768193 2.846728 0
M  V30 19 H 0.241445 -2.439715 2.552817 0
M  V30 20 H 1.203982 -0.635663 -3.339480 0
M  V30 21 H 2.191862 0.268419 -2.275299 0
M  V30 22 H -1.000889 2.789913 -0.586345 0
M  V30 23 H -2.137299 2.725058 3.540058 0
M  V30 24 H -0.873469 0.617594 3.889120 0
M  V30 END ATOM
M  V30 BEGIN BOND
M  V30 1 1 1 2
M  V30 2 1 2 3
M  V30 3 1 3 4
M  V30 4 2 4 5
M  V30 5 1 5 6
M  V30 6 1 6 7
M  V30 7 2 7 8
M  V30 8 1 8 9
M  V30 9 2 3 10
M  V30 10 1 10 11
M  V30 11 2 11 12
M  V30 12 1 12 13
M  V30 13 2 13 14
M  V30 14 1 14 15
M  V30 15 2 15 16
M  V30 16 1 16 2
M  V30 17 1 8 4
M  V30 18 1 16 11
M  V30 19 1 1 17
M  V30 20 1 1 18
M  V30 21 1 1 19
M  V30 22 1 9 20
M  V30 23 1 9 21
M  V30 24 1 12 22
M  V30 25 1 14 23
M  V30 26 1 15 24
M  V30 END BOND
M  V30 END CTAB
M  END
>  <Dataset>  (679) 
ChEMBL_Kinases

>  <Ligand_Instance>  (679) 
nan

>  <PDB_ID>  (679) 
nan

>  <Standardized_SMILES>  (679) 
Cn1c(-c2nonc2N)nc2cnccc21

>  <Name>  (679) 
nan

>  <Pocket>  (679) 
nan

>  <ATP_Site>  (679) 
nan

>  <Peripheral>  (679) 
nan

>  <Num_H_Atoms_ProtBoundConf>  (679) 
nan

>  <Num_Resolved_Atoms>  (679) 
nan

>  <Num_Not_Resolved_Atoms>  (679) 
nan

$$$$
CHEMBL188257
     RDKit          3D

  0  0  0  0  0  0  0  0  0  0999 V3000
M  V30 BEGIN CTAB
M  V30 COUNTS 54 59 0 0 0
M  V30 BEGIN ATOM
M  V30 1 C 2.296945 -3.761124 4.927219 0
M  V30 2 O 2.080515 -2.377557 5.035349 0
M  V30 3 C 2.142537 -1.459649 4.004228 0
M  V30 4 C 1.880064 -0.148960 4.420269 0
M  V30 5 C 1.890506 0.922293 3.550699 0
M  V30 6 C 2.169853 0.739030 2.190920 0
M  V30 7 C 2.165596 1.924683 1.358139 0
M  V30 8 N 3.018766 2.953743 1.551343 0
M  V30 9 N 2.768619 3.897328 0.633101 0
M  V30 10 N 3.339637 5.085410 0.416260 0
M  V30 11 C 2.871268 5.825747 -0.594554 0
M  V30 12 C 1.842298 5.494906 -1.458562 0
M  V30 13 C 1.287403 4.246453 -1.182718 0
M  V30 14 C 1.740133 3.453815 -0.151803 0
M  V30 15 C 1.348721 2.188143 0.309089 0
M  V30 16 C 0.288016 1.464071 -0.325183 0
M  V30 17 C 0.516741 1.255396 -1.691428 0
M  V30 18 C -0.397501 0.590189 -2.485154 0
M  V30 19 N -1.531103 0.147377 -1.876692 0
M  V30 20 C -1.761375 0.344983 -0.552195 0
M  V30 21 N -3.011726 -0.199341 -0.178411 0
M  V30 22 C -3.305612 -1.612614 -0.188632 0
M  V30 23 C -4.522440 -2.128483 0.235357 0
M  V30 24 C -4.738975 -3.488457 0.176050 0
M  V30 25 C -3.778505 -4.338020 -0.292091 0
M  V30 26 C -2.545391 -3.850401 -0.724707 0
M  V30 27 C -2.319429 -2.468238 -0.666735 0
M  V30 28 O -1.518468 -4.651691 -1.213622 0
M  V30 29 C -1.736735 -6.000624 -1.630513 0
M  V30 30 C -3.186237 -6.389233 -1.502033 0
M  V30 31 O -3.821978 -5.725185 -0.424431 0
M  V30 32 N -0.869771 0.993700 0.222866 0
M  V30 33 C 2.423682 -0.556454 1.807416 0
M  V30 34 C 2.415924 -1.628361 2.663615 0
M  V30 35 H 2.395935 -4.027032 3.856941 0
M  V30 36 H 1.411232 -4.316833 5.326240 0
M  V30 37 H 3.246221 -4.088933 5.399530 0
M  V30 38 H 1.650743 0.111622 5.461459 0
M  V30 39 H 1.678407 1.937425 3.913254 0
M  V30 40 H 3.374746 6.779772 -0.722497 0
M  V30 41 H 1.526866 6.155433 -2.251805 0
M  V30 42 H 0.461737 3.929959 -1.839223 0
M  V30 43 H 1.405464 1.588981 -2.223238 0
M  V30 44 H -0.220556 0.426619 -3.547998 0
M  V30 45 H -3.811788 0.412959 0.134889 0
M  V30 46 H -5.284140 -1.469958 0.604579 0
M  V30 47 H -5.654983 -3.964893 0.486851 0
M  V30 48 H -1.360569 -2.070292 -1.002036 0
M  V30 49 H -1.483183 -5.991027 -2.726456 0
M  V30 50 H -1.055055 -6.720912 -1.173693 0
M  V30 51 H -3.330945 -7.477270 -1.359653 0
M  V30 52 H -3.752324 -6.123211 -2.437315 0
M  V30 53 H 2.639568 -0.709262 0.762960 0
M  V30 54 H 2.611607 -2.649476 2.383454 0
M  V30 END ATOM
M  V30 BEGIN BOND
M  V30 1 1 1 2
M  V30 2 1 2 3
M  V30 3 2 3 4
M  V30 4 1 4 5
M  V30 5 2 5 6
M  V30 6 1 6 7
M  V30 7 2 7 8
M  V30 8 1 8 9
M  V30 9 1 9 10
M  V30 10 2 10 11
M  V30 11 1 11 12
M  V30 12 2 12 13
M  V30 13 1 13 14
M  V30 14 2 14 15
M  V30 15 1 15 16
M  V30 16 2 16 17
M  V30 17 1 17 18
M  V30 18 2 18 19
M  V30 19 1 19 20
M  V30 20 1 20 21
M  V30 21 1 21 22
M  V30 22 2 22 23
M  V30 23 1 23 24
M  V30 24 2 24 25
M  V30 25 1 25 26
M  V30 26 2 26 27
M  V30 27 1 26 28
M  V30 28 1 28 29
M  V30 29 1 29 30
M  V30 30 1 30 31
M  V30 31 2 20 32
M  V30 32 1 6 33
M  V30 33 2 33 34
M  V30 34 1 34 3
M  V30 35 1 15 7
M  V30 36 1 32 16
M  V30 37 1 14 9
M  V30 38 1 27 22
M  V30 39 1 31 25
M  V30 40 1 1 35
M  V30 41 1 1 36
M  V30 42 1 1 37
M  V30 43 1 4 38
M  V30 44 1 5 39
M  V30 45 1 11 40
M  V30 46 1 12 41
M  V30 47 1 13 42
M  V30 48 1 17 43
M  V30 49 1 18 44
M  V30 50 1 21 45
M  V30 51 1 23 46
M  V30 52 1 24 47
M  V30 53 1 27 48
M  V30 54 1 29 49
M  V30 55 1 29 50
M  V30 56 1 30 51
M  V30 57 1 30 52
M  V30 58 1 33 53
M  V30 59 1 34 54
M  V30 END BOND
M  V30 END CTAB
M  END
>  <Dataset>  (680) 
ChEMBL_Kinases

>  <Ligand_Instance>  (680) 
nan

>  <PDB_ID>  (680) 
nan

>  <Standardized_SMILES>  (680) 
COc1ccc(-c2nn3ncccc3c2-c2ccnc(Nc3ccc4c(c3)OCCO4)n2)cc1

>  <Name>  (680) 
GW827106X

>  <Pocket>  (680) 
nan

>  <ATP_Site>  (680) 
nan

>  <Peripheral>  (680) 
nan

>  <Num_H_Atoms_ProtBoundConf>  (680) 
nan

>  <Num_Resolved_Atoms>  (680) 
nan

>  <Num_Not_Resolved_Atoms>  (680) 
nan

$$$$
CHEMBL188107
     RDKit          3D

  0  0  0  0  0  0  0  0  0  0999 V3000
M  V30 BEGIN CTAB
M  V30 COUNTS 39 41 0 0 0
M  V30 BEGIN ATOM
M  V30 1 O -0.393618 -0.994593 -0.064786 0
M  V30 2 C -0.628269 0.021554 -0.833085 0
M  V30 3 N -0.590289 -0.265280 -2.166260 0
M  V30 4 C -0.312053 -1.600421 -2.641409 0
M  V30 5 C 1.048186 -1.986952 -2.174235 0
M  V30 6 C 1.245995 -2.927168 -1.189695 0
M  V30 7 C 2.598896 -3.134727 -0.936280 0
M  V30 8 C 3.664501 -2.519252 -1.548750 0
M  V30 9 C 3.354466 -1.576603 -2.540434 0
M  V30 10 C 2.015031 -1.299267 -2.864313 0
M  V30 11 Cl 1.739190 -0.115373 -4.119810 0
M  V30 12 C -0.714603 0.525426 0.434511 0
M  V30 13 C -0.852472 1.842278 -0.274627 0
M  V30 14 C -1.017174 3.182594 0.229203 0
M  V30 15 C -1.063406 3.347208 1.623173 0
M  V30 16 N -0.948805 2.216892 2.302897 0
M  V30 17 C -0.803367 1.042523 1.724723 0
M  V30 18 O -0.661196 -0.307755 2.135277 0
M  V30 19 C -0.661467 -0.574488 3.473947 0
M  V30 20 C 0.467431 -1.167085 3.979177 0
M  V30 21 C 0.654599 -1.511222 5.289562 0
M  V30 22 C -0.391807 -1.227789 6.155116 0
M  V30 23 C -1.541631 -0.630806 5.676357 0
M  V30 24 C -1.692722 -0.301854 4.357960 0
M  V30 25 F -2.784156 0.284398 3.783300 0
M  V30 26 H -0.808576 0.731005 -2.464589 0
M  V30 27 H -0.330165 -1.597374 -3.732127 0
M  V30 28 H -1.096147 -2.317805 -2.310864 0
M  V30 29 H 0.446622 -3.436750 -0.697356 0
M  V30 30 H 2.798014 -3.881375 -0.150870 0
M  V30 31 H 4.677572 -2.768243 -1.261998 0
M  V30 32 H 4.216568 -1.105759 -3.004175 0
M  V30 33 H -0.885700 2.315785 -1.323471 0
M  V30 34 H -1.133682 4.241550 -0.051142 0
M  V30 35 H -1.162143 4.080167 2.402912 0
M  V30 36 H 1.290333 -1.389283 3.311327 0
M  V30 37 H 1.532096 -1.976863 5.707348 0
M  V30 38 H -0.297926 -1.479759 7.204109 0
M  V30 39 H -2.391163 -0.378336 6.305489 0
M  V30 END ATOM
M  V30 BEGIN BOND
M  V30 1 2 1 2
M  V30 2 1 2 3
M  V30 3 1 3 4
M  V30 4 1 4 5
M  V30 5 2 5 6
M  V30 6 1 6 7
M  V30 7 2 7 8
M  V30 8 1 8 9
M  V30 9 2 9 10
M  V30 10 1 10 11
M  V30 11 1 2 12
M  V30 12 2 12 13
M  V30 13 1 13 14
M  V30 14 2 14 15
M  V30 15 1 15 16
M  V30 16 2 16 17
M  V30 17 1 17 18
M  V30 18 1 18 19
M  V30 19 2 19 20
M  V30 20 1 20 21
M  V30 21 2 21 22
M  V30 22 1 22 23
M  V30 23 2 23 24
M  V30 24 1 24 25
M  V30 25 1 10 5
M  V30 26 1 17 12
M  V30 27 1 24 19
M  V30 28 1 3 26
M  V30 29 1 4 27
M  V30 30 1 4 28
M  V30 31 1 6 29
M  V30 32 1 7 30
M  V30 33 1 8 31
M  V30 34 1 9 32
M  V30 35 1 13 33
M  V30 36 1 14 34
M  V30 37 1 15 35
M  V30 38 1 20 36
M  V30 39 1 21 37
M  V30 40 1 22 38
M  V30 41 1 23 39
M  V30 END BOND
M  V30 END CTAB
M  END
>  <Dataset>  (681) 
ChEMBL_Kinases

>  <Ligand_Instance>  (681) 
nan

>  <PDB_ID>  (681) 
nan

>  <Standardized_SMILES>  (681) 
O=C(NCc1ccccc1Cl)c1cccnc1Oc1ccccc1F

>  <Name>  (681) 
nan

>  <Pocket>  (681) 
nan

>  <ATP_Site>  (681) 
nan

>  <Peripheral>  (681) 
nan

>  <Num_H_Atoms_ProtBoundConf>  (681) 
nan

>  <Num_Resolved_Atoms>  (681) 
nan

>  <Num_Not_Resolved_Atoms>  (681) 
nan

$$$$
CHEMBL188114
     RDKit          3D

  0  0  0  0  0  0  0  0  0  0999 V3000
M  V30 BEGIN CTAB
M  V30 COUNTS 76 80 0 0 0
M  V30 BEGIN ATOM
M  V30 1 C 2.868668 -5.108323 0.798959 0
M  V30 2 O 3.394614 -3.810347 0.862437 0
M  V30 3 C 2.921817 -2.734248 0.129125 0
M  V30 4 C 1.902097 -3.030082 -0.785081 0
M  V30 5 C 1.327176 -2.060036 -1.585457 0
M  V30 6 N 0.374532 -2.358850 -2.485380 0
M  V30 7 C -0.122900 -1.382510 -3.259731 0
M  V30 8 N 0.274177 -0.070571 -3.198546 0
M  V30 9 C 1.248602 0.240086 -2.273036 0
M  V30 10 N 1.713062 1.576051 -2.007144 0
M  V30 11 C 0.706871 2.240122 -1.209331 0
M  V30 12 C -0.488008 1.552371 -0.897155 0
M  V30 13 C -1.507694 2.188483 -0.123156 0
M  V30 14 N -2.548511 1.300635 0.123466 0
M  V30 15 C -3.292372 0.574713 1.148275 0
M  V30 16 O -2.770254 0.860034 2.267516 0
M  V30 17 C -4.393396 -0.272226 0.749442 0
M  V30 18 C -5.107741 -0.037734 -0.423631 0
M  V30 19 C -6.085715 -0.957351 -0.710065 0
M  V30 20 N -6.381864 -2.020821 0.039944 0
M  V30 21 C -5.665020 -2.219478 1.178990 0
M  V30 22 N -6.054121 -3.393244 1.882489 0
M  V30 23 C -7.152428 -4.218837 1.451567 0
M  V30 24 C -6.723530 -5.643074 1.177130 0
M  V30 25 O -6.036188 -6.247524 2.200663 0
M  V30 26 C -4.984487 -5.443452 2.607177 0
M  V30 27 C -5.583226 -4.097181 3.035563 0
M  V30 28 C -4.655685 -1.365555 1.573012 0
M  V30 29 C -1.309826 3.465196 0.305158 0
M  V30 30 C -0.138973 4.199280 0.025065 0
M  V30 31 C 0.791629 3.492651 -0.733429 0
M  V30 32 C 1.982226 4.319794 -0.974055 0
M  V30 33 C 1.775557 -0.755151 -1.474457 0
M  V30 34 C 2.778791 -0.487135 -0.572808 0
M  V30 35 C 3.378398 -1.412833 0.236393 0
M  V30 36 O 4.370862 -1.315105 1.164836 0
M  V30 37 C 5.096681 -0.183855 1.514614 0
M  V30 38 C 5.942834 0.402127 0.421709 0
M  V30 39 N 6.683781 1.582693 0.818459 0
M  V30 40 C 7.468856 1.999806 -0.351186 0
M  V30 41 C 5.730626 2.659370 1.046634 0
M  V30 42 H 3.232338 -5.627194 -0.107285 0
M  V30 43 H 1.738395 -5.099847 0.786603 0
M  V30 44 H 3.227109 -5.734324 1.664944 0
M  V30 45 H 1.513031 -4.015885 -0.921583 0
M  V30 46 H -0.892339 -1.516011 -4.020362 0
M  V30 47 H 2.590239 1.974809 -2.321753 0
M  V30 48 H -0.692549 0.557753 -1.205757 0
M  V30 49 H -2.962659 1.094778 -0.847025 0
M  V30 50 H -4.929051 0.806442 -1.066477 0
M  V30 51 H -6.647637 -0.752676 -1.636225 0
M  V30 52 H -7.981708 -4.268478 2.174748 0
M  V30 53 H -7.564477 -3.778063 0.524599 0
M  V30 54 H -7.656769 -6.264617 1.004942 0
M  V30 55 H -6.153752 -5.726901 0.223441 0
M  V30 56 H -4.291655 -5.294047 1.742585 0
M  V30 57 H -4.449264 -5.866675 3.476755 0
M  V30 58 H -4.720923 -3.515361 3.455197 0
M  V30 59 H -6.320624 -4.302822 3.811046 0
M  V30 60 H -4.109912 -1.578365 2.480028 0
M  V30 61 H -2.133064 3.875626 0.887810 0
M  V30 62 H -0.058489 5.193212 0.389185 0
M  V30 63 H 2.710667 3.834300 -1.603234 0
M  V30 64 H 1.616997 5.233414 -1.536437 0
M  V30 65 H 2.425167 4.717622 -0.037005 0
M  V30 66 H 3.126651 0.520712 -0.474646 0
M  V30 67 H 5.812174 -0.520885 2.324881 0
M  V30 68 H 4.419652 0.593795 1.925380 0
M  V30 69 H 5.411131 0.667081 -0.496721 0
M  V30 70 H 6.719972 -0.358687 0.080327 0
M  V30 71 H 6.817083 2.277287 -1.203524 0
M  V30 72 H 8.077592 2.883367 -0.098460 0
M  V30 73 H 8.151091 1.164030 -0.670137 0
M  V30 74 H 5.009777 2.702624 0.222950 0
M  V30 75 H 5.222109 2.468054 2.010848 0
M  V30 76 H 6.246382 3.648212 1.052838 0
M  V30 END ATOM
M  V30 BEGIN BOND
M  V30 1 1 1 2
M  V30 2 1 2 3
M  V30 3 2 3 4
M  V30 4 1 4 5
M  V30 5 2 5 6
M  V30 6 1 6 7
M  V30 7 2 7 8
M  V30 8 1 8 9
M  V30 9 1 9 10
M  V30 10 1 10 11
M  V30 11 2 11 12
M  V30 12 1 12 13
M  V30 13 1 13 14
M  V30 14 1 14 15
M  V30 15 2 15 16
M  V30 16 1 15 17
M  V30 17 2 17 18
M  V30 18 1 18 19
M  V30 19 2 19 20
M  V30 20 1 20 21
M  V30 21 1 21 22
M  V30 22 1 22 23
M  V30 23 1 23 24
M  V30 24 1 24 25
M  V30 25 1 25 26
M  V30 26 1 26 27
M  V30 27 2 21 28
M  V30 28 2 13 29
M  V30 29 1 29 30
M  V30 30 2 30 31
M  V30 31 1 31 32
M  V30 32 2 9 33
M  V30 33 1 33 34
M  V30 34 2 34 35
M  V30 35 1 35 36
M  V30 36 1 36 37
M  V30 37 1 37 38
M  V30 38 1 38 39
M  V30 39 1 39 40
M  V30 40 1 39 41
M  V30 41 1 35 3
M  V30 42 1 33 5
M  V30 43 1 31 11
M  V30 44 1 28 17
M  V30 45 1 27 22
M  V30 46 1 1 42
M  V30 47 1 1 43
M  V30 48 1 1 44
M  V30 49 1 4 45
M  V30 50 1 7 46
M  V30 51 1 10 47
M  V30 52 1 12 48
M  V30 53 1 14 49
M  V30 54 1 18 50
M  V30 55 1 19 51
M  V30 56 1 23 52
M  V30 57 1 23 53
M  V30 58 1 24 54
M  V30 59 1 24 55
M  V30 60 1 26 56
M  V30 61 1 26 57
M  V30 62 1 27 58
M  V30 63 1 27 59
M  V30 64 1 28 60
M  V30 65 1 29 61
M  V30 66 1 30 62
M  V30 67 1 32 63
M  V30 68 1 32 64
M  V30 69 1 32 65
M  V30 70 1 34 66
M  V30 71 1 37 67
M  V30 72 1 37 68
M  V30 73 1 38 69
M  V30 74 1 38 70
M  V30 75 1 40 71
M  V30 76 1 40 72
M  V30 77 1 40 73
M  V30 78 1 41 74
M  V30 79 1 41 75
M  V30 80 1 41 76
M  V30 END BOND
M  V30 END CTAB
M  END
>  <Dataset>  (682) 
ChEMBL_Kinases

>  <Ligand_Instance>  (682) 
nan

>  <PDB_ID>  (682) 
nan

>  <Standardized_SMILES>  (682) 
COc1cc2ncnc(Nc3cc(NC(=O)c4ccnc(N5CCOCC5)c4)ccc3C)c2cc1OCCN(C)C

>  <Name>  (682) 
nan

>  <Pocket>  (682) 
nan

>  <ATP_Site>  (682) 
nan

>  <Peripheral>  (682) 
nan

>  <Num_H_Atoms_ProtBoundConf>  (682) 
nan

>  <Num_Resolved_Atoms>  (682) 
nan

>  <Num_Not_Resolved_Atoms>  (682) 
nan

$$$$
CHEMBL188122
     RDKit          3D

  0  0  0  0  0  0  0  0  0  0999 V3000
M  V30 BEGIN CTAB
M  V30 COUNTS 56 58 0 0 0
M  V30 BEGIN ATOM
M  V30 1 C 3.319617 -6.791454 5.614249 0
M  V30 2 O 3.794497 -6.427650 4.320388 0
M  V30 3 C 3.394478 -5.184853 3.844606 0
M  V30 4 C 2.582163 -4.385131 4.620690 0
M  V30 5 C 2.157286 -3.133284 4.184294 0
M  V30 6 C 2.561232 -2.683685 2.942177 0
M  V30 7 C 2.179385 -1.398069 2.387711 0
M  V30 8 O 2.554738 -0.991508 1.244990 0
M  V30 9 N 1.355750 -0.459041 3.044910 0
M  V30 10 C 1.073409 0.757407 2.366244 0
M  V30 11 C -0.025399 0.880648 1.531063 0
M  V30 12 C -0.305204 2.043159 0.875403 0
M  V30 13 N -1.480427 2.029200 0.039273 0
M  V30 14 C -1.126556 1.622566 -1.258068 0
M  V30 15 O 0.083198 1.361747 -1.435132 0
M  V30 16 C -2.043788 1.484806 -2.388817 0
M  V30 17 C -1.489022 1.069755 -3.583408 0
M  V30 18 C -2.288774 0.909598 -4.720060 0
M  V30 19 C -3.632294 1.186905 -4.570334 0
M  V30 20 C -4.222156 1.608323 -3.375172 0
M  V30 21 N -5.615950 1.878778 -3.284580 0
M  V30 22 C -6.190155 2.314561 -2.025130 0
M  V30 23 C -6.419937 1.703905 -4.478834 0
M  V30 24 C -3.391970 1.755083 -2.268708 0
M  V30 25 C 0.509613 3.152399 1.024531 0
M  V30 26 C 1.612628 3.062727 1.849592 0
M  V30 27 C 1.892920 1.875691 2.515197 0
M  V30 28 F 2.984468 1.836277 3.312381 0
M  V30 29 C 3.376988 -3.484120 2.160103 0
M  V30 30 C 3.801805 -4.732281 2.592883 0
M  V30 31 O 4.610465 -5.587333 1.879837 0
M  V30 32 C 5.139410 -5.340450 0.598745 0
M  V30 33 H 3.685706 -7.815148 5.890224 0
M  V30 34 H 2.205861 -6.747027 5.570899 0
M  V30 35 H 3.624685 -6.025397 6.372087 0
M  V30 36 H 2.244707 -4.695759 5.592680 0
M  V30 37 H 1.518325 -2.502451 4.792961 0
M  V30 38 H 0.981582 -0.692295 4.010202 0
M  V30 39 H -0.651799 0.006971 1.424619 0
M  V30 40 H -2.498605 2.256772 0.218570 0
M  V30 41 H -0.429485 0.846834 -3.717450 0
M  V30 42 H -1.865282 0.590133 -5.641710 0
M  V30 43 H -4.264928 1.062414 -5.461210 0
M  V30 44 H -5.895135 3.338774 -1.763192 0
M  V30 45 H -7.289362 2.152277 -1.998789 0
M  V30 46 H -5.799398 1.618426 -1.226619 0
M  V30 47 H -6.034949 2.304569 -5.324105 0
M  V30 48 H -7.481705 1.967376 -4.296904 0
M  V30 49 H -6.409080 0.638371 -4.829605 0
M  V30 50 H -3.814596 2.078880 -1.330200 0
M  V30 51 H 0.209551 4.041767 0.461334 0
M  V30 52 H 2.240608 3.952357 1.950939 0
M  V30 53 H 3.705568 -3.154034 1.185824 0
M  V30 54 H 6.207746 -5.051278 0.609884 0
M  V30 55 H 4.567279 -4.587575 0.018198 0
M  V30 56 H 5.113792 -6.325497 0.053186 0
M  V30 END ATOM
M  V30 BEGIN BOND
M  V30 1 1 1 2
M  V30 2 1 2 3
M  V30 3 2 3 4
M  V30 4 1 4 5
M  V30 5 2 5 6
M  V30 6 1 6 7
M  V30 7 2 7 8
M  V30 8 1 7 9
M  V30 9 1 9 10
M  V30 10 2 10 11
M  V30 11 1 11 12
M  V30 12 1 12 13
M  V30 13 1 13 14
M  V30 14 2 14 15
M  V30 15 1 14 16
M  V30 16 2 16 17
M  V30 17 1 17 18
M  V30 18 2 18 19
M  V30 19 1 19 20
M  V30 20 1 20 21
M  V30 21 1 21 22
M  V30 22 1 21 23
M  V30 23 2 20 24
M  V30 24 2 12 25
M  V30 25 1 25 26
M  V30 26 2 26 27
M  V30 27 1 27 28
M  V30 28 1 6 29
M  V30 29 2 29 30
M  V30 30 1 30 31
M  V30 31 1 31 32
M  V30 32 1 30 3
M  V30 33 1 27 10
M  V30 34 1 24 16
M  V30 35 1 1 33
M  V30 36 1 1 34
M  V30 37 1 1 35
M  V30 38 1 4 36
M  V30 39 1 5 37
M  V30 40 1 9 38
M  V30 41 1 11 39
M  V30 42 1 13 40
M  V30 43 1 17 41
M  V30 44 1 18 42
M  V30 45 1 19 43
M  V30 46 1 22 44
M  V30 47 1 22 45
M  V30 48 1 22 46
M  V30 49 1 23 47
M  V30 50 1 23 48
M  V30 51 1 23 49
M  V30 52 1 24 50
M  V30 53 1 25 51
M  V30 54 1 26 52
M  V30 55 1 29 53
M  V30 56 1 32 54
M  V30 57 1 32 55
M  V30 58 1 32 56
M  V30 END BOND
M  V30 END CTAB
M  END
>  <Dataset>  (683) 
ChEMBL_Kinases

>  <Ligand_Instance>  (683) 
nan

>  <PDB_ID>  (683) 
nan

>  <Standardized_SMILES>  (683) 
COc1ccc(C(=O)Nc2cc(NC(=O)c3cccc(N(C)C)c3)ccc2F)cc1OC

>  <Name>  (683) 
nan

>  <Pocket>  (683) 
nan

>  <ATP_Site>  (683) 
nan

>  <Peripheral>  (683) 
nan

>  <Num_H_Atoms_ProtBoundConf>  (683) 
nan

>  <Num_Resolved_Atoms>  (683) 
nan

>  <Num_Not_Resolved_Atoms>  (683) 
nan

$$$$
CHEMBL188126
     RDKit          3D

  0  0  0  0  0  0  0  0  0  0999 V3000
M  V30 BEGIN CTAB
M  V30 COUNTS 76 79 0 0 0
M  V30 BEGIN ATOM
M  V30 1 C 3.097011 -3.063926 2.654831 0
M  V30 2 C 2.022518 -4.087221 2.972269 0
M  V30 3 N 1.048129 -4.015904 1.851235 0
M  V30 4 C -0.044953 -4.948137 2.173939 0
M  V30 5 C -0.853003 -4.511511 3.351196 0
M  V30 6 C 1.765720 -4.625749 0.720430 0
M  V30 7 C 1.047323 -4.341580 -0.576045 0
M  V30 8 C 1.036998 -2.820164 -0.816768 0
M  V30 9 N 2.400333 -2.347638 -0.919207 0
M  V30 10 C 3.176610 -1.168859 -1.081530 0
M  V30 11 C 2.887722 -0.127713 -1.978202 0
M  V30 12 C 3.633872 1.056584 -2.142082 0
M  V30 13 N 2.937656 1.785011 -3.174335 0
M  V30 14 C 2.028554 2.508934 -2.359439 0
M  V30 15 C 0.757446 2.030839 -2.629182 0
M  V30 16 C -0.286006 2.623145 -1.913179 0
M  V30 17 N -1.640047 2.253219 -2.025847 0
M  V30 18 C -2.957461 2.205751 -2.459501 0
M  V30 19 O -3.140380 3.023625 -3.398589 0
M  V30 20 C -3.918467 1.304219 -1.856368 0
M  V30 21 C -5.068765 0.890044 -2.485084 0
M  V30 22 C -5.947433 0.041092 -1.856126 0
M  V30 23 N -5.728447 -0.427131 -0.599779 0
M  V30 24 C -4.629041 -0.067359 0.073760 0
M  V30 25 N -4.154092 -0.399151 1.398249 0
M  V30 26 C -4.581348 -0.192884 2.768294 0
M  V30 27 C -3.421700 0.348960 3.621065 0
M  V30 28 O -2.516461 -0.723042 3.712033 0
M  V30 29 C -1.942502 -0.802821 2.449964 0
M  V30 30 C -2.932713 -1.146655 1.366833 0
M  V30 31 C -3.765599 0.781016 -0.571584 0
M  V30 32 C -0.063648 3.645786 -0.976480 0
M  V30 33 C 1.225368 4.112887 -0.721450 0
M  V30 34 C 2.191924 3.493411 -1.448754 0
M  V30 35 C 3.585384 3.946667 -1.230537 0
M  V30 36 N 4.683396 1.085495 -1.325263 0
M  V30 37 C 5.002193 0.127065 -0.458095 0
M  V30 38 N 4.281744 -0.994875 -0.313562 0
M  V30 39 H 3.291378 -2.371745 3.524959 0
M  V30 40 H 2.726004 -2.393257 1.848486 0
M  V30 41 H 4.050320 -3.530545 2.371158 0
M  V30 42 H 2.506278 -5.057821 3.032479 0
M  V30 43 H 1.542580 -3.836373 3.926062 0
M  V30 44 H -0.663919 -5.051102 1.283899 0
M  V30 45 H 0.404603 -5.945766 2.427742 0
M  V30 46 H -0.879063 -5.282559 4.184930 0
M  V30 47 H -1.928896 -4.383081 3.049866 0
M  V30 48 H -0.532720 -3.572590 3.800041 0
M  V30 49 H 1.846452 -5.696206 0.920424 0
M  V30 50 H 2.765696 -4.191436 0.697659 0
M  V30 51 H 0.002998 -4.662123 -0.568740 0
M  V30 52 H 1.581762 -4.815022 -1.415581 0
M  V30 53 H 0.488459 -2.392899 0.038331 0
M  V30 54 H 0.515054 -2.648838 -1.772060 0
M  V30 55 H 3.107889 -3.140796 -0.899010 0
M  V30 56 H 1.970467 -0.422839 -2.516859 0
M  V30 57 H 3.095858 1.747037 -4.182848 0
M  V30 58 H 0.429738 1.264950 -3.306632 0
M  V30 59 H -1.490646 1.489616 -1.275200 0
M  V30 60 H -5.172881 1.303135 -3.483280 0
M  V30 61 H -6.839866 -0.268811 -2.373052 0
M  V30 62 H -4.859444 -1.148019 3.257508 0
M  V30 63 H -5.375988 0.583613 2.854693 0
M  V30 64 H -2.889826 1.187649 3.111199 0
M  V30 65 H -3.828494 0.635424 4.584810 0
M  V30 66 H -1.442941 0.168374 2.255360 0
M  V30 67 H -1.142110 -1.581772 2.385860 0
M  V30 68 H -3.129964 -2.253968 1.380081 0
M  V30 69 H -2.407113 -0.960244 0.410882 0
M  V30 70 H -2.878047 1.096944 -0.035093 0
M  V30 71 H -0.877375 4.116045 -0.407413 0
M  V30 72 H 1.431114 4.893446 -0.008305 0
M  V30 73 H 4.285484 3.728376 -2.037848 0
M  V30 74 H 3.529170 5.061946 -1.028274 0
M  V30 75 H 3.890302 3.509793 -0.232320 0
M  V30 76 H 5.892453 0.390207 0.086431 0
M  V30 END ATOM
M  V30 BEGIN BOND
M  V30 1 1 1 2
M  V30 2 1 2 3
M  V30 3 1 3 4
M  V30 4 1 4 5
M  V30 5 1 3 6
M  V30 6 1 6 7
M  V30 7 1 7 8
M  V30 8 1 8 9
M  V30 9 1 9 10
M  V30 10 2 10 11
M  V30 11 1 11 12
M  V30 12 1 12 13
M  V30 13 1 13 14
M  V30 14 2 14 15
M  V30 15 1 15 16
M  V30 16 1 16 17
M  V30 17 1 17 18
M  V30 18 2 18 19
M  V30 19 1 18 20
M  V30 20 2 20 21
M  V30 21 1 21 22
M  V30 22 2 22 23
M  V30 23 1 23 24
M  V30 24 1 24 25
M  V30 25 1 25 26
M  V30 26 1 26 27
M  V30 27 1 27 28
M  V30 28 1 28 29
M  V30 29 1 29 30
M  V30 30 2 24 31
M  V30 31 2 16 32
M  V30 32 1 32 33
M  V30 33 2 33 34
M  V30 34 1 34 35
M  V30 35 2 12 36
M  V30 36 1 36 37
M  V30 37 2 37 38
M  V30 38 1 38 10
M  V30 39 1 34 14
M  V30 40 1 31 20
M  V30 41 1 30 25
M  V30 42 1 1 39
M  V30 43 1 1 40
M  V30 44 1 1 41
M  V30 45 1 2 42
M  V30 46 1 2 43
M  V30 47 1 4 44
M  V30 48 1 4 45
M  V30 49 1 5 46
M  V30 50 1 5 47
M  V30 51 1 5 48
M  V30 52 1 6 49
M  V30 53 1 6 50
M  V30 54 1 7 51
M  V30 55 1 7 52
M  V30 56 1 8 53
M  V30 57 1 8 54
M  V30 58 1 9 55
M  V30 59 1 11 56
M  V30 60 1 13 57
M  V30 61 1 15 58
M  V30 62 1 17 59
M  V30 63 1 21 60
M  V30 64 1 22 61
M  V30 65 1 26 62
M  V30 66 1 26 63
M  V30 67 1 27 64
M  V30 68 1 27 65
M  V30 69 1 29 66
M  V30 70 1 29 67
M  V30 71 1 30 68
M  V30 72 1 30 69
M  V30 73 1 31 70
M  V30 74 1 32 71
M  V30 75 1 33 72
M  V30 76 1 35 73
M  V30 77 1 35 74
M  V30 78 1 35 75
M  V30 79 1 37 76
M  V30 END BOND
M  V30 END CTAB
M  END
>  <Dataset>  (684) 
ChEMBL_Kinases

>  <Ligand_Instance>  (684) 
nan

>  <PDB_ID>  (684) 
nan

>  <Standardized_SMILES>  (684) 
CCN(CC)CCCNc1cc(Nc2cc(NC(=O)c3ccnc(N4CCOCC4)c3)ccc2C)ncn1

>  <Name>  (684) 
nan

>  <Pocket>  (684) 
nan

>  <ATP_Site>  (684) 
nan

>  <Peripheral>  (684) 
nan

>  <Num_H_Atoms_ProtBoundConf>  (684) 
nan

>  <Num_Resolved_Atoms>  (684) 
nan

>  <Num_Not_Resolved_Atoms>  (684) 
nan

$$$$
CHEMBL188167
     RDKit          3D

  0  0  0  0  0  0  0  0  0  0999 V3000
M  V30 BEGIN CTAB
M  V30 COUNTS 83 88 0 0 0
M  V30 BEGIN ATOM
M  V30 1 C 7.007411 -1.745146 3.047971 0
M  V30 2 O 5.686519 -1.384999 2.661134 0
M  V30 3 C 5.151943 -1.751226 1.442093 0
M  V30 4 C 5.884839 -2.497635 0.544921 0
M  V30 5 C 5.401970 -2.895976 -0.678572 0
M  V30 6 N 6.043768 -3.620392 -1.603814 0
M  V30 7 C 5.448251 -3.958131 -2.785764 0
M  V30 8 N 4.193934 -3.561547 -3.034175 0
M  V30 9 C 3.489981 -2.821213 -2.127131 0
M  V30 10 N 2.170151 -2.591773 -2.620664 0
M  V30 11 C 0.953382 -2.757783 -1.945728 0
M  V30 12 C -0.039356 -1.832490 -1.744446 0
M  V30 13 C -1.170967 -2.099363 -1.025973 0
M  V30 14 N -2.323168 -1.367788 -0.702235 0
M  V30 15 C -2.603680 -0.411768 0.289130 0
M  V30 16 O -1.616521 -0.143282 1.050765 0
M  V30 17 C -3.860983 0.281191 0.535764 0
M  V30 18 C -3.852963 1.252069 1.513209 0
M  V30 19 C -5.050668 1.920994 1.779594 0
M  V30 20 N -6.195919 1.648231 1.118195 0
M  V30 21 C -6.202584 0.696595 0.159959 0
M  V30 22 N -7.408506 0.397385 -0.535940 0
M  V30 23 C -7.601280 -0.562100 -1.633512 0
M  V30 24 C -8.359480 -1.749082 -1.036207 0
M  V30 25 O -9.168100 -1.329514 0.022845 0
M  V30 26 C -9.717364 -0.074298 -0.220517 0
M  V30 27 C -8.679637 1.025267 -0.235260 0
M  V30 28 C -5.029834 0.006167 -0.136578 0
M  V30 29 C -1.312387 -3.381220 -0.472234 0
M  V30 30 C -0.316054 -4.347451 -0.661947 0
M  V30 31 C 0.833691 -4.049129 -1.403717 0
M  V30 32 C 1.851613 -5.137333 -1.582375 0
M  V30 33 C 4.118716 -2.494649 -0.948667 0
M  V30 34 C 3.351560 -1.760927 -0.110574 0
M  V30 35 C 3.837022 -1.360301 1.113172 0
M  V30 36 O 3.253820 -0.625120 2.084209 0
M  V30 37 C 2.013319 -0.012541 2.122617 0
M  V30 38 C 1.851014 1.063957 1.080911 0
M  V30 39 N 2.830896 2.101946 1.199674 0
M  V30 40 C 2.725991 2.927748 2.367998 0
M  V30 41 C 4.043356 3.652011 2.535534 0
M  V30 42 C 4.440628 4.434018 1.329453 0
M  V30 43 C 4.145026 3.769848 0.017285 0
M  V30 44 C 2.861126 2.976345 0.046958 0
M  V30 45 H 7.081580 -2.850243 3.192636 0
M  V30 46 H 7.324922 -1.238437 3.963617 0
M  V30 47 H 7.680244 -1.496867 2.198245 0
M  V30 48 H 6.913713 -2.817365 0.773682 0
M  V30 49 H 6.139554 -4.535479 -3.375294 0
M  V30 50 H 2.019077 -2.245795 -3.613082 0
M  V30 51 H 0.023967 -0.853221 -2.141238 0
M  V30 52 H -3.129456 -1.601665 -1.350938 0
M  V30 53 H -3.007715 1.565695 2.114455 0
M  V30 54 H -5.078380 2.691463 2.545386 0
M  V30 55 H -8.216724 -0.150794 -2.451464 0
M  V30 56 H -6.657616 -0.961742 -2.026986 0
M  V30 57 H -7.684625 -2.566249 -0.753637 0
M  V30 58 H -9.032270 -2.123789 -1.834741 0
M  V30 59 H -10.140049 -0.124341 -1.265587 0
M  V30 60 H -10.523888 0.172524 0.470550 0
M  V30 61 H -8.985988 1.789697 -0.976693 0
M  V30 62 H -8.602770 1.455615 0.793129 0
M  V30 63 H -4.990789 -0.763903 -0.895939 0
M  V30 64 H -2.126112 -3.784082 0.125515 0
M  V30 65 H -0.392666 -5.365085 -0.242323 0
M  V30 66 H 2.743518 -5.011813 -0.956482 0
M  V30 67 H 2.061160 -5.288690 -2.664557 0
M  V30 68 H 1.394958 -6.094741 -1.255659 0
M  V30 69 H 2.349396 -1.472454 -0.343268 0
M  V30 70 H 1.222871 -0.784376 1.887155 0
M  V30 71 H 1.737280 0.368564 3.128462 0
M  V30 72 H 0.840997 1.549765 1.295922 0
M  V30 73 H 1.777008 0.682855 0.069348 0
M  V30 74 H 2.572166 2.281997 3.260182 0
M  V30 75 H 1.913751 3.669487 2.289139 0
M  V30 76 H 4.827991 2.919621 2.831140 0
M  V30 77 H 3.928992 4.354528 3.387711 0
M  V30 78 H 5.546365 4.589060 1.389330 0
M  V30 79 H 3.980715 5.454853 1.387187 0
M  V30 80 H 4.031993 4.523409 -0.776610 0
M  V30 81 H 5.030399 3.143441 -0.263396 0
M  V30 82 H 2.023693 3.701559 0.059862 0
M  V30 83 H 2.798716 2.368740 -0.882720 0
M  V30 END ATOM
M  V30 BEGIN BOND
M  V30 1 1 1 2
M  V30 2 1 2 3
M  V30 3 2 3 4
M  V30 4 1 4 5
M  V30 5 2 5 6
M  V30 6 1 6 7
M  V30 7 2 7 8
M  V30 8 1 8 9
M  V30 9 1 9 10
M  V30 10 1 10 11
M  V30 11 2 11 12
M  V30 12 1 12 13
M  V30 13 1 13 14
M  V30 14 1 14 15
M  V30 15 2 15 16
M  V30 16 1 15 17
M  V30 17 2 17 18
M  V30 18 1 18 19
M  V30 19 2 19 20
M  V30 20 1 20 21
M  V30 21 1 21 22
M  V30 22 1 22 23
M  V30 23 1 23 24
M  V30 24 1 24 25
M  V30 25 1 25 26
M  V30 26 1 26 27
M  V30 27 2 21 28
M  V30 28 2 13 29
M  V30 29 1 29 30
M  V30 30 2 30 31
M  V30 31 1 31 32
M  V30 32 2 9 33
M  V30 33 1 33 34
M  V30 34 2 34 35
M  V30 35 1 35 36
M  V30 36 1 36 37
M  V30 37 1 37 38
M  V30 38 1 38 39
M  V30 39 1 39 40
M  V30 40 1 40 41
M  V30 41 1 41 42
M  V30 42 1 42 43
M  V30 43 1 43 44
M  V30 44 1 35 3
M  V30 45 1 44 39
M  V30 46 1 33 5
M  V30 47 1 31 11
M  V30 48 1 28 17
M  V30 49 1 27 22
M  V30 50 1 1 45
M  V30 51 1 1 46
M  V30 52 1 1 47
M  V30 53 1 4 48
M  V30 54 1 7 49
M  V30 55 1 10 50
M  V30 56 1 12 51
M  V30 57 1 14 52
M  V30 58 1 18 53
M  V30 59 1 19 54
M  V30 60 1 23 55
M  V30 61 1 23 56
M  V30 62 1 24 57
M  V30 63 1 24 58
M  V30 64 1 26 59
M  V30 65 1 26 60
M  V30 66 1 27 61
M  V30 67 1 27 62
M  V30 68 1 28 63
M  V30 69 1 29 64
M  V30 70 1 30 65
M  V30 71 1 32 66
M  V30 72 1 32 67
M  V30 73 1 32 68
M  V30 74 1 34 69
M  V30 75 1 37 70
M  V30 76 1 37 71
M  V30 77 1 38 72
M  V30 78 1 38 73
M  V30 79 1 40 74
M  V30 80 1 40 75
M  V30 81 1 41 76
M  V30 82 1 41 77
M  V30 83 1 42 78
M  V30 84 1 42 79
M  V30 85 1 43 80
M  V30 86 1 43 81
M  V30 87 1 44 82
M  V30 88 1 44 83
M  V30 END BOND
M  V30 END CTAB
M  END
>  <Dataset>  (685) 
ChEMBL_Kinases

>  <Ligand_Instance>  (685) 
nan

>  <PDB_ID>  (685) 
nan

>  <Standardized_SMILES>  (685) 
COc1cc2ncnc(Nc3cc(NC(=O)c4ccnc(N5CCOCC5)c4)ccc3C)c2cc1OCCN1CCCCC1

>  <Name>  (685) 
nan

>  <Pocket>  (685) 
nan

>  <ATP_Site>  (685) 
nan

>  <Peripheral>  (685) 
nan

>  <Num_H_Atoms_ProtBoundConf>  (685) 
nan

>  <Num_Resolved_Atoms>  (685) 
nan

>  <Num_Not_Resolved_Atoms>  (685) 
nan

$$$$
CHEMBL188205
     RDKit          3D

  0  0  0  0  0  0  0  0  0  0999 V3000
M  V30 BEGIN CTAB
M  V30 COUNTS 44 47 0 0 0
M  V30 BEGIN ATOM
M  V30 1 C 1.663176 -3.907765 5.814346 0
M  V30 2 O 2.185550 -3.532795 4.690024 0
M  V30 3 C 2.699422 -3.164418 3.584797 0
M  V30 4 C 1.695715 -2.254406 3.105470 0
M  V30 5 C 1.767881 -1.545646 1.882243 0
M  V30 6 C 2.887198 -1.747912 1.097643 0
M  V30 7 C 3.420705 -1.329778 -0.100029 0
M  V30 8 C 2.776047 -0.369940 -0.974267 0
M  V30 9 C 3.537964 0.091053 -2.041536 0
M  V30 10 C 3.175818 1.007879 -2.984450 0
M  V30 11 N 1.939133 1.505991 -2.845558 0
M  V30 12 C 1.141014 1.103678 -1.833326 0
M  V30 13 N -0.138991 1.703049 -1.777738 0
M  V30 14 C -1.256260 1.413438 -0.957875 0
M  V30 15 C -1.370346 0.261648 -0.161025 0
M  V30 16 C -2.462564 0.009111 0.634758 0
M  V30 17 C -2.611276 -1.198916 1.478112 0
M  V30 18 F -2.408067 -0.884902 2.794925 0
M  V30 19 F -1.706516 -2.186150 1.128896 0
M  V30 20 F -3.886228 -1.751693 1.309338 0
M  V30 21 C -3.512129 0.890032 0.686482 0
M  V30 22 C -3.453148 2.029803 -0.070757 0
M  V30 23 C -4.546452 3.033056 -0.079375 0
M  V30 24 F -5.515927 2.619695 0.805148 0
M  V30 25 F -4.070062 4.283461 0.226735 0
M  V30 26 F -5.124546 3.034581 -1.353252 0
M  V30 27 C -2.344746 2.243084 -0.851332 0
M  V30 28 N 1.555160 0.206415 -0.946722 0
M  V30 29 C 4.628754 -1.948999 -0.287955 0
M  V30 30 N 4.837555 -2.725423 0.759066 0
M  V30 31 N 3.791821 -2.610912 1.600497 0
M  V30 32 N 3.685621 -3.243852 2.733755 0
M  V30 33 H 2.444451 -4.260340 6.576721 0
M  V30 34 H 1.172154 -3.059439 6.398658 0
M  V30 35 H 0.916679 -4.750785 5.743912 0
M  V30 36 H 0.727797 -1.908013 3.508510 0
M  V30 37 H 1.098777 -0.841116 1.418531 0
M  V30 38 H 4.555025 -0.295151 -2.184571 0
M  V30 39 H 3.826749 1.315765 -3.781143 0
M  V30 40 H -0.341666 2.508332 -2.440429 0
M  V30 41 H -0.571211 -0.460018 -0.179882 0
M  V30 42 H -4.403174 0.750657 1.289969 0
M  V30 43 H -2.335523 3.166291 -1.440427 0
M  V30 44 H 5.326554 -1.869473 -1.099302 0
M  V30 END ATOM
M  V30 BEGIN BOND
M  V30 1 1 1 2
M  V30 2 1 2 3
M  V30 3 1 3 4
M  V30 4 2 4 5
M  V30 5 1 5 6
M  V30 6 2 6 7
M  V30 7 1 7 8
M  V30 8 2 8 9
M  V30 9 1 9 10
M  V30 10 2 10 11
M  V30 11 1 11 12
M  V30 12 1 12 13
M  V30 13 1 13 14
M  V30 14 2 14 15
M  V30 15 1 15 16
M  V30 16 1 16 17
M  V30 17 1 17 18
M  V30 18 1 17 19
M  V30 19 1 17 20
M  V30 20 2 16 21
M  V30 21 1 21 22
M  V30 22 1 22 23
M  V30 23 1 23 24
M  V30 24 1 23 25
M  V30 25 1 23 26
M  V30 26 2 22 27
M  V30 27 2 12 28
M  V30 28 1 7 29
M  V30 29 2 29 30
M  V30 30 1 30 31
M  V30 31 1 31 32
M  V30 32 2 32 3
M  V30 33 1 31 6
M  V30 34 1 28 8
M  V30 35 1 27 14
M  V30 36 1 1 33
M  V30 37 1 1 34
M  V30 38 1 1 35
M  V30 39 1 4 36
M  V30 40 1 5 37
M  V30 41 1 9 38
M  V30 42 1 10 39
M  V30 43 1 13 40
M  V30 44 1 15 41
M  V30 45 1 21 42
M  V30 46 1 27 43
M  V30 47 1 29 44
M  V30 END BOND
M  V30 END CTAB
M  END
>  <Dataset>  (686) 
ChEMBL_Kinases

>  <Ligand_Instance>  (686) 
nan

>  <PDB_ID>  (686) 
nan

>  <Standardized_SMILES>  (686) 
COc1ccc2c(-c3ccnc(Nc4cc(C(F)(F)F)cc(C(F)(F)F)c4)n3)cnn2n1

>  <Name>  (686) 
nan

>  <Pocket>  (686) 
nan

>  <ATP_Site>  (686) 
nan

>  <Peripheral>  (686) 
nan

>  <Num_H_Atoms_ProtBoundConf>  (686) 
nan

>  <Num_Resolved_Atoms>  (686) 
nan

>  <Num_Not_Resolved_Atoms>  (686) 
nan

$$$$
CHEMBL188234
     RDKit          3D

  0  0  0  0  0  0  0  0  0  0999 V3000
M  V30 BEGIN CTAB
M  V30 COUNTS 33 35 0 0 0
M  V30 BEGIN ATOM
M  V30 1 C -1.805370 -1.951772 4.376490 0
M  V30 2 N -1.546303 -1.466275 3.052019 0
M  V30 3 C -0.315988 -1.268265 2.374033 0
M  V30 4 O 0.760857 -1.533041 2.947041 0
M  V30 5 C -0.526737 -0.753688 1.029753 0
M  V30 6 C 0.423746 -0.477265 0.177280 0
M  V30 7 C 1.849548 -0.627291 0.402011 0
M  V30 8 O 2.519189 -1.017142 1.357934 0
M  V30 9 C 2.757446 -0.264263 -0.675806 0
M  V30 10 C 2.285634 0.208928 -1.877837 0
M  V30 11 C 3.085895 0.564263 -2.921984 0
M  V30 12 C 4.457608 0.465245 -2.826465 0
M  V30 13 C 4.990975 -0.000305 -1.652327 0
M  V30 14 C 4.131189 -0.337936 -0.648017 0
M  V30 15 C -1.978490 -0.650272 0.932291 0
M  V30 16 C -2.765053 -0.213213 -0.135059 0
M  V30 17 C -4.142097 -0.185946 -0.038930 0
M  V30 18 C -4.742566 -0.605568 1.151946 0
M  V30 19 C -3.933031 -1.031979 2.188120 0
M  V30 20 C -2.553182 -1.067972 2.114883 0
M  V30 21 H -1.906544 -1.090187 5.088516 0
M  V30 22 H -2.702198 -2.565526 4.479439 0
M  V30 23 H -0.935211 -2.541743 4.745414 0
M  V30 24 H 0.001620 -0.112528 -0.742109 0
M  V30 25 H 1.251998 0.356314 -2.143570 0
M  V30 26 H 2.751183 0.943137 -3.889738 0
M  V30 27 H 5.148102 0.729061 -3.613482 0
M  V30 28 H 6.073115 -0.098379 -1.523812 0
M  V30 29 H 4.592951 -0.705423 0.273810 0
M  V30 30 H -2.252800 0.108335 -1.053990 0
M  V30 31 H -4.761035 0.151403 -0.861338 0
M  V30 32 H -5.830580 -0.595541 1.258574 0
M  V30 33 H -4.442892 -1.347239 3.090018 0
M  V30 END ATOM
M  V30 BEGIN BOND
M  V30 1 1 1 2
M  V30 2 1 2 3
M  V30 3 2 3 4
M  V30 4 1 3 5
M  V30 5 2 5 6
M  V30 6 1 6 7
M  V30 7 2 7 8
M  V30 8 1 7 9
M  V30 9 2 9 10
M  V30 10 1 10 11
M  V30 11 2 11 12
M  V30 12 1 12 13
M  V30 13 2 13 14
M  V30 14 1 5 15
M  V30 15 2 15 16
M  V30 16 1 16 17
M  V30 17 2 17 18
M  V30 18 1 18 19
M  V30 19 2 19 20
M  V30 20 1 20 2
M  V30 21 1 14 9
M  V30 22 1 20 15
M  V30 23 1 1 21
M  V30 24 1 1 22
M  V30 25 1 1 23
M  V30 26 1 6 24
M  V30 27 1 10 25
M  V30 28 1 11 26
M  V30 29 1 12 27
M  V30 30 1 13 28
M  V30 31 1 14 29
M  V30 32 1 16 30
M  V30 33 1 17 31
M  V30 34 1 18 32
M  V30 35 1 19 33
M  V30 END BOND
M  V30 END CTAB
M  END
>  <Dataset>  (687) 
ChEMBL_Kinases

>  <Ligand_Instance>  (687) 
nan

>  <PDB_ID>  (687) 
nan

>  <Standardized_SMILES>  (687) 
CN1C(=O)/C(=C\C(=O)c2ccccc2)c2ccccc21

>  <Name>  (687) 
nan

>  <Pocket>  (687) 
nan

>  <ATP_Site>  (687) 
nan

>  <Peripheral>  (687) 
nan

>  <Num_H_Atoms_ProtBoundConf>  (687) 
nan

>  <Num_Resolved_Atoms>  (687) 
nan

>  <Num_Not_Resolved_Atoms>  (687) 
nan

$$$$
CHEMBL188240
     RDKit          3D

  0  0  0  0  0  0  0  0  0  0999 V3000
M  V30 BEGIN CTAB
M  V30 COUNTS 34 36 0 0 0
M  V30 BEGIN ATOM
M  V30 1 C -0.461395 -3.651925 4.187988 0
M  V30 2 C 0.839758 -2.919198 3.990463 0
M  V30 3 O 0.758225 -1.859358 3.065642 0
M  V30 4 C 0.385069 -2.145431 1.760108 0
M  V30 5 N 0.081120 -3.353077 1.251166 0
M  V30 6 C -0.270175 -3.520295 -0.036191 0
M  V30 7 C -0.348013 -2.470112 -0.940162 0
M  V30 8 C -0.036524 -1.213234 -0.429563 0
M  V30 9 C 0.323529 -1.055852 0.897860 0
M  V30 10 N 0.550387 0.260786 1.041383 0
M  V30 11 C 0.338671 0.871049 -0.139121 0
M  V30 12 C 0.496173 2.296854 -0.330583 0
M  V30 13 N 0.327043 3.057446 -1.428959 0
M  V30 14 O 0.576186 4.305904 -1.158819 0
M  V30 15 N 0.909699 4.448060 0.072819 0
M  V30 16 C 0.874253 3.207982 0.638925 0
M  V30 17 N 1.188308 2.969833 2.010361 0
M  V30 18 N -0.028072 -0.026232 -1.071817 0
M  V30 19 C -0.345330 0.207835 -2.453627 0
M  V30 20 C -1.805898 0.496571 -2.684955 0
M  V30 21 H -1.051234 -3.226191 5.026871 0
M  V30 22 H -0.199687 -4.694158 4.522141 0
M  V30 23 H -1.068001 -3.768273 3.290829 0
M  V30 24 H 1.178561 -2.596221 4.985956 0
M  V30 25 H 1.593683 -3.671026 3.621884 0
M  V30 26 H -0.481162 -4.560094 -0.274797 0
M  V30 27 H -0.634930 -2.691824 -1.943160 0
M  V30 28 H 2.089999 3.135463 2.508265 0
M  V30 29 H 0.549008 2.581382 2.754883 0
M  V30 30 H -0.061373 -0.616634 -3.137133 0
M  V30 31 H 0.271981 1.081741 -2.783487 0
M  V30 32 H -2.307349 -0.438057 -3.047058 0
M  V30 33 H -1.890753 1.218280 -3.527004 0
M  V30 34 H -2.343365 0.794521 -1.782868 0
M  V30 END ATOM
M  V30 BEGIN BOND
M  V30 1 1 1 2
M  V30 2 1 2 3
M  V30 3 1 3 4
M  V30 4 2 4 5
M  V30 5 1 5 6
M  V30 6 2 6 7
M  V30 7 1 7 8
M  V30 8 2 8 9
M  V30 9 1 9 10
M  V30 10 2 10 11
M  V30 11 1 11 12
M  V30 12 2 12 13
M  V30 13 1 13 14
M  V30 14 1 14 15
M  V30 15 2 15 16
M  V30 16 1 16 17
M  V30 17 1 11 18
M  V30 18 1 18 19
M  V30 19 1 19 20
M  V30 20 1 9 4
M  V30 21 1 16 12
M  V30 22 1 18 8
M  V30 23 1 1 21
M  V30 24 1 1 22
M  V30 25 1 1 23
M  V30 26 1 2 24
M  V30 27 1 2 25
M  V30 28 1 6 26
M  V30 29 1 7 27
M  V30 30 1 17 28
M  V30 31 1 17 29
M  V30 32 1 19 30
M  V30 33 1 19 31
M  V30 34 1 20 32
M  V30 35 1 20 33
M  V30 36 1 20 34
M  V30 END BOND
M  V30 END CTAB
M  END
>  <Dataset>  (688) 
ChEMBL_Kinases

>  <Ligand_Instance>  (688) 
nan

>  <PDB_ID>  (688) 
nan

>  <Standardized_SMILES>  (688) 
CCOc1nccc2c1nc(-c1nonc1N)n2CC

>  <Name>  (688) 
nan

>  <Pocket>  (688) 
nan

>  <ATP_Site>  (688) 
nan

>  <Peripheral>  (688) 
nan

>  <Num_H_Atoms_ProtBoundConf>  (688) 
nan

>  <Num_Resolved_Atoms>  (688) 
nan

>  <Num_Not_Resolved_Atoms>  (688) 
nan

$$$$
CHEMBL1880739
     RDKit          3D

  0  0  0  0  0  0  0  0  0  0999 V3000
M  V30 BEGIN CTAB
M  V30 COUNTS 29 31 0 0 0
M  V30 BEGIN ATOM
M  V30 1 O -1.103277 -2.022765 2.147497 0
M  V30 2 C -0.162748 -2.229097 1.346061 0
M  V30 3 N 0.288488 -3.549645 0.981809 0
M  V30 4 C 1.347856 -3.294070 0.073994 0
M  V30 5 C 2.130538 -4.245405 -0.577011 0
M  V30 6 C 3.140949 -3.902187 -1.442927 0
M  V30 7 C 3.377830 -2.546271 -1.665914 0
M  V30 8 I 4.894935 -1.860929 -2.969539 0
M  V30 9 C 2.604240 -1.605663 -1.021786 0
M  V30 10 C 1.583866 -1.955995 -0.148263 0
M  V30 11 C 0.617581 -1.218075 0.663787 0
M  V30 12 C 0.583668 0.098727 0.655396 0
M  V30 13 C -0.309087 1.003301 1.368883 0
M  V30 14 C -0.026902 2.097012 2.156914 0
M  V30 15 C -1.070225 2.821102 2.696711 0
M  V30 16 Br -0.568286 4.326051 3.783421 0
M  V30 17 C -2.400095 2.514384 2.493343 0
M  V30 18 O -3.388188 3.301898 3.079265 0
M  V30 19 C -2.676630 1.400824 1.689799 0
M  V30 20 Br -4.530759 1.040519 1.446871 0
M  V30 21 C -1.638511 0.660048 1.138137 0
M  V30 22 H -0.129120 -4.424170 1.353932 0
M  V30 23 H 1.968477 -5.308783 -0.420351 0
M  V30 24 H 3.760327 -4.634134 -1.960783 0
M  V30 25 H 2.800373 -0.546736 -1.205034 0
M  V30 26 H 1.234554 0.718186 0.097510 0
M  V30 27 H 1.032129 2.266202 2.263312 0
M  V30 28 H -3.572671 3.174821 4.074313 0
M  V30 29 H -2.066414 -0.131551 0.549349 0
M  V30 END ATOM
M  V30 BEGIN BOND
M  V30 1 2 1 2
M  V30 2 1 2 3
M  V30 3 1 3 4
M  V30 4 2 4 5
M  V30 5 1 5 6
M  V30 6 2 6 7
M  V30 7 1 7 8
M  V30 8 1 7 9
M  V30 9 2 9 10
M  V30 10 1 10 11
M  V30 11 2 11 12 CFG=2
M  V30 12 1 12 13
M  V30 13 2 13 14
M  V30 14 1 14 15
M  V30 15 1 15 16
M  V30 16 2 15 17
M  V30 17 1 17 18
M  V30 18 1 17 19
M  V30 19 1 19 20
M  V30 20 2 19 21
M  V30 21 1 11 2
M  V30 22 1 21 13
M  V30 23 1 10 4
M  V30 24 1 3 22
M  V30 25 1 5 23
M  V30 26 1 6 24
M  V30 27 1 9 25
M  V30 28 1 12 26
M  V30 29 1 14 27
M  V30 30 1 18 28
M  V30 31 1 21 29
M  V30 END BOND
M  V30 END CTAB
M  END
>  <Dataset>  (689) 
ChEMBL_Kinases

>  <Ligand_Instance>  (689) 
nan

>  <PDB_ID>  (689) 
nan

>  <Standardized_SMILES>  (689) 
O=C1Nc2ccc(I)cc2C1=Cc1cc(Br)c(O)c(Br)c1

>  <Name>  (689) 
GW305074X

>  <Pocket>  (689) 
nan

>  <ATP_Site>  (689) 
nan

>  <Peripheral>  (689) 
nan

>  <Num_H_Atoms_ProtBoundConf>  (689) 
nan

>  <Num_Resolved_Atoms>  (689) 
nan

>  <Num_Not_Resolved_Atoms>  (689) 
nan

$$$$
CHEMBL184682
     RDKit          3D

  0  0  0  0  0  0  0  0  0  0999 V3000
M  V30 BEGIN CTAB
M  V30 COUNTS 58 61 0 0 0
M  V30 BEGIN ATOM
M  V30 1 C 5.863009 -4.452948 2.685835 0
M  V30 2 O 4.715232 -4.065751 1.955332 0
M  V30 3 C 4.605809 -2.737505 1.582500 0
M  V30 4 C 5.500356 -1.719267 1.843318 0
M  V30 5 C 5.242968 -0.428472 1.395590 0
M  V30 6 N 6.179124 0.516213 1.693804 0
M  V30 7 C 5.966854 1.796881 1.270418 0
M  V30 8 N 4.852277 2.150694 0.563186 0
M  V30 9 C 3.919521 1.205801 0.266995 0
M  V30 10 N 2.708859 1.385195 -0.457429 0
M  V30 11 C 1.558087 1.803343 0.296368 0
M  V30 12 C 1.685437 2.110489 1.634343 0
M  V30 13 C 0.621075 2.514166 2.410989 0
M  V30 14 C -0.635656 2.623293 1.849087 0
M  V30 15 Cl -2.062920 3.119530 2.705715 0
M  V30 16 C -0.765097 2.316320 0.511002 0
M  V30 17 N -1.999810 2.367435 -0.240030 0
M  V30 18 C -2.546194 1.044460 -0.082299 0
M  V30 19 O -1.743557 0.361449 0.643208 0
M  V30 20 C -3.811675 0.569516 -0.660309 0
M  V30 21 C -4.726426 1.273907 -1.451390 0
M  V30 22 C -5.849503 0.597824 -1.877417 0
M  V30 23 C -6.097249 -0.720368 -1.557953 0
M  V30 24 C -5.196099 -1.413932 -0.778993 0
M  V30 25 N -5.449490 -2.767200 -0.453381 0
M  V30 26 C -6.632511 -3.461314 -0.917971 0
M  V30 27 C -4.506128 -3.496441 0.371894 0
M  V30 28 C -4.070848 -0.767945 -0.340741 0
M  V30 29 C 0.298333 1.911190 -0.272973 0
M  V30 30 C 4.081771 -0.113814 0.672215 0
M  V30 31 C 3.207012 -1.136530 0.423607 0
M  V30 32 C 3.468016 -2.426403 0.873013 0
M  V30 33 O 2.510801 -3.365936 0.558679 0
M  V30 34 C 1.344002 -3.100591 -0.157207 0
M  V30 35 H 6.740968 -3.979485 2.194936 0
M  V30 36 H 5.937354 -5.567188 2.574628 0
M  V30 37 H 5.776066 -4.169640 3.754120 0
M  V30 38 H 6.375630 -1.990433 2.398013 0
M  V30 39 H 6.632576 2.630082 1.443939 0
M  V30 40 H 2.560968 1.246312 -1.480616 0
M  V30 41 H 2.640344 2.053156 2.165549 0
M  V30 42 H 0.683722 2.767714 3.477755 0
M  V30 43 H -2.573980 3.042093 -0.826391 0
M  V30 44 H -4.423050 2.275318 -1.625171 0
M  V30 45 H -6.515952 1.212809 -2.489252 0
M  V30 46 H -7.011175 -1.136477 -1.952839 0
M  V30 47 H -7.539746 -2.828692 -0.946238 0
M  V30 48 H -6.382297 -3.812732 -1.961976 0
M  V30 49 H -6.799522 -4.379812 -0.299463 0
M  V30 50 H -4.535187 -3.127368 1.416703 0
M  V30 51 H -4.720886 -4.602925 0.332234 0
M  V30 52 H -3.479395 -3.396813 0.007011 0
M  V30 53 H -3.397985 -1.381438 0.275239 0
M  V30 54 H 0.253252 1.661761 -1.314206 0
M  V30 55 H 2.308133 -0.890221 -0.136549 0
M  V30 56 H 0.584681 -2.561473 0.442625 0
M  V30 57 H 0.900602 -4.096417 -0.442126 0
M  V30 58 H 1.494110 -2.499269 -1.079668 0
M  V30 END ATOM
M  V30 BEGIN BOND
M  V30 1 1 1 2
M  V30 2 1 2 3
M  V30 3 2 3 4
M  V30 4 1 4 5
M  V30 5 2 5 6
M  V30 6 1 6 7
M  V30 7 2 7 8
M  V30 8 1 8 9
M  V30 9 1 9 10
M  V30 10 1 10 11
M  V30 11 2 11 12
M  V30 12 1 12 13
M  V30 13 2 13 14
M  V30 14 1 14 15
M  V30 15 1 14 16
M  V30 16 1 16 17
M  V30 17 1 17 18
M  V30 18 2 18 19
M  V30 19 1 18 20
M  V30 20 2 20 21
M  V30 21 1 21 22
M  V30 22 2 22 23
M  V30 23 1 23 24
M  V30 24 1 24 25
M  V30 25 1 25 26
M  V30 26 1 25 27
M  V30 27 2 24 28
M  V30 28 2 16 29
M  V30 29 2 9 30
M  V30 30 1 30 31
M  V30 31 2 31 32
M  V30 32 1 32 33
M  V30 33 1 33 34
M  V30 34 1 32 3
M  V30 35 1 30 5
M  V30 36 1 29 11
M  V30 37 1 28 20
M  V30 38 1 1 35
M  V30 39 1 1 36
M  V30 40 1 1 37
M  V30 41 1 4 38
M  V30 42 1 7 39
M  V30 43 1 10 40
M  V30 44 1 12 41
M  V30 45 1 13 42
M  V30 46 1 17 43
M  V30 47 1 21 44
M  V30 48 1 22 45
M  V30 49 1 23 46
M  V30 50 1 26 47
M  V30 51 1 26 48
M  V30 52 1 26 49
M  V30 53 1 27 50
M  V30 54 1 27 51
M  V30 55 1 27 52
M  V30 56 1 28 53
M  V30 57 1 29 54
M  V30 58 1 31 55
M  V30 59 1 34 56
M  V30 60 1 34 57
M  V30 61 1 34 58
M  V30 END BOND
M  V30 END CTAB
M  END
>  <Dataset>  (690) 
ChEMBL_Kinases

>  <Ligand_Instance>  (690) 
nan

>  <PDB_ID>  (690) 
nan

>  <Standardized_SMILES>  (690) 
COc1cc2ncnc(Nc3ccc(Cl)c(NC(=O)c4cccc(N(C)C)c4)c3)c2cc1OC

>  <Name>  (690) 
nan

>  <Pocket>  (690) 
nan

>  <ATP_Site>  (690) 
nan

>  <Peripheral>  (690) 
nan

>  <Num_H_Atoms_ProtBoundConf>  (690) 
nan

>  <Num_Resolved_Atoms>  (690) 
nan

>  <Num_Not_Resolved_Atoms>  (690) 
nan

$$$$
CHEMBL184659
     RDKit          3D

  0  0  0  0  0  0  0  0  0  0999 V3000
M  V30 BEGIN CTAB
M  V30 COUNTS 80 85 0 0 0
M  V30 BEGIN ATOM
M  V30 1 C -1.842875 -3.936383 1.944002 0
M  V30 2 O -1.026433 -3.106599 1.218117 0
M  V30 3 C -0.338248 -2.399213 0.593589 0
M  V30 4 C -1.219596 -2.130695 -0.493947 0
M  V30 5 C -1.017770 -1.327177 -1.605952 0
M  V30 6 N -1.781599 -1.102515 -2.734810 0
M  V30 7 C -1.153957 -0.286155 -3.662698 0
M  V30 8 N -0.020509 0.363957 -3.790536 0
M  V30 9 C 0.860457 0.189175 -2.631635 0
M  V30 10 N 2.053812 0.908425 -2.285343 0
M  V30 11 C 1.521437 2.062001 -1.628288 0
M  V30 12 C 0.152566 2.411166 -1.557547 0
M  V30 13 C -0.591106 3.491015 -0.888697 0
M  V30 14 N -1.865094 3.018615 -1.323373 0
M  V30 15 C -2.059931 2.155522 -0.225916 0
M  V30 16 O -1.035913 2.541857 0.522876 0
M  V30 17 C -2.890599 1.000410 0.377100 0
M  V30 18 C -2.308210 0.546509 1.717204 0
M  V30 19 C -3.148590 -0.552545 1.716877 0
M  V30 20 N -4.063737 -1.216030 1.110350 0
M  V30 21 C -4.462403 -0.633789 -0.133484 0
M  V30 22 N -5.321389 -1.575834 -0.694282 0
M  V30 23 C -5.496066 -1.658588 -2.135359 0
M  V30 24 C -4.909618 -2.976345 -2.641777 0
M  V30 25 O -5.494487 -4.039334 -1.962861 0
M  V30 26 C -5.339103 -3.927436 -0.580417 0
M  V30 27 C -6.067532 -2.667677 -0.129294 0
M  V30 28 C -3.845120 0.505195 -0.467039 0
M  V30 29 C 0.292543 4.242692 -0.250204 0
M  V30 30 C 1.629313 4.013952 -0.238913 0
M  V30 31 C 2.225913 2.967076 -0.894276 0
M  V30 32 C 3.679295 2.707640 -0.792682 0
M  V30 33 C 0.267293 -0.654130 -1.659324 0
M  V30 34 C 1.079563 -0.941160 -0.608985 0
M  V30 35 C 0.892991 -1.789514 0.546737 0
M  V30 36 O 1.522799 -2.226834 1.656048 0
M  V30 37 C 2.917315 -1.919058 1.850333 0
M  V30 38 C 3.498895 -2.134975 3.153794 0
M  V30 39 N 4.859060 -1.610938 3.311770 0
M  V30 40 C 5.875099 -2.314600 2.623088 0
M  V30 41 C 6.855068 -1.239636 2.120313 0
M  V30 42 C 5.840614 -0.155488 1.666519 0
M  V30 43 C 4.849128 -0.232083 2.805858 0
M  V30 44 H -1.792265 -4.970944 1.769648 0
M  V30 45 H -1.556705 -3.745840 3.070135 0
M  V30 46 H -2.925833 -3.569783 1.848712 0
M  V30 47 H -2.238236 -2.506529 -0.714179 0
M  V30 48 H -1.839808 -0.150912 -4.497469 0
M  V30 49 H 2.447330 0.157256 -2.716586 0
M  V30 50 H -0.470923 1.729005 -2.167852 0
M  V30 51 H -2.726425 2.850179 -1.825386 0
M  V30 52 H -1.586410 1.107444 2.147281 0
M  V30 53 H -2.817268 -1.044934 2.724968 0
M  V30 54 H -6.564366 -1.586665 -2.324882 0
M  V30 55 H -4.981597 -0.896160 -2.721021 0
M  V30 56 H -5.185529 -3.061877 -3.725513 0
M  V30 57 H -3.798825 -2.953405 -2.582848 0
M  V30 58 H -5.748707 -4.774181 -0.077391 0
M  V30 59 H -4.267764 -3.804222 -0.270977 0
M  V30 60 H -7.106177 -2.740236 -0.577186 0
M  V30 61 H -6.102246 -2.682466 0.973691 0
M  V30 62 H -4.202213 0.916680 -1.388711 0
M  V30 63 H -0.331855 4.976736 0.182151 0
M  V30 64 H 2.149721 4.751744 0.379155 0
M  V30 65 H 4.033757 2.156544 -1.682217 0
M  V30 66 H 4.250996 3.619257 -0.627303 0
M  V30 67 H 3.769747 1.970156 0.060779 0
M  V30 68 H 2.089372 -0.518483 -0.483968 0
M  V30 69 H 3.333811 -2.935653 1.270636 0
M  V30 70 H 3.282606 -1.218526 1.137484 0
M  V30 71 H 3.650867 -3.247574 3.395066 0
M  V30 72 H 2.844937 -1.803501 4.004221 0
M  V30 73 H 6.493706 -2.967481 3.305925 0
M  V30 74 H 5.461457 -2.850934 1.756926 0
M  V30 75 H 7.447907 -1.595369 1.283476 0
M  V30 76 H 7.412646 -0.763350 2.905206 0
M  V30 77 H 6.339532 0.800619 1.538983 0
M  V30 78 H 5.429653 -0.527127 0.701201 0
M  V30 79 H 5.140240 0.459097 3.617603 0
M  V30 80 H 3.863004 0.022410 2.357118 0
M  V30 END ATOM
M  V30 BEGIN BOND
M  V30 1 1 1 2
M  V30 2 1 2 3
M  V30 3 2 3 4
M  V30 4 1 4 5
M  V30 5 2 5 6
M  V30 6 1 6 7
M  V30 7 2 7 8
M  V30 8 1 8 9
M  V30 9 1 9 10
M  V30 10 1 10 11
M  V30 11 2 11 12
M  V30 12 1 12 13
M  V30 13 1 13 14
M  V30 14 1 14 15
M  V30 15 2 15 16
M  V30 16 1 15 17
M  V30 17 2 17 18
M  V30 18 1 18 19
M  V30 19 2 19 20
M  V30 20 1 20 21
M  V30 21 1 21 22
M  V30 22 1 22 23
M  V30 23 1 23 24
M  V30 24 1 24 25
M  V30 25 1 25 26
M  V30 26 1 26 27
M  V30 27 2 21 28
M  V30 28 2 13 29
M  V30 29 1 29 30
M  V30 30 2 30 31
M  V30 31 1 31 32
M  V30 32 2 9 33
M  V30 33 1 33 34
M  V30 34 2 34 35
M  V30 35 1 35 36
M  V30 36 1 36 37
M  V30 37 1 37 38
M  V30 38 1 38 39
M  V30 39 1 39 40
M  V30 40 1 40 41
M  V30 41 1 41 42
M  V30 42 1 42 43
M  V30 43 1 35 3
M  V30 44 1 43 39
M  V30 45 1 33 5
M  V30 46 1 31 11
M  V30 47 1 28 17
M  V30 48 1 27 22
M  V30 49 1 1 44
M  V30 50 1 1 45
M  V30 51 1 1 46
M  V30 52 1 4 47
M  V30 53 1 7 48
M  V30 54 1 10 49
M  V30 55 1 12 50
M  V30 56 1 14 51
M  V30 57 1 18 52
M  V30 58 1 19 53
M  V30 59 1 23 54
M  V30 60 1 23 55
M  V30 61 1 24 56
M  V30 62 1 24 57
M  V30 63 1 26 58
M  V30 64 1 26 59
M  V30 65 1 27 60
M  V30 66 1 27 61
M  V30 67 1 28 62
M  V30 68 1 29 63
M  V30 69 1 30 64
M  V30 70 1 32 65
M  V30 71 1 32 66
M  V30 72 1 32 67
M  V30 73 1 34 68
M  V30 74 1 37 69
M  V30 75 1 37 70
M  V30 76 1 38 71
M  V30 77 1 38 72
M  V30 78 1 40 73
M  V30 79 1 40 74
M  V30 80 1 41 75
M  V30 81 1 41 76
M  V30 82 1 42 77
M  V30 83 1 42 78
M  V30 84 1 43 79
M  V30 85 1 43 80
M  V30 END BOND
M  V30 END CTAB
M  END
>  <Dataset>  (691) 
ChEMBL_Kinases

>  <Ligand_Instance>  (691) 
nan

>  <PDB_ID>  (691) 
nan

>  <Standardized_SMILES>  (691) 
COc1cc2ncnc(Nc3cc(NC(=O)c4ccnc(N5CCOCC5)c4)ccc3C)c2cc1OCCN1CCCC1

>  <Name>  (691) 
nan

>  <Pocket>  (691) 
nan

>  <ATP_Site>  (691) 
nan

>  <Peripheral>  (691) 
nan

>  <Num_H_Atoms_ProtBoundConf>  (691) 
nan

>  <Num_Resolved_Atoms>  (691) 
nan

>  <Num_Not_Resolved_Atoms>  (691) 
nan

$$$$
CHEMBL184657
     RDKit          3D

  0  0  0  0  0  0  0  0  0  0999 V3000
M  V30 BEGIN CTAB
M  V30 COUNTS 53 57 0 0 0
M  V30 BEGIN ATOM
M  V30 1 C 2.304257 -2.834811 5.903066 0
M  V30 2 C 1.895266 -2.639371 4.485728 0
M  V30 3 C 2.399762 -1.491837 3.872980 0
M  V30 4 C 2.093039 -1.197382 2.558813 0
M  V30 5 C 1.271207 -2.043378 1.816904 0
M  V30 6 C 0.757534 -2.091788 0.536423 0
M  V30 7 C 1.069558 -1.040060 -0.427724 0
M  V30 8 C 1.769013 -1.385656 -1.561837 0
M  V30 9 C 2.070430 -0.404340 -2.479399 0
M  V30 10 N 1.666989 0.846865 -2.224373 0
M  V30 11 C 0.985433 1.216442 -1.131652 0
M  V30 12 N 0.612800 2.577748 -0.972603 0
M  V30 13 C -0.097286 3.170209 0.082552 0
M  V30 14 C -0.373674 4.540508 0.078338 0
M  V30 15 C -1.060835 5.172990 1.076632 0
M  V30 16 C -1.527800 4.477935 2.163832 0
M  V30 17 Cl -2.396706 5.327116 3.406817 0
M  V30 18 C -1.285890 3.135568 2.219551 0
M  V30 19 C -1.788540 2.379410 3.391999 0
M  V30 20 F -1.463155 1.036259 3.300302 0
M  V30 21 F -3.174137 2.445279 3.477773 0
M  V30 22 F -1.305353 2.903065 4.558546 0
M  V30 23 C -0.593868 2.536085 1.200593 0
M  V30 24 N 0.708140 0.239871 -0.259656 0
M  V30 25 C -0.002885 -3.240850 0.472810 0
M  V30 26 C -0.708473 -3.624952 -0.743409 0
M  V30 27 C -0.356040 -4.824214 -1.333752 0
M  V30 28 C -0.995245 -5.251544 -2.502953 0
M  V30 29 C -1.990151 -4.498021 -3.101744 0
M  V30 30 C -2.339486 -3.293944 -2.503240 0
M  V30 31 C -3.404168 -2.428951 -3.092488 0
M  V30 32 F -4.394290 -3.210824 -3.673099 0
M  V30 33 F -2.849841 -1.664373 -4.098502 0
M  V30 34 F -4.009183 -1.658886 -2.134863 0
M  V30 35 C -1.710525 -2.859632 -1.340908 0
M  V30 36 N 0.058851 -3.857203 1.684578 0
M  V30 37 N 0.826742 -3.137937 2.498867 0
M  V30 38 N 1.102999 -3.446937 3.757161 0
M  V30 39 H 1.857444 -3.759775 6.290265 0
M  V30 40 H 1.878830 -1.954463 6.461677 0
M  V30 41 H 3.404967 -2.772072 6.025326 0
M  V30 42 H 3.037757 -0.769489 4.336985 0
M  V30 43 H 2.469044 -0.311127 2.048351 0
M  V30 44 H 2.098890 -2.390483 -1.777027 0
M  V30 45 H 2.620269 -0.617083 -3.392990 0
M  V30 46 H 0.901993 3.234190 -1.739661 0
M  V30 47 H -0.032645 5.147456 -0.752081 0
M  V30 48 H -1.241213 6.237959 1.011608 0
M  V30 49 H -0.446649 1.486821 1.318418 0
M  V30 50 H 0.408926 -5.453828 -0.916764 0
M  V30 51 H -0.691271 -6.195810 -2.934660 0
M  V30 52 H -2.484403 -4.830336 -4.007439 0
M  V30 53 H -1.960362 -1.944401 -0.866471 0
M  V30 END ATOM
M  V30 BEGIN BOND
M  V30 1 1 1 2
M  V30 2 1 2 3
M  V30 3 2 3 4
M  V30 4 1 4 5
M  V30 5 2 5 6
M  V30 6 1 6 7
M  V30 7 2 7 8
M  V30 8 1 8 9
M  V30 9 2 9 10
M  V30 10 1 10 11
M  V30 11 1 11 12
M  V30 12 1 12 13
M  V30 13 2 13 14
M  V30 14 1 14 15
M  V30 15 2 15 16
M  V30 16 1 16 17
M  V30 17 1 16 18
M  V30 18 1 18 19
M  V30 19 1 19 20
M  V30 20 1 19 21
M  V30 21 1 19 22
M  V30 22 2 18 23
M  V30 23 2 11 24
M  V30 24 1 6 25
M  V30 25 1 25 26
M  V30 26 2 26 27
M  V30 27 1 27 28
M  V30 28 2 28 29
M  V30 29 1 29 30
M  V30 30 1 30 31
M  V30 31 1 31 32
M  V30 32 1 31 33
M  V30 33 1 31 34
M  V30 34 2 30 35
M  V30 35 2 25 36
M  V30 36 1 36 37
M  V30 37 1 37 38
M  V30 38 2 38 2
M  V30 39 1 37 5
M  V30 40 1 24 7
M  V30 41 1 35 26
M  V30 42 1 23 13
M  V30 43 1 1 39
M  V30 44 1 1 40
M  V30 45 1 1 41
M  V30 46 1 3 42
M  V30 47 1 4 43
M  V30 48 1 8 44
M  V30 49 1 9 45
M  V30 50 1 12 46
M  V30 51 1 14 47
M  V30 52 1 15 48
M  V30 53 1 23 49
M  V30 54 1 27 50
M  V30 55 1 28 51
M  V30 56 1 29 52
M  V30 57 1 35 53
M  V30 END BOND
M  V30 END CTAB
M  END
>  <Dataset>  (692) 
ChEMBL_Kinases

>  <Ligand_Instance>  (692) 
nan

>  <PDB_ID>  (692) 
nan

>  <Standardized_SMILES>  (692) 
Cc1ccc2c(-c3ccnc(Nc4ccc(Cl)c(C(F)(F)F)c4)n3)c(-c3cccc(C(F)(F)F)c3)nn2n1

>  <Name>  (692) 
nan

>  <Pocket>  (692) 
nan

>  <ATP_Site>  (692) 
nan

>  <Peripheral>  (692) 
nan

>  <Num_H_Atoms_ProtBoundConf>  (692) 
nan

>  <Num_Resolved_Atoms>  (692) 
nan

>  <Num_Not_Resolved_Atoms>  (692) 
nan

$$$$
CHEMBL184656
     RDKit          3D

  0  0  0  0  0  0  0  0  0  0999 V3000
M  V30 BEGIN CTAB
M  V30 COUNTS 47 51 0 0 0
M  V30 BEGIN ATOM
M  V30 1 F -1.343329 -5.074103 5.348125 0
M  V30 2 C -0.436887 -4.336914 4.678805 0
M  V30 3 C 0.830890 -4.270447 5.207082 0
M  V30 4 C 1.796859 -3.531777 4.566188 0
M  V30 5 C 1.598914 -2.831591 3.406620 0
M  V30 6 N 2.630393 -2.085143 2.784826 0
M  V30 7 C 2.599256 -1.315243 1.608362 0
M  V30 8 N 3.706561 -0.686940 1.193687 0
M  V30 9 C 3.742985 0.055318 0.093494 0
M  V30 10 C 2.629267 0.223958 -0.694669 0
M  V30 11 C 1.482425 -0.415624 -0.281320 0
M  V30 12 C 0.164990 -0.419013 -0.897267 0
M  V30 13 C -0.699876 0.645457 -1.023130 0
M  V30 14 C -0.527809 2.021752 -0.579922 0
M  V30 15 C 0.366766 2.994570 -0.966367 0
M  V30 16 C 0.339028 4.246199 -0.391433 0
M  V30 17 C -0.593677 4.536124 0.584499 0
M  V30 18 C -1.504702 3.584137 0.994746 0
M  V30 19 C -2.483900 3.967433 2.054207 0
M  V30 20 F -2.757957 5.317308 2.018279 0
M  V30 21 F -3.679984 3.312758 1.876881 0
M  V30 22 F -1.990741 3.684274 3.313951 0
M  V30 23 C -1.472647 2.320294 0.410210 0
M  V30 24 N -1.818650 0.202587 -1.661966 0
M  V30 25 N -1.675185 -1.091047 -1.933299 0
M  V30 26 N -2.566414 -1.878100 -2.555677 0
M  V30 27 C -2.258250 -3.187340 -2.754190 0
M  V30 28 C -1.050678 -3.653356 -2.311816 0
M  V30 29 C -0.152423 -2.820298 -1.673878 0
M  V30 30 C -0.475682 -1.486082 -1.476023 0
M  V30 31 N 1.523058 -1.142119 0.831521 0
M  V30 32 C 0.313568 -2.940487 2.933807 0
M  V30 33 C -0.699358 -3.662203 3.525662 0
M  V30 34 F -1.953420 -3.725676 3.002551 0
M  V30 35 H 1.069098 -4.794866 6.121683 0
M  V30 36 H 2.784714 -3.518245 5.034934 0
M  V30 37 H 3.552528 -2.129171 3.302219 0
M  V30 38 H 4.639844 0.562885 -0.240140 0
M  V30 39 H 2.526215 0.791155 -1.600194 0
M  V30 40 H 1.030575 2.646842 -1.725797 0
M  V30 41 H 1.079365 4.938456 -0.760172 0
M  V30 42 H -0.524671 5.532371 0.959585 0
M  V30 43 H -2.230730 1.673202 0.815280 0
M  V30 44 H -2.927850 -3.885580 -3.248594 0
M  V30 45 H -0.810843 -4.699458 -2.474619 0
M  V30 46 H 0.804921 -3.180598 -1.321558 0
M  V30 47 H 0.013532 -2.439928 2.026423 0
M  V30 END ATOM
M  V30 BEGIN BOND
M  V30 1 1 1 2
M  V30 2 2 2 3
M  V30 3 1 3 4
M  V30 4 2 4 5
M  V30 5 1 5 6
M  V30 6 1 6 7
M  V30 7 2 7 8
M  V30 8 1 8 9
M  V30 9 2 9 10
M  V30 10 1 10 11
M  V30 11 1 11 12
M  V30 12 1 12 13
M  V30 13 1 13 14
M  V30 14 2 14 15
M  V30 15 1 15 16
M  V30 16 2 16 17
M  V30 17 1 17 18
M  V30 18 1 18 19
M  V30 19 1 19 20
M  V30 20 1 19 21
M  V30 21 1 19 22
M  V30 22 2 18 23
M  V30 23 2 13 24
M  V30 24 1 24 25
M  V30 25 1 25 26
M  V30 26 2 26 27
M  V30 27 1 27 28
M  V30 28 2 28 29
M  V30 29 1 29 30
M  V30 30 2 11 31
M  V30 31 1 5 32
M  V30 32 2 32 33
M  V30 33 1 33 34
M  V30 34 1 33 2
M  V30 35 1 31 7
M  V30 36 2 30 12
M  V30 37 1 23 14
M  V30 38 1 30 25
M  V30 39 1 3 35
M  V30 40 1 4 36
M  V30 41 1 6 37
M  V30 42 1 9 38
M  V30 43 1 10 39
M  V30 44 1 15 40
M  V30 45 1 16 41
M  V30 46 1 17 42
M  V30 47 1 23 43
M  V30 48 1 27 44
M  V30 49 1 28 45
M  V30 50 1 29 46
M  V30 51 1 32 47
M  V30 END BOND
M  V30 END CTAB
M  END
>  <Dataset>  (693) 
ChEMBL_Kinases

>  <Ligand_Instance>  (693) 
nan

>  <PDB_ID>  (693) 
nan

>  <Standardized_SMILES>  (693) 
Fc1ccc(Nc2nccc(-c3c(-c4cccc(C(F)(F)F)c4)nn4ncccc34)n2)cc1F

>  <Name>  (693) 
nan

>  <Pocket>  (693) 
nan

>  <ATP_Site>  (693) 
nan

>  <Peripheral>  (693) 
nan

>  <Num_H_Atoms_ProtBoundConf>  (693) 
nan

>  <Num_Resolved_Atoms>  (693) 
nan

>  <Num_Not_Resolved_Atoms>  (693) 
nan

$$$$
CHEMBL184555
     RDKit          3D

  0  0  0  0  0  0  0  0  0  0999 V3000
M  V30 BEGIN CTAB
M  V30 COUNTS 53 56 0 0 0
M  V30 BEGIN ATOM
M  V30 1 C 1.161086 -2.970602 6.325722 0
M  V30 2 O 0.328598 -2.979712 5.164653 0
M  V30 3 C 0.811738 -2.992706 3.874555 0
M  V30 4 C 2.124233 -2.995332 3.456034 0
M  V30 5 C 2.514734 -3.008117 2.141847 0
M  V30 6 N 3.824938 -2.998777 1.850053 0
M  V30 7 C 4.248120 -3.000142 0.561023 0
M  V30 8 N 3.356715 -3.011192 -0.432426 0
M  V30 9 C 2.027615 -3.021393 -0.164261 0
M  V30 10 N 1.018581 -3.023618 -1.161938 0
M  V30 11 C 0.125449 -2.008711 -1.593223 0
M  V30 12 C 0.153094 -0.776567 -0.975271 0
M  V30 13 C -0.739822 0.153111 -1.430192 0
M  V30 14 N -0.887630 1.474731 -0.933665 0
M  V30 15 C -0.410468 2.765247 -1.178979 0
M  V30 16 O 0.405532 2.789292 -2.136337 0
M  V30 17 C -0.867400 3.883909 -0.365291 0
M  V30 18 C -1.709254 3.753138 0.718443 0
M  V30 19 C -2.076304 4.913346 1.410709 0
M  V30 20 C -1.580135 6.122981 0.975188 0
M  V30 21 C -0.749439 6.243112 -0.096846 0
M  V30 22 C -0.377496 5.099205 -0.792003 0
M  V30 23 C -1.613972 -0.177500 -2.471896 0
M  V30 24 C -1.630953 -1.417949 -3.084617 0
M  V30 25 C -0.721047 -2.363563 -2.618517 0
M  V30 26 C -0.686274 -3.720604 -3.236177 0
M  V30 27 C 1.572537 -3.019838 1.135412 0
M  V30 28 C 0.252200 -3.017693 1.521616 0
M  V30 29 C -0.133004 -3.004236 2.856784 0
M  V30 30 O -1.467219 -3.001412 3.164088 0
M  V30 31 C -2.532530 -3.010218 2.266536 0
M  V30 32 H 0.604826 -3.493506 7.138996 0
M  V30 33 H 1.411284 -1.929429 6.604048 0
M  V30 34 H 2.064841 -3.561603 6.065421 0
M  V30 35 H 2.858162 -2.987112 4.256521 0
M  V30 36 H 5.321867 -2.992569 0.404984 0
M  V30 37 H 1.066651 -3.981113 -1.540205 0
M  V30 38 H 0.809956 -0.500654 -0.180967 0
M  V30 39 H -1.585461 1.227635 -0.178400 0
M  V30 40 H -2.066688 2.777856 1.013649 0
M  V30 41 H -2.741261 4.719328 2.251480 0
M  V30 42 H -1.936792 6.931080 1.592112 0
M  V30 43 H -0.420909 7.232023 -0.350856 0
M  V30 44 H 0.283572 5.249915 -1.634076 0
M  V30 45 H -2.334909 0.531303 -2.858768 0
M  V30 46 H -2.309379 -1.643084 -3.878184 0
M  V30 47 H -1.574600 -3.854989 -3.885010 0
M  V30 48 H 0.197760 -3.837344 -3.906281 0
M  V30 49 H -0.706289 -4.479826 -2.434362 0
M  V30 50 H -0.485276 -3.025513 0.735682 0
M  V30 51 H -3.380795 -3.519595 2.783170 0
M  V30 52 H -2.360544 -3.569683 1.330796 0
M  V30 53 H -2.872173 -1.985290 1.986832 0
M  V30 END ATOM
M  V30 BEGIN BOND
M  V30 1 1 1 2
M  V30 2 1 2 3
M  V30 3 2 3 4
M  V30 4 1 4 5
M  V30 5 2 5 6
M  V30 6 1 6 7
M  V30 7 2 7 8
M  V30 8 1 8 9
M  V30 9 1 9 10
M  V30 10 1 10 11
M  V30 11 2 11 12
M  V30 12 1 12 13
M  V30 13 1 13 14
M  V30 14 1 14 15
M  V30 15 2 15 16
M  V30 16 1 15 17
M  V30 17 2 17 18
M  V30 18 1 18 19
M  V30 19 2 19 20
M  V30 20 1 20 21
M  V30 21 2 21 22
M  V30 22 2 13 23
M  V30 23 1 23 24
M  V30 24 2 24 25
M  V30 25 1 25 26
M  V30 26 2 9 27
M  V30 27 1 27 28
M  V30 28 2 28 29
M  V30 29 1 29 30
M  V30 30 1 30 31
M  V30 31 1 29 3
M  V30 32 1 27 5
M  V30 33 1 25 11
M  V30 34 1 22 17
M  V30 35 1 1 32
M  V30 36 1 1 33
M  V30 37 1 1 34
M  V30 38 1 4 35
M  V30 39 1 7 36
M  V30 40 1 10 37
M  V30 41 1 12 38
M  V30 42 1 14 39
M  V30 43 1 18 40
M  V30 44 1 19 41
M  V30 45 1 20 42
M  V30 46 1 21 43
M  V30 47 1 22 44
M  V30 48 1 23 45
M  V30 49 1 24 46
M  V30 50 1 26 47
M  V30 51 1 26 48
M  V30 52 1 26 49
M  V30 53 1 28 50
M  V30 54 1 31 51
M  V30 55 1 31 52
M  V30 56 1 31 53
M  V30 END BOND
M  V30 END CTAB
M  END
>  <Dataset>  (694) 
ChEMBL_Kinases

>  <Ligand_Instance>  (694) 
nan

>  <PDB_ID>  (694) 
nan

>  <Standardized_SMILES>  (694) 
COc1cc2ncnc(Nc3cc(NC(=O)c4ccccc4)ccc3C)c2cc1OC

>  <Name>  (694) 
nan

>  <Pocket>  (694) 
nan

>  <ATP_Site>  (694) 
nan

>  <Peripheral>  (694) 
nan

>  <Num_H_Atoms_ProtBoundConf>  (694) 
nan

>  <Num_Resolved_Atoms>  (694) 
nan

>  <Num_Not_Resolved_Atoms>  (694) 
nan

$$$$
CHEMBL184387
     RDKit          3D

  0  0  0  0  0  0  0  0  0  0999 V3000
M  V30 BEGIN CTAB
M  V30 COUNTS 66 70 0 0 0
M  V30 BEGIN ATOM
M  V30 1 C 3.482967 -2.283856 4.535252 0
M  V30 2 C 3.331111 -1.426333 3.309727 0
M  V30 3 C 4.402203 -0.972234 2.568742 0
M  V30 4 C 4.229270 -0.185433 1.448030 0
M  V30 5 C 2.948964 0.167237 1.042531 0
M  V30 6 N 2.646772 0.970818 -0.087504 0
M  V30 7 C 2.396569 0.689246 -1.453200 0
M  V30 8 O 2.426883 -0.502799 -1.849181 0
M  V30 9 C 2.119267 1.843051 -2.295921 0
M  V30 10 C 2.072800 3.156105 -1.885119 0
M  V30 11 C 1.801212 4.190911 -2.752450 0
M  V30 12 F 1.776856 5.448084 -2.257885 0
M  V30 13 C 1.567430 3.905990 -4.078980 0
M  V30 14 C 1.603180 2.607903 -4.536725 0
M  V30 15 N 1.355119 2.332165 -5.908178 0
M  V30 16 C 1.443159 1.058939 -6.582377 0
M  V30 17 C 0.132093 0.702933 -7.245555 0
M  V30 18 O -0.205509 1.642485 -8.225998 0
M  V30 19 C -0.337116 2.880088 -7.624311 0
M  V30 20 C 0.959359 3.248063 -6.926003 0
M  V30 21 C 1.877415 1.596499 -3.644258 0
M  V30 22 C 1.916992 -0.317257 1.824180 0
M  V30 23 C 2.025294 -1.110922 2.959944 0
M  V30 24 N 0.852378 -1.523881 3.651910 0
M  V30 25 C 0.267674 -2.742996 3.238911 0
M  V30 26 O 0.861392 -3.321435 2.299214 0
M  V30 27 C -0.929937 -3.333339 3.819662 0
M  V30 28 C -1.440001 -4.513505 3.361531 0
M  V30 29 C -2.600509 -5.040480 3.957596 0
M  V30 30 C -3.262486 -4.389412 5.020123 0
M  V30 31 O -4.313546 -5.171402 5.329297 0
M  V30 32 C -5.269697 -4.986352 6.274059 0
M  V30 33 C -6.131584 -3.769262 6.123039 0
M  V30 34 C -5.965004 -2.492421 6.788118 0
M  V30 35 S -7.352539 -1.534722 6.083071 0
M  V30 36 C -7.923661 -2.955466 5.036698 0
M  V30 37 N -7.153525 -3.881124 5.263653 0
M  V30 38 C -2.671093 -3.212105 5.406875 0
M  V30 39 C -1.541503 -2.665621 4.851906 0
M  V30 40 H 2.623877 -2.975311 4.644159 0
M  V30 41 H 3.595911 -1.697773 5.455393 0
M  V30 42 H 4.399365 -2.908486 4.343813 0
M  V30 43 H 5.403916 -1.244813 2.881455 0
M  V30 44 H 5.059318 0.177275 0.857516 0
M  V30 45 H 2.668120 1.874511 0.427445 0
M  V30 46 H 2.255625 3.366585 -0.852866 0
M  V30 47 H 1.366039 4.778677 -4.675756 0
M  V30 48 H 1.708001 0.208574 -5.940951 0
M  V30 49 H 2.204594 1.070887 -7.393913 0
M  V30 50 H 0.242650 -0.282993 -7.745731 0
M  V30 51 H -0.685223 0.633991 -6.510597 0
M  V30 52 H -0.501678 3.643603 -8.418864 0
M  V30 53 H -1.169087 2.949261 -6.908896 0
M  V30 54 H 1.786731 3.306481 -7.685877 0
M  V30 55 H 0.805643 4.257459 -6.503719 0
M  V30 56 H 1.910231 0.572932 -3.979573 0
M  V30 57 H 0.908549 -0.054849 1.526499 0
M  V30 58 H 0.417625 -0.982147 4.428950 0
M  V30 59 H -0.886021 -4.959314 2.547915 0
M  V30 60 H -2.840386 -5.989546 3.443226 0
M  V30 61 H -5.935035 -5.856490 6.457886 0
M  V30 62 H -4.748477 -4.857423 7.287540 0
M  V30 63 H -5.178210 -2.334853 7.484364 0
M  V30 64 H -8.790645 -2.862381 4.385425 0
M  V30 65 H -3.221360 -2.783053 6.220181 0
M  V30 66 H -1.241943 -1.733268 5.301788 0
M  V30 END ATOM
M  V30 BEGIN BOND
M  V30 1 1 1 2
M  V30 2 2 2 3
M  V30 3 1 3 4
M  V30 4 2 4 5
M  V30 5 1 5 6
M  V30 6 1 6 7
M  V30 7 2 7 8
M  V30 8 1 7 9
M  V30 9 2 9 10
M  V30 10 1 10 11
M  V30 11 1 11 12
M  V30 12 2 11 13
M  V30 13 1 13 14
M  V30 14 1 14 15
M  V30 15 1 15 16
M  V30 16 1 16 17
M  V30 17 1 17 18
M  V30 18 1 18 19
M  V30 19 1 19 20
M  V30 20 2 14 21
M  V30 21 1 5 22
M  V30 22 2 22 23
M  V30 23 1 23 24
M  V30 24 1 24 25
M  V30 25 2 25 26
M  V30 26 1 25 27
M  V30 27 2 27 28
M  V30 28 1 28 29
M  V30 29 2 29 30
M  V30 30 1 30 31
M  V30 31 1 31 32
M  V30 32 1 32 33
M  V30 33 2 33 34
M  V30 34 1 34 35
M  V30 35 1 35 36
M  V30 36 2 36 37
M  V30 37 1 30 38
M  V30 38 2 38 39
M  V30 39 1 23 2
M  V30 40 1 39 27
M  V30 41 1 21 9
M  V30 42 1 37 33
M  V30 43 1 20 15
M  V30 44 1 1 40
M  V30 45 1 1 41
M  V30 46 1 1 42
M  V30 47 1 3 43
M  V30 48 1 4 44
M  V30 49 1 6 45
M  V30 50 1 10 46
M  V30 51 1 13 47
M  V30 52 1 16 48
M  V30 53 1 16 49
M  V30 54 1 17 50
M  V30 55 1 17 51
M  V30 56 1 19 52
M  V30 57 1 19 53
M  V30 58 1 20 54
M  V30 59 1 20 55
M  V30 60 1 21 56
M  V30 61 1 22 57
M  V30 62 1 24 58
M  V30 63 1 28 59
M  V30 64 1 29 60
M  V30 65 1 32 61
M  V30 66 1 32 62
M  V30 67 1 34 63
M  V30 68 1 36 64
M  V30 69 1 38 65
M  V30 70 1 39 66
M  V30 END BOND
M  V30 END CTAB
M  END
>  <Dataset>  (695) 
ChEMBL_Kinases

>  <Ligand_Instance>  (695) 
nan

>  <PDB_ID>  (695) 
nan

>  <Standardized_SMILES>  (695) 
Cc1ccc(NC(=O)c2cc(F)cc(N3CCOCC3)c2)cc1NC(=O)c1ccc(OCc2cscn2)cc1

>  <Name>  (695) 
nan

>  <Pocket>  (695) 
nan

>  <ATP_Site>  (695) 
nan

>  <Peripheral>  (695) 
nan

>  <Num_H_Atoms_ProtBoundConf>  (695) 
nan

>  <Num_Resolved_Atoms>  (695) 
nan

>  <Num_Not_Resolved_Atoms>  (695) 
nan

$$$$
CHEMBL184347
     RDKit          3D

  0  0  0  0  0  0  0  0  0  0999 V3000
M  V30 BEGIN CTAB
M  V30 COUNTS 56 58 0 0 0
M  V30 BEGIN ATOM
M  V30 1 C 4.791458 -6.722108 5.676660 0
M  V30 2 O 3.496884 -6.257148 5.357915 0
M  V30 3 C 3.226680 -5.020712 4.791694 0
M  V30 4 C 4.227915 -4.109755 4.480756 0
M  V30 5 C 3.953331 -2.861228 3.909053 0
M  V30 6 C 2.632465 -2.556702 3.658809 0
M  V30 7 C 2.401051 -1.247397 3.065967 0
M  V30 8 O 3.375305 -0.492127 2.823849 0
M  V30 9 N 1.060369 -0.875215 2.782990 0
M  V30 10 C 0.393738 0.250895 2.231812 0
M  V30 11 C 0.146517 0.371007 0.894158 0
M  V30 12 C -0.506194 1.477252 0.393261 0
M  V30 13 N -0.826074 1.732089 -0.959840 0
M  V30 14 C -0.205551 2.380594 -2.060377 0
M  V30 15 O 0.918823 2.918196 -1.975389 0
M  V30 16 C -0.922289 2.410717 -3.328471 0
M  V30 17 C -0.276552 3.060819 -4.359152 0
M  V30 18 C -0.894445 3.135504 -5.609338 0
M  V30 19 C -2.150272 2.569655 -5.846936 0
M  V30 20 C -2.791376 1.914130 -4.791394 0
M  V30 21 N -4.070050 1.308548 -4.939813 0
M  V30 22 C -4.684990 0.637365 -3.790084 0
M  V30 23 C -4.772022 1.342157 -6.195257 0
M  V30 24 C -2.139895 1.867708 -3.577012 0
M  V30 25 C -0.901521 2.459046 1.286900 0
M  V30 26 C -0.678214 2.395097 2.665495 0
M  V30 27 C -0.014116 1.247367 3.089601 0
M  V30 28 Br 0.309129 1.128505 4.984126 0
M  V30 29 C 1.663829 -3.466264 3.971993 0
M  V30 30 C 1.911324 -4.705422 4.537137 0
M  V30 31 O 0.921396 -5.596107 4.840156 0
M  V30 32 C -0.443309 -5.405636 4.636083 0
M  V30 33 H 5.516213 -6.574948 4.860831 0
M  V30 34 H 4.687298 -7.801310 5.964462 0
M  V30 35 H 5.171070 -6.230978 6.607635 0
M  V30 36 H 5.225678 -4.435731 4.711705 0
M  V30 37 H 4.779056 -2.209315 3.695772 0
M  V30 38 H 0.198635 -1.437265 2.950781 0
M  V30 39 H 0.442207 -0.371802 0.190719 0
M  V30 40 H -1.758141 1.262683 -0.952022 0
M  V30 41 H 0.682249 3.522750 -4.272576 0
M  V30 42 H -0.427089 3.635196 -6.448127 0
M  V30 43 H -2.636157 2.622605 -6.811888 0
M  V30 44 H -4.805981 1.372489 -2.976796 0
M  V30 45 H -5.643374 0.196430 -4.059200 0
M  V30 46 H -3.975517 -0.153887 -3.478992 0
M  V30 47 H -4.646308 2.278448 -6.756150 0
M  V30 48 H -5.872311 1.281115 -5.958295 0
M  V30 49 H -4.496637 0.459158 -6.806930 0
M  V30 50 H -2.646151 1.359965 -2.773496 0
M  V30 51 H -1.422390 3.360215 0.960456 0
M  V30 52 H -1.004981 3.186618 3.323831 0
M  V30 53 H 0.645143 -3.228543 3.777741 0
M  V30 54 H -0.676320 -5.348677 3.542722 0
M  V30 55 H -0.876024 -4.546088 5.187637 0
M  V30 56 H -0.990006 -6.295823 4.997677 0
M  V30 END ATOM
M  V30 BEGIN BOND
M  V30 1 1 1 2
M  V30 2 1 2 3
M  V30 3 2 3 4
M  V30 4 1 4 5
M  V30 5 2 5 6
M  V30 6 1 6 7
M  V30 7 2 7 8
M  V30 8 1 7 9
M  V30 9 1 9 10
M  V30 10 2 10 11
M  V30 11 1 11 12
M  V30 12 1 12 13
M  V30 13 1 13 14
M  V30 14 2 14 15
M  V30 15 1 14 16
M  V30 16 2 16 17
M  V30 17 1 17 18
M  V30 18 2 18 19
M  V30 19 1 19 20
M  V30 20 1 20 21
M  V30 21 1 21 22
M  V30 22 1 21 23
M  V30 23 2 20 24
M  V30 24 2 12 25
M  V30 25 1 25 26
M  V30 26 2 26 27
M  V30 27 1 27 28
M  V30 28 1 6 29
M  V30 29 2 29 30
M  V30 30 1 30 31
M  V30 31 1 31 32
M  V30 32 1 30 3
M  V30 33 1 27 10
M  V30 34 1 24 16
M  V30 35 1 1 33
M  V30 36 1 1 34
M  V30 37 1 1 35
M  V30 38 1 4 36
M  V30 39 1 5 37
M  V30 40 1 9 38
M  V30 41 1 11 39
M  V30 42 1 13 40
M  V30 43 1 17 41
M  V30 44 1 18 42
M  V30 45 1 19 43
M  V30 46 1 22 44
M  V30 47 1 22 45
M  V30 48 1 22 46
M  V30 49 1 23 47
M  V30 50 1 23 48
M  V30 51 1 23 49
M  V30 52 1 24 50
M  V30 53 1 25 51
M  V30 54 1 26 52
M  V30 55 1 29 53
M  V30 56 1 32 54
M  V30 57 1 32 55
M  V30 58 1 32 56
M  V30 END BOND
M  V30 END CTAB
M  END
>  <Dataset>  (696) 
ChEMBL_Kinases

>  <Ligand_Instance>  (696) 
nan

>  <PDB_ID>  (696) 
nan

>  <Standardized_SMILES>  (696) 
COc1ccc(C(=O)Nc2cc(NC(=O)c3cccc(N(C)C)c3)ccc2Br)cc1OC

>  <Name>  (696) 
nan

>  <Pocket>  (696) 
nan

>  <ATP_Site>  (696) 
nan

>  <Peripheral>  (696) 
nan

>  <Num_H_Atoms_ProtBoundConf>  (696) 
nan

>  <Num_Resolved_Atoms>  (696) 
nan

>  <Num_Not_Resolved_Atoms>  (696) 
nan

$$$$
CHEMBL184271
     RDKit          3D

  0  0  0  0  0  0  0  0  0  0999 V3000
M  V30 BEGIN CTAB
M  V30 COUNTS 81 86 0 0 0
M  V30 BEGIN ATOM
M  V30 1 C -3.021871 -2.317276 -6.305093 0
M  V30 2 O -3.102795 -1.789868 -5.015992 0
M  V30 3 C -2.500799 -0.595746 -4.652339 0
M  V30 4 C -1.815055 0.013232 -5.698184 0
M  V30 5 C -1.158045 1.215888 -5.499724 0
M  V30 6 N -0.475095 1.857288 -6.446710 0
M  V30 7 C 0.151335 3.017731 -6.211797 0
M  V30 8 N 0.101160 3.574437 -4.978906 0
M  V30 9 C -0.573818 2.970101 -3.984745 0
M  V30 10 N -0.619920 3.571215 -2.712461 0
M  V30 11 C -0.036238 3.615255 -1.424230 0
M  V30 12 C 1.001637 2.758606 -1.139839 0
M  V30 13 C 1.541920 2.850717 0.123048 0
M  V30 14 N 2.597728 2.084615 0.693051 0
M  V30 15 C 1.983913 0.992759 1.371446 0
M  V30 16 O 0.718981 1.007122 1.280154 0
M  V30 17 C 2.716577 -0.053987 2.109343 0
M  V30 18 C 4.099082 -0.200089 2.218690 0
M  V30 19 C 4.589716 -1.247884 2.969781 0
M  V30 20 N 3.767828 -2.112328 3.585343 0
M  V30 21 C 2.431430 -2.013364 3.510117 0
M  V30 22 N 1.591706 -2.924232 4.162589 0
M  V30 23 C 2.027764 -4.077147 4.923218 0
M  V30 24 C 1.345561 -4.111316 6.287760 0
M  V30 25 O -0.008963 -3.869963 6.215665 0
M  V30 26 C -0.499050 -3.908262 4.932380 0
M  V30 27 C 0.149301 -2.781491 4.135688 0
M  V30 28 C 1.942896 -0.985340 2.772897 0
M  V30 29 C 1.050002 3.759105 1.025976 0
M  V30 30 C -0.000290 4.607156 0.698903 0
M  V30 31 C -0.564954 4.541931 -0.554768 0
M  V30 32 C -1.689329 5.439301 -0.925230 0
M  V30 33 C -1.212221 1.775902 -4.242544 0
M  V30 34 C -1.897998 1.152074 -3.224319 0
M  V30 35 C -2.562093 -0.043666 -3.380563 0
M  V30 36 O -3.275715 -0.813805 -2.530265 0
M  V30 37 C -3.567553 -0.680002 -1.184558 0
M  V30 38 C -2.423698 -0.689163 -0.237974 0
M  V30 39 N -1.605792 -1.857274 -0.212421 0
M  V30 40 C -2.213263 -3.048928 0.308204 0
M  V30 41 C -1.112116 -4.114513 0.334804 0
M  V30 42 O -0.633935 -4.394524 -0.944256 0
M  V30 43 C 0.074781 -3.242860 -1.337972 0
M  V30 44 C -0.955376 -2.133872 -1.451769 0
M  V30 45 H -1.975265 -2.609019 -6.503034 0
M  V30 46 H -3.671376 -3.199764 -6.454687 0
M  V30 47 H -3.386063 -1.556774 -7.033794 0
M  V30 48 H -1.748495 -0.391838 -6.698771 0
M  V30 49 H 0.673642 3.429893 -7.084643 0
M  V30 50 H -1.448264 4.199176 -2.948182 0
M  V30 51 H 1.430449 2.032194 -1.793612 0
M  V30 52 H 3.641103 2.146409 0.717902 0
M  V30 53 H 4.647299 0.559955 1.676938 0
M  V30 54 H 5.656629 -1.304402 3.014153 0
M  V30 55 H 3.125607 -4.052327 5.089614 0
M  V30 56 H 1.710781 -4.971575 4.347244 0
M  V30 57 H 1.549787 -5.073964 6.789961 0
M  V30 58 H 1.810256 -3.315035 6.938378 0
M  V30 59 H -0.338021 -4.888081 4.438425 0
M  V30 60 H -1.588471 -3.738055 4.941148 0
M  V30 61 H -0.238145 -2.867589 3.112727 0
M  V30 62 H -0.177786 -1.834097 4.626371 0
M  V30 63 H 0.850859 -0.917637 2.719926 0
M  V30 64 H 1.389758 3.925754 2.043067 0
M  V30 65 H -0.423753 5.343655 1.383832 0
M  V30 66 H -1.891103 6.134947 -0.098305 0
M  V30 67 H -1.507978 5.945297 -1.901534 0
M  V30 68 H -2.640815 4.854465 -1.063886 0
M  V30 69 H -1.963449 1.568437 -2.232207 0
M  V30 70 H -4.381099 -1.376007 -0.926924 0
M  V30 71 H -4.048248 0.340550 -1.079665 0
M  V30 72 H -2.842223 -0.601289 0.812401 0
M  V30 73 H -1.781050 0.198256 -0.340350 0
M  V30 74 H -2.473321 -2.905988 1.398671 0
M  V30 75 H -3.057301 -3.391795 -0.302628 0
M  V30 76 H -0.241778 -3.615768 0.851178 0
M  V30 77 H -1.366522 -4.986493 0.934762 0
M  V30 78 H 0.417349 -3.465726 -2.388939 0
M  V30 79 H 0.923276 -3.004983 -0.701264 0
M  V30 80 H -0.426278 -1.271587 -1.880929 0
M  V30 81 H -1.698238 -2.508765 -2.189824 0
M  V30 END ATOM
M  V30 BEGIN BOND
M  V30 1 1 1 2
M  V30 2 1 2 3
M  V30 3 2 3 4
M  V30 4 1 4 5
M  V30 5 2 5 6
M  V30 6 1 6 7
M  V30 7 2 7 8
M  V30 8 1 8 9
M  V30 9 1 9 10
M  V30 10 1 10 11
M  V30 11 2 11 12
M  V30 12 1 12 13
M  V30 13 1 13 14
M  V30 14 1 14 15
M  V30 15 2 15 16
M  V30 16 1 15 17
M  V30 17 2 17 18
M  V30 18 1 18 19
M  V30 19 2 19 20
M  V30 20 1 20 21
M  V30 21 1 21 22
M  V30 22 1 22 23
M  V30 23 1 23 24
M  V30 24 1 24 25
M  V30 25 1 25 26
M  V30 26 1 26 27
M  V30 27 2 21 28
M  V30 28 2 13 29
M  V30 29 1 29 30
M  V30 30 2 30 31
M  V30 31 1 31 32
M  V30 32 2 9 33
M  V30 33 1 33 34
M  V30 34 2 34 35
M  V30 35 1 35 36
M  V30 36 1 36 37
M  V30 37 1 37 38
M  V30 38 1 38 39
M  V30 39 1 39 40
M  V30 40 1 40 41
M  V30 41 1 41 42
M  V30 42 1 42 43
M  V30 43 1 43 44
M  V30 44 1 35 3
M  V30 45 1 44 39
M  V30 46 1 33 5
M  V30 47 1 31 11
M  V30 48 1 28 17
M  V30 49 1 27 22
M  V30 50 1 1 45
M  V30 51 1 1 46
M  V30 52 1 1 47
M  V30 53 1 4 48
M  V30 54 1 7 49
M  V30 55 1 10 50
M  V30 56 1 12 51
M  V30 57 1 14 52
M  V30 58 1 18 53
M  V30 59 1 19 54
M  V30 60 1 23 55
M  V30 61 1 23 56
M  V30 62 1 24 57
M  V30 63 1 24 58
M  V30 64 1 26 59
M  V30 65 1 26 60
M  V30 66 1 27 61
M  V30 67 1 27 62
M  V30 68 1 28 63
M  V30 69 1 29 64
M  V30 70 1 30 65
M  V30 71 1 32 66
M  V30 72 1 32 67
M  V30 73 1 32 68
M  V30 74 1 34 69
M  V30 75 1 37 70
M  V30 76 1 37 71
M  V30 77 1 38 72
M  V30 78 1 38 73
M  V30 79 1 40 74
M  V30 80 1 40 75
M  V30 81 1 41 76
M  V30 82 1 41 77
M  V30 83 1 43 78
M  V30 84 1 43 79
M  V30 85 1 44 80
M  V30 86 1 44 81
M  V30 END BOND
M  V30 END CTAB
M  END
>  <Dataset>  (697) 
ChEMBL_Kinases

>  <Ligand_Instance>  (697) 
nan

>  <PDB_ID>  (697) 
nan

>  <Standardized_SMILES>  (697) 
COc1cc2ncnc(Nc3cc(NC(=O)c4ccnc(N5CCOCC5)c4)ccc3C)c2cc1OCCN1CCOCC1

>  <Name>  (697) 
nan

>  <Pocket>  (697) 
nan

>  <ATP_Site>  (697) 
nan

>  <Peripheral>  (697) 
nan

>  <Num_H_Atoms_ProtBoundConf>  (697) 
nan

>  <Num_Resolved_Atoms>  (697) 
nan

>  <Num_Not_Resolved_Atoms>  (697) 
nan

$$$$
CHEMBL184269
     RDKit          3D

  0  0  0  0  0  0  0  0  0  0999 V3000
M  V30 BEGIN CTAB
M  V30 COUNTS 45 48 0 0 0
M  V30 BEGIN ATOM
M  V30 1 C -0.333903 -3.540440 3.083273 0
M  V30 2 C -0.369860 -4.173592 1.679320 0
M  V30 3 C -1.724002 -3.914137 1.154347 0
M  V30 4 C 0.732916 -3.560649 0.922390 0
M  V30 5 C 2.007861 -4.069457 0.804889 0
M  V30 6 C 2.926695 -3.375363 0.038632 0
M  V30 7 C 2.578240 -2.204036 -0.592806 0
M  V30 8 C 1.287248 -1.703484 -0.464769 0
M  V30 9 N 1.016573 -0.510999 -1.144569 0
M  V30 10 C -0.107222 0.322637 -1.336133 0
M  V30 11 C -0.584779 1.484813 -0.939193 0
M  V30 12 C -0.043864 2.469749 -0.023310 0
M  V30 13 C 0.065892 3.806261 -0.208318 0
M  V30 14 N 0.594774 4.362219 0.912239 0
M  V30 15 C 0.831483 3.408553 1.823375 0
M  V30 16 C 1.349141 3.516707 3.093559 0
M  V30 17 C 1.479908 2.359382 3.841735 0
M  V30 18 C 1.097349 1.147600 3.310142 0
M  V30 19 C 0.589613 1.107477 2.040334 0
M  V30 20 C 0.431756 2.216300 1.242147 0
M  V30 21 C -1.873727 1.733723 -1.570284 0
M  V30 22 O -2.637340 2.747293 -1.434652 0
M  V30 23 N -2.194308 0.629837 -2.413581 0
M  V30 24 C -1.094071 -0.255071 -2.270630 0
M  V30 25 O -1.156671 -1.334627 -2.941547 0
M  V30 26 C 0.368256 -2.386972 0.296080 0
M  V30 27 H -0.970840 -4.109271 3.770278 0
M  V30 28 H 0.704745 -3.493579 3.460145 0
M  V30 29 H -0.766579 -2.532415 2.979183 0
M  V30 30 H -0.159236 -5.238885 1.861407 0
M  V30 31 H -2.037828 -2.861166 1.421853 0
M  V30 32 H -2.443459 -4.573786 1.688866 0
M  V30 33 H -1.866784 -4.109581 0.073263 0
M  V30 34 H 2.206238 -4.984726 1.323686 0
M  V30 35 H 3.922770 -3.788563 -0.044194 0
M  V30 36 H 3.332346 -1.690551 -1.184505 0
M  V30 37 H 1.748541 -0.004043 -1.696837 0
M  V30 38 H -0.233188 4.308289 -1.118020 0
M  V30 39 H 0.783729 5.399663 1.028450 0
M  V30 40 H 1.640071 4.483802 3.489540 0
M  V30 41 H 1.878297 2.438779 4.825612 0
M  V30 42 H 1.222389 0.285964 3.940390 0
M  V30 43 H 0.302830 0.163352 1.650411 0
M  V30 44 H -3.080360 0.567769 -2.981277 0
M  V30 45 H -0.592807 -1.917780 0.329223 0
M  V30 END ATOM
M  V30 BEGIN BOND
M  V30 1 1 1 2
M  V30 2 1 2 3
M  V30 3 1 2 4
M  V30 4 2 4 5
M  V30 5 1 5 6
M  V30 6 2 6 7
M  V30 7 1 7 8
M  V30 8 1 8 9
M  V30 9 1 9 10
M  V30 10 2 10 11
M  V30 11 1 11 12
M  V30 12 2 12 13
M  V30 13 1 13 14
M  V30 14 1 14 15
M  V30 15 2 15 16
M  V30 16 1 16 17
M  V30 17 2 17 18
M  V30 18 1 18 19
M  V30 19 2 19 20
M  V30 20 1 11 21
M  V30 21 2 21 22
M  V30 22 1 21 23
M  V30 23 1 23 24
M  V30 24 2 24 25
M  V30 25 2 8 26
M  V30 26 1 26 4
M  V30 27 1 24 10
M  V30 28 1 20 12
M  V30 29 1 20 15
M  V30 30 1 1 27
M  V30 31 1 1 28
M  V30 32 1 1 29
M  V30 33 1 2 30
M  V30 34 1 3 31
M  V30 35 1 3 32
M  V30 36 1 3 33
M  V30 37 1 5 34
M  V30 38 1 6 35
M  V30 39 1 7 36
M  V30 40 1 9 37
M  V30 41 1 13 38
M  V30 42 1 14 39
M  V30 43 1 16 40
M  V30 44 1 17 41
M  V30 45 1 18 42
M  V30 46 1 19 43
M  V30 47 1 23 44
M  V30 48 1 26 45
M  V30 END BOND
M  V30 END CTAB
M  END
>  <Dataset>  (698) 
ChEMBL_Kinases

>  <Ligand_Instance>  (698) 
nan

>  <PDB_ID>  (698) 
nan

>  <Standardized_SMILES>  (698) 
CC(C)c1cccc(NC2=C(c3c[nH]c4ccccc34)C(=O)NC2=O)c1

>  <Name>  (698) 
nan

>  <Pocket>  (698) 
nan

>  <ATP_Site>  (698) 
nan

>  <Peripheral>  (698) 
nan

>  <Num_H_Atoms_ProtBoundConf>  (698) 
nan

>  <Num_Resolved_Atoms>  (698) 
nan

>  <Num_Not_Resolved_Atoms>  (698) 
nan

$$$$
CHEMBL184257
     RDKit          3D

  0  0  0  0  0  0  0  0  0  0999 V3000
M  V30 BEGIN CTAB
M  V30 COUNTS 71 75 0 0 0
M  V30 BEGIN ATOM
M  V30 1 C 5.094916 -1.640935 4.320461 0
M  V30 2 C 4.203972 -0.905425 3.414428 0
M  V30 3 C 4.083978 0.474287 3.527039 0
M  V30 4 C 3.256576 1.196196 2.691422 0
M  V30 5 C 2.531755 0.531512 1.721503 0
M  V30 6 N 1.676973 1.259271 0.855418 0
M  V30 7 C 2.059014 1.819570 -0.394440 0
M  V30 8 O 3.249699 1.659360 -0.765843 0
M  V30 9 C 1.154094 2.560439 -1.256528 0
M  V30 10 C 1.660113 3.050745 -2.439885 0
M  V30 11 C 0.916812 3.774317 -3.359573 0
M  V30 12 N -0.369511 3.986538 -3.036500 0
M  V30 13 C -0.888537 3.511279 -1.873562 0
M  V30 14 N -2.258432 3.791948 -1.629416 0
M  V30 15 C -3.078184 3.419863 -0.506245 0
M  V30 16 C -4.283567 2.692187 -1.057993 0
M  V30 17 O -4.160915 2.444534 -2.430637 0
M  V30 18 C -4.169869 3.660282 -3.087821 0
M  V30 19 C -3.086324 4.548993 -2.543358 0
M  V30 20 C -0.162244 2.792186 -0.952718 0
M  V30 21 C 2.668686 -0.841843 1.629908 0
M  V30 22 C 3.486615 -1.605781 2.446827 0
M  V30 23 N 3.578900 -3.025034 2.297229 0
M  V30 24 C 2.753130 -3.553010 1.236332 0
M  V30 25 C 1.457008 -3.912765 1.563955 0
M  V30 26 C 0.697292 -4.412384 0.528703 0
M  V30 27 N -0.646460 -4.801916 0.786762 0
M  V30 28 C -1.157932 -4.645495 2.131789 0
M  V30 29 C -2.676246 -4.689164 2.122173 0
M  V30 30 C -3.258379 -3.498285 1.406398 0
M  V30 31 N -2.667290 -3.288955 0.098730 0
M  V30 32 C -3.462787 -2.319327 -0.629812 0
M  V30 33 C -2.672339 -4.578029 -0.577006 0
M  V30 34 C -1.395665 -5.333622 -0.361909 0
M  V30 35 N 1.185081 -4.541371 -0.717880 0
M  V30 36 C 2.465964 -4.180100 -1.017213 0
M  V30 37 N 3.257521 -3.680209 -0.026800 0
M  V30 38 H 5.694209 -2.417902 3.818634 0
M  V30 39 H 5.844659 -0.916370 4.737567 0
M  V30 40 H 4.500719 -1.997295 5.184231 0
M  V30 41 H 4.624323 1.041856 4.263389 0
M  V30 42 H 3.138173 2.270824 2.750192 0
M  V30 43 H 0.696266 1.374302 1.192609 0
M  V30 44 H 2.703227 2.894555 -2.731797 0
M  V30 45 H 1.350432 4.142685 -4.278491 0
M  V30 46 H -2.524548 2.842570 0.246179 0
M  V30 47 H -3.380690 4.365255 0.005577 0
M  V30 48 H -5.181630 3.327699 -0.930127 0
M  V30 49 H -4.428205 1.746557 -0.532120 0
M  V30 50 H -5.182706 4.111908 -2.978237 0
M  V30 51 H -3.988629 3.443485 -4.177408 0
M  V30 52 H -2.422450 4.924592 -3.354363 0
M  V30 53 H -3.550851 5.433145 -2.023707 0
M  V30 54 H -0.556142 2.412005 -0.034078 0
M  V30 55 H 2.067709 -1.315594 0.840161 0
M  V30 56 H 4.201302 -3.530007 2.932842 0
M  V30 57 H 1.124750 -3.790000 2.563321 0
M  V30 58 H -0.907293 -3.664044 2.592891 0
M  V30 59 H -0.805077 -5.499872 2.757468 0
M  V30 60 H -3.055065 -5.627784 1.709503 0
M  V30 61 H -3.024535 -4.632326 3.189271 0
M  V30 62 H -3.154036 -2.567575 1.985736 0
M  V30 63 H -4.345167 -3.687338 1.260475 0
M  V30 64 H -2.931384 -1.336626 -0.612952 0
M  V30 65 H -3.590015 -2.593143 -1.702590 0
M  V30 66 H -4.445264 -2.148502 -0.165629 0
M  V30 67 H -3.580960 -5.173358 -0.285886 0
M  V30 68 H -2.802222 -4.377475 -1.658330 0
M  V30 69 H -1.643428 -6.380542 -0.143604 0
M  V30 70 H -0.789205 -5.275902 -1.279384 0
M  V30 71 H 2.937587 -4.249073 -1.985681 0
M  V30 END ATOM
M  V30 BEGIN BOND
M  V30 1 1 1 2
M  V30 2 2 2 3
M  V30 3 1 3 4
M  V30 4 2 4 5
M  V30 5 1 5 6
M  V30 6 1 6 7
M  V30 7 2 7 8
M  V30 8 1 7 9
M  V30 9 2 9 10
M  V30 10 1 10 11
M  V30 11 2 11 12
M  V30 12 1 12 13
M  V30 13 1 13 14
M  V30 14 1 14 15
M  V30 15 1 15 16
M  V30 16 1 16 17
M  V30 17 1 17 18
M  V30 18 1 18 19
M  V30 19 2 13 20
M  V30 20 1 5 21
M  V30 21 2 21 22
M  V30 22 1 22 23
M  V30 23 1 23 24
M  V30 24 2 24 25
M  V30 25 1 25 26
M  V30 26 1 26 27
M  V30 27 1 27 28
M  V30 28 1 28 29
M  V30 29 1 29 30
M  V30 30 1 30 31
M  V30 31 1 31 32
M  V30 32 1 31 33
M  V30 33 1 33 34
M  V30 34 2 26 35
M  V30 35 1 35 36
M  V30 36 2 36 37
M  V30 37 1 22 2
M  V30 38 1 37 24
M  V30 39 1 20 9
M  V30 40 1 34 27
M  V30 41 1 19 14
M  V30 42 1 1 38
M  V30 43 1 1 39
M  V30 44 1 1 40
M  V30 45 1 3 41
M  V30 46 1 4 42
M  V30 47 1 6 43
M  V30 48 1 10 44
M  V30 49 1 11 45
M  V30 50 1 15 46
M  V30 51 1 15 47
M  V30 52 1 16 48
M  V30 53 1 16 49
M  V30 54 1 18 50
M  V30 55 1 18 51
M  V30 56 1 19 52
M  V30 57 1 19 53
M  V30 58 1 20 54
M  V30 59 1 21 55
M  V30 60 1 23 56
M  V30 61 1 25 57
M  V30 62 1 28 58
M  V30 63 1 28 59
M  V30 64 1 29 60
M  V30 65 1 29 61
M  V30 66 1 30 62
M  V30 67 1 30 63
M  V30 68 1 32 64
M  V30 69 1 32 65
M  V30 70 1 32 66
M  V30 71 1 33 67
M  V30 72 1 33 68
M  V30 73 1 34 69
M  V30 74 1 34 70
M  V30 75 1 36 71
M  V30 END BOND
M  V30 END CTAB
M  END
>  <Dataset>  (699) 
ChEMBL_Kinases

>  <Ligand_Instance>  (699) 
nan

>  <PDB_ID>  (699) 
nan

>  <Standardized_SMILES>  (699) 
Cc1ccc(NC(=O)c2ccnc(N3CCOCC3)c2)cc1Nc1cc(N2CCCN(C)CC2)ncn1

>  <Name>  (699) 
nan

>  <Pocket>  (699) 
nan

>  <ATP_Site>  (699) 
nan

>  <Peripheral>  (699) 
nan

>  <Num_H_Atoms_ProtBoundConf>  (699) 
nan

>  <Num_Resolved_Atoms>  (699) 
nan

>  <Num_Not_Resolved_Atoms>  (699) 
nan

$$$$
CHEMBL184189
     RDKit          3D

  0  0  0  0  0  0  0  0  0  0999 V3000
M  V30 BEGIN CTAB
M  V30 COUNTS 62 64 0 0 0
M  V30 BEGIN ATOM
M  V30 1 C 6.675664 2.536601 6.593328 0
M  V30 2 O 5.766532 3.547681 6.867498 0
M  V30 3 C 4.510702 3.068157 7.132072 0
M  V30 4 C 3.978173 2.308410 5.969557 0
M  V30 5 O 3.885181 3.101047 4.780110 0
M  V30 6 C 3.389481 2.442536 3.636955 0
M  V30 7 C 3.262566 3.129126 2.438907 0
M  V30 8 C 2.781246 2.515216 1.300281 0
M  V30 9 C 2.419423 1.171069 1.378347 0
M  V30 10 C 1.887263 0.372057 0.251339 0
M  V30 11 O 1.564156 -0.861563 0.309837 0
M  V30 12 N 1.655648 0.872473 -1.080763 0
M  V30 13 C 1.143336 -0.263756 -1.803235 0
M  V30 14 C -0.216693 -0.486274 -1.819755 0
M  V30 15 C -0.645119 -1.592428 -2.528633 0
M  V30 16 N -2.051660 -1.897036 -2.595311 0
M  V30 17 C -2.366914 -2.742666 -1.500395 0
M  V30 18 O -1.397922 -3.027458 -0.749156 0
M  V30 19 C -3.685111 -3.290775 -1.187217 0
M  V30 20 C -3.752324 -4.095174 -0.068373 0
M  V30 21 C -4.989252 -4.648558 0.281567 0
M  V30 22 C -6.068114 -4.352235 -0.519406 0
M  V30 23 C -6.006173 -3.542926 -1.647080 0
M  V30 24 N -7.167648 -3.283499 -2.426089 0
M  V30 25 C -7.088202 -2.432296 -3.606816 0
M  V30 26 C -8.451237 -3.854538 -2.070420 0
M  V30 27 C -4.790982 -3.015068 -1.968620 0
M  V30 28 C 0.267762 -2.416790 -3.178921 0
M  V30 29 C 1.624177 -2.169955 -3.145596 0
M  V30 30 C 2.076825 -1.071899 -2.444647 0
M  V30 31 C 3.528034 -0.771261 -2.384457 0
M  V30 32 C 2.528989 0.449086 2.549559 0
M  V30 33 C 3.016278 1.114426 3.656149 0
M  V30 34 H 7.693985 2.986769 6.402015 0
M  V30 35 H 6.667050 1.826970 7.424622 0
M  V30 36 H 6.441582 2.015758 5.617726 0
M  V30 37 H 4.551274 2.345048 7.991114 0
M  V30 38 H 3.795030 3.867816 7.434853 0
M  V30 39 H 4.553456 1.392077 5.775158 0
M  V30 40 H 2.891879 2.030609 6.166373 0
M  V30 41 H 3.532994 4.171389 2.338892 0
M  V30 42 H 2.655314 2.985104 0.336545 0
M  V30 43 H 1.894939 1.898439 -1.233984 0
M  V30 44 H -0.903989 0.173626 -1.303448 0
M  V30 45 H -2.833955 -1.642947 -3.236684 0
M  V30 46 H -2.900643 -4.334532 0.572074 0
M  V30 47 H -5.060410 -5.280716 1.154858 0
M  V30 48 H -6.986832 -4.808066 -0.195210 0
M  V30 49 H -6.172712 -2.653154 -4.211620 0
M  V30 50 H -7.997321 -2.529284 -4.236362 0
M  V30 51 H -7.031212 -1.388549 -3.234564 0
M  V30 52 H -8.298928 -4.917615 -1.750653 0
M  V30 53 H -8.993848 -3.298710 -1.290785 0
M  V30 54 H -9.140829 -3.898025 -2.944548 0
M  V30 55 H -4.691116 -2.377817 -2.838325 0
M  V30 56 H -0.132764 -3.277343 -3.723571 0
M  V30 57 H 2.295240 -2.839757 -3.666715 0
M  V30 58 H 3.691081 0.271638 -2.041349 0
M  V30 59 H 4.103558 -1.521780 -1.842147 0
M  V30 60 H 3.927400 -0.782980 -3.441028 0
M  V30 61 H 2.259546 -0.591409 2.649663 0
M  V30 62 H 3.104962 0.543466 4.590193 0
M  V30 END ATOM
M  V30 BEGIN BOND
M  V30 1 1 1 2
M  V30 2 1 2 3
M  V30 3 1 3 4
M  V30 4 1 4 5
M  V30 5 1 5 6
M  V30 6 2 6 7
M  V30 7 1 7 8
M  V30 8 2 8 9
M  V30 9 1 9 10
M  V30 10 2 10 11
M  V30 11 1 10 12
M  V30 12 1 12 13
M  V30 13 2 13 14
M  V30 14 1 14 15
M  V30 15 1 15 16
M  V30 16 1 16 17
M  V30 17 2 17 18
M  V30 18 1 17 19
M  V30 19 2 19 20
M  V30 20 1 20 21
M  V30 21 2 21 22
M  V30 22 1 22 23
M  V30 23 1 23 24
M  V30 24 1 24 25
M  V30 25 1 24 26
M  V30 26 2 23 27
M  V30 27 2 15 28
M  V30 28 1 28 29
M  V30 29 2 29 30
M  V30 30 1 30 31
M  V30 31 1 9 32
M  V30 32 2 32 33
M  V30 33 1 33 6
M  V30 34 1 30 13
M  V30 35 1 27 19
M  V30 36 1 1 34
M  V30 37 1 1 35
M  V30 38 1 1 36
M  V30 39 1 3 37
M  V30 40 1 3 38
M  V30 41 1 4 39
M  V30 42 1 4 40
M  V30 43 1 7 41
M  V30 44 1 8 42
M  V30 45 1 12 43
M  V30 46 1 14 44
M  V30 47 1 16 45
M  V30 48 1 20 46
M  V30 49 1 21 47
M  V30 50 1 22 48
M  V30 51 1 25 49
M  V30 52 1 25 50
M  V30 53 1 25 51
M  V30 54 1 26 52
M  V30 55 1 26 53
M  V30 56 1 26 54
M  V30 57 1 27 55
M  V30 58 1 28 56
M  V30 59 1 29 57
M  V30 60 1 31 58
M  V30 61 1 31 59
M  V30 62 1 31 60
M  V30 63 1 32 61
M  V30 64 1 33 62
M  V30 END BOND
M  V30 END CTAB
M  END
>  <Dataset>  (700) 
ChEMBL_Kinases

>  <Ligand_Instance>  (700) 
nan

>  <PDB_ID>  (700) 
nan

>  <Standardized_SMILES>  (700) 
COCCOc1ccc(C(=O)Nc2cc(NC(=O)c3cccc(N(C)C)c3)ccc2C)cc1

>  <Name>  (700) 
nan

>  <Pocket>  (700) 
nan

>  <ATP_Site>  (700) 
nan

>  <Peripheral>  (700) 
nan

>  <Num_H_Atoms_ProtBoundConf>  (700) 
nan

>  <Num_Resolved_Atoms>  (700) 
nan

>  <Num_Not_Resolved_Atoms>  (700) 
nan

$$$$
CHEMBL184067
     RDKit          3D

  0  0  0  0  0  0  0  0  0  0999 V3000
M  V30 BEGIN CTAB
M  V30 COUNTS 46 50 0 0 0
M  V30 BEGIN ATOM
M  V30 1 F -3.184656 -3.189406 4.126938 0
M  V30 2 C -2.376756 -2.765518 3.136801 0
M  V30 3 C -2.329870 -3.434367 1.943739 0
M  V30 4 C -1.487352 -2.975097 0.940281 0
M  V30 5 C -0.686592 -1.844751 1.122948 0
M  V30 6 C 0.098298 -1.580945 -0.077459 0
M  V30 7 C 0.117402 -0.510531 -0.943673 0
M  V30 8 C -0.728682 0.668468 -0.798853 0
M  V30 9 C -1.681267 1.040995 -1.721329 0
M  V30 10 C -2.447420 2.191887 -1.502461 0
M  V30 11 N -2.252815 2.931562 -0.393592 0
M  V30 12 C -1.319678 2.562563 0.505297 0
M  V30 13 O -1.175764 3.374944 1.624506 0
M  V30 14 C -0.218887 3.013428 2.567972 0
M  V30 15 C 1.005912 3.604983 2.239751 0
M  V30 16 C 2.135264 3.397821 3.033230 0
M  V30 17 C 2.035273 2.604754 4.144641 0
M  V30 18 C 0.834004 2.040236 4.443452 0
M  V30 19 C -0.307313 2.216038 3.690621 0
M  V30 20 N -0.606290 1.466921 0.274617 0
M  V30 21 N 1.034896 -0.757653 -1.909745 0
M  V30 22 N 1.601074 -1.944138 -1.692532 0
M  V30 23 C 1.050141 -2.479328 -0.574730 0
M  V30 24 O 1.508659 -3.743555 -0.160498 0
M  V30 25 C 2.118749 -4.557386 -1.166068 0
M  V30 26 C 3.259606 -3.709759 -1.702985 0
M  V30 27 C 2.630808 -2.578827 -2.493811 0
M  V30 28 C -0.748229 -1.184604 2.332438 0
M  V30 29 C -1.585792 -1.651419 3.313199 0
M  V30 30 H -2.966209 -4.302854 1.847581 0
M  V30 31 H -1.548361 -3.601408 0.041239 0
M  V30 32 H -1.824772 0.425252 -2.617696 0
M  V30 33 H -3.178253 2.423700 -2.270468 0
M  V30 34 H 1.226147 4.251504 1.393539 0
M  V30 35 H 3.099867 3.824382 2.832142 0
M  V30 36 H 2.896742 2.429603 4.775256 0
M  V30 37 H 0.695255 1.403224 5.310112 0
M  V30 38 H -1.294228 1.830318 3.821896 0
M  V30 39 H 2.423721 -5.522627 -0.767326 0
M  V30 40 H 1.368486 -4.609779 -1.982613 0
M  V30 41 H 3.805419 -3.247824 -0.828977 0
M  V30 42 H 3.897229 -4.338878 -2.325673 0
M  V30 43 H 2.255523 -2.987765 -3.452090 0
M  V30 44 H 3.404280 -1.815105 -2.772119 0
M  V30 45 H -0.086195 -0.333990 2.348540 0
M  V30 46 H -1.579074 -1.081538 4.231861 0
M  V30 END ATOM
M  V30 BEGIN BOND
M  V30 1 1 1 2
M  V30 2 2 2 3
M  V30 3 1 3 4
M  V30 4 2 4 5
M  V30 5 1 5 6
M  V30 6 1 6 7
M  V30 7 1 7 8
M  V30 8 2 8 9
M  V30 9 1 9 10
M  V30 10 2 10 11
M  V30 11 1 11 12
M  V30 12 1 12 13
M  V30 13 1 13 14
M  V30 14 2 14 15
M  V30 15 1 15 16
M  V30 16 2 16 17
M  V30 17 1 17 18
M  V30 18 2 18 19
M  V30 19 2 12 20
M  V30 20 2 7 21
M  V30 21 1 21 22
M  V30 22 1 22 23
M  V30 23 1 23 24
M  V30 24 1 24 25
M  V30 25 1 25 26
M  V30 26 1 26 27
M  V30 27 1 5 28
M  V30 28 2 28 29
M  V30 29 1 29 2
M  V30 30 2 23 6
M  V30 31 1 20 8
M  V30 32 1 27 22
M  V30 33 1 19 14
M  V30 34 1 3 30
M  V30 35 1 4 31
M  V30 36 1 9 32
M  V30 37 1 10 33
M  V30 38 1 15 34
M  V30 39 1 16 35
M  V30 40 1 17 36
M  V30 41 1 18 37
M  V30 42 1 19 38
M  V30 43 1 25 39
M  V30 44 1 25 40
M  V30 45 1 26 41
M  V30 46 1 26 42
M  V30 47 1 27 43
M  V30 48 1 27 44
M  V30 49 1 28 45
M  V30 50 1 29 46
M  V30 END BOND
M  V30 END CTAB
M  END
>  <Dataset>  (701) 
ChEMBL_Kinases

>  <Ligand_Instance>  (701) 
nan

>  <PDB_ID>  (701) 
nan

>  <Standardized_SMILES>  (701) 
Fc1ccc(-c2c(-c3ccnc(Oc4ccccc4)n3)nn3c2OCCC3)cc1

>  <Name>  (701) 
nan

>  <Pocket>  (701) 
nan

>  <ATP_Site>  (701) 
nan

>  <Peripheral>  (701) 
nan

>  <Num_H_Atoms_ProtBoundConf>  (701) 
nan

>  <Num_Resolved_Atoms>  (701) 
nan

>  <Num_Not_Resolved_Atoms>  (701) 
nan

$$$$
CHEMBL184052
     RDKit          3D

  0  0  0  0  0  0  0  0  0  0999 V3000
M  V30 BEGIN CTAB
M  V30 COUNTS 66 70 0 0 0
M  V30 BEGIN ATOM
M  V30 1 C 7.161071 0.206860 4.901292 0
M  V30 2 O 5.964040 -0.127303 4.275164 0
M  V30 3 C 5.529901 0.261499 3.034778 0
M  V30 4 C 6.220627 1.081154 2.145046 0
M  V30 5 C 5.738648 1.438464 0.915908 0
M  V30 6 N 6.464842 2.230993 0.113800 0
M  V30 7 C 6.074156 2.631823 -1.108201 0
M  V30 8 N 4.878457 2.184939 -1.502545 0
M  V30 9 C 4.087369 1.383937 -0.753554 0
M  V30 10 N 2.840681 0.951383 -1.229551 0
M  V30 11 C 1.447307 1.249791 -1.330485 0
M  V30 12 C 0.591954 0.343060 -0.752337 0
M  V30 13 C -0.765554 0.599895 -0.834623 0
M  V30 14 N -1.886660 -0.125433 -0.336829 0
M  V30 15 C -2.440156 0.128018 1.002407 0
M  V30 16 O -1.558739 0.960554 1.083811 0
M  V30 17 C -3.557809 -0.778871 1.163567 0
M  V30 18 C -4.205501 -0.412529 2.332392 0
M  V30 19 C -5.329890 -1.134546 2.750429 0
M  V30 20 C -5.707970 -2.181194 1.938182 0
M  V30 21 C -5.056494 -2.536470 0.778205 0
M  V30 22 N -5.397206 -3.622024 -0.122938 0
M  V30 23 C -4.479144 -4.068856 -1.146301 0
M  V30 24 C -4.805796 -5.481316 -1.538261 0
M  V30 25 O -5.899609 -6.047177 -0.924805 0
M  V30 26 C -7.001345 -5.172636 -0.891297 0
M  V30 27 C -6.741001 -4.104916 0.186101 0
M  V30 28 C -3.956327 -1.818247 0.381686 0
M  V30 29 C -1.171338 1.756500 -1.496583 0
M  V30 30 C -0.284975 2.646715 -2.066433 0
M  V30 31 C 1.095475 2.405757 -1.993908 0
M  V30 32 C 2.079308 3.348310 -2.582270 0
M  V30 33 C 4.510076 0.985845 0.496993 0
M  V30 34 C 3.788190 0.169804 1.346309 0
M  V30 35 C 4.294467 -0.179006 2.583540 0
M  V30 36 O 3.567132 -0.993982 3.422353 0
M  V30 37 C 2.299808 -1.534079 3.130579 0
M  V30 38 H 7.649048 -0.723637 5.308970 0
M  V30 39 H 7.874494 0.586019 4.144803 0
M  V30 40 H 7.054064 0.990028 5.669543 0
M  V30 41 H 7.173780 1.444073 2.445931 0
M  V30 42 H 6.633386 3.267517 -1.770584 0
M  V30 43 H 3.108237 0.045631 -1.673840 0
M  V30 44 H 0.812048 -0.547983 -0.238856 0
M  V30 45 H -2.052516 -0.760406 -1.205779 0
M  V30 46 H -3.992925 0.386513 3.040094 0
M  V30 47 H -5.932242 -0.964875 3.629902 0
M  V30 48 H -6.557933 -2.778963 2.194362 0
M  V30 49 H -4.545504 -3.420298 -2.067305 0
M  V30 50 H -3.424727 -3.989881 -0.754559 0
M  V30 51 H -3.922427 -6.113530 -1.268138 0
M  V30 52 H -4.896643 -5.574261 -2.654743 0
M  V30 53 H -7.912219 -5.743643 -0.708072 0
M  V30 54 H -7.004317 -4.698882 -1.899963 0
M  V30 55 H -6.852832 -4.516610 1.185969 0
M  V30 56 H -7.512257 -3.328231 0.029588 0
M  V30 57 H -3.382481 -2.011650 -0.504689 0
M  V30 58 H -2.213082 2.084014 -1.639122 0
M  V30 59 H -0.568166 3.548212 -2.585497 0
M  V30 60 H 2.644431 3.894436 -1.797939 0
M  V30 61 H 1.556900 4.097758 -3.215759 0
M  V30 62 H 2.815332 2.864030 -3.248601 0
M  V30 63 H 2.838835 -0.168223 1.000564 0
M  V30 64 H 2.287853 -2.107936 2.155140 0
M  V30 65 H 1.961638 -2.236452 3.920425 0
M  V30 66 H 1.529013 -0.743786 3.053775 0
M  V30 END ATOM
M  V30 BEGIN BOND
M  V30 1 1 1 2
M  V30 2 1 2 3
M  V30 3 2 3 4
M  V30 4 1 4 5
M  V30 5 2 5 6
M  V30 6 1 6 7
M  V30 7 2 7 8
M  V30 8 1 8 9
M  V30 9 1 9 10
M  V30 10 1 10 11
M  V30 11 2 11 12
M  V30 12 1 12 13
M  V30 13 1 13 14
M  V30 14 1 14 15
M  V30 15 2 15 16
M  V30 16 1 15 17
M  V30 17 2 17 18
M  V30 18 1 18 19
M  V30 19 2 19 20
M  V30 20 1 20 21
M  V30 21 1 21 22
M  V30 22 1 22 23
M  V30 23 1 23 24
M  V30 24 1 24 25
M  V30 25 1 25 26
M  V30 26 1 26 27
M  V30 27 2 21 28
M  V30 28 2 13 29
M  V30 29 1 29 30
M  V30 30 2 30 31
M  V30 31 1 31 32
M  V30 32 2 9 33
M  V30 33 1 33 34
M  V30 34 2 34 35
M  V30 35 1 35 36
M  V30 36 1 36 37
M  V30 37 1 35 3
M  V30 38 1 33 5
M  V30 39 1 31 11
M  V30 40 1 28 17
M  V30 41 1 27 22
M  V30 42 1 1 38
M  V30 43 1 1 39
M  V30 44 1 1 40
M  V30 45 1 4 41
M  V30 46 1 7 42
M  V30 47 1 10 43
M  V30 48 1 12 44
M  V30 49 1 14 45
M  V30 50 1 18 46
M  V30 51 1 19 47
M  V30 52 1 20 48
M  V30 53 1 23 49
M  V30 54 1 23 50
M  V30 55 1 24 51
M  V30 56 1 24 52
M  V30 57 1 26 53
M  V30 58 1 26 54
M  V30 59 1 27 55
M  V30 60 1 27 56
M  V30 61 1 28 57
M  V30 62 1 29 58
M  V30 63 1 30 59
M  V30 64 1 32 60
M  V30 65 1 32 61
M  V30 66 1 32 62
M  V30 67 1 34 63
M  V30 68 1 37 64
M  V30 69 1 37 65
M  V30 70 1 37 66
M  V30 END BOND
M  V30 END CTAB
M  END
>  <Dataset>  (702) 
ChEMBL_Kinases

>  <Ligand_Instance>  (702) 
nan

>  <PDB_ID>  (702) 
nan

>  <Standardized_SMILES>  (702) 
COc1cc2ncnc(Nc3cc(NC(=O)c4cccc(N5CCOCC5)c4)ccc3C)c2cc1OC

>  <Name>  (702) 
nan

>  <Pocket>  (702) 
nan

>  <ATP_Site>  (702) 
nan

>  <Peripheral>  (702) 
nan

>  <Num_H_Atoms_ProtBoundConf>  (702) 
nan

>  <Num_Resolved_Atoms>  (702) 
nan

>  <Num_Not_Resolved_Atoms>  (702) 
nan

$$$$
CHEMBL184012
     RDKit          3D

  0  0  0  0  0  0  0  0  0  0999 V3000
M  V30 BEGIN CTAB
M  V30 COUNTS 68 72 0 0 0
M  V30 BEGIN ATOM
M  V30 1 C 3.567665 -3.697538 3.121712 0
M  V30 2 C 3.579427 -2.935762 1.839203 0
M  V30 3 C 4.279961 -3.366073 0.708622 0
M  V30 4 C 4.204297 -2.560057 -0.416074 0
M  V30 5 C 3.482150 -1.382817 -0.454309 0
M  V30 6 N 3.439582 -0.587087 -1.654233 0
M  V30 7 C 2.320696 -0.998551 -2.464378 0
M  V30 8 O 1.618791 -1.937162 -1.991343 0
M  V30 9 C 2.045069 -0.346171 -3.749911 0
M  V30 10 C 2.772158 0.668856 -4.330928 0
M  V30 11 C 2.425529 1.207441 -5.536463 0
M  V30 12 N 1.341560 0.744066 -6.192866 0
M  V30 13 C 0.601415 -0.250858 -5.657090 0
M  V30 14 N -0.529953 -0.749112 -6.319376 0
M  V30 15 C -1.019437 -0.314322 -7.603806 0
M  V30 16 C -2.507399 -0.030611 -7.396447 0
M  V30 17 O -3.130810 -1.249305 -7.339640 0
M  V30 18 C -2.423113 -2.256615 -6.716517 0
M  V30 19 C -1.360884 -1.778033 -5.785452 0
M  V30 20 C 0.937334 -0.806212 -4.440084 0
M  V30 21 C 2.786914 -0.952357 0.662362 0
M  V30 22 C 2.864872 -1.758198 1.780007 0
M  V30 23 N 2.111383 -1.241484 2.900303 0
M  V30 24 C 0.805165 -1.784198 2.805311 0
M  V30 25 O 0.683810 -2.546459 1.788980 0
M  V30 26 C -0.294506 -1.524178 3.740388 0
M  V30 27 C -0.138123 -0.688573 4.825407 0
M  V30 28 C -1.205508 -0.480708 5.672320 0
M  V30 29 C -2.436394 -1.094949 5.457108 0
M  V30 30 O -3.601564 -1.011793 6.180831 0
M  V30 31 C -3.815511 -0.260852 7.334382 0
M  V30 32 C -3.632266 1.198186 7.175180 0
M  V30 33 C -3.431254 1.905221 6.010873 0
M  V30 34 C -3.277173 3.271884 5.972055 0
M  V30 35 C -3.321408 4.004190 7.146179 0
M  V30 36 C -3.526288 3.266673 8.314596 0
M  V30 37 N -3.669439 1.949498 8.301907 0
M  V30 38 C -2.539253 -1.933250 4.340657 0
M  V30 39 C -1.488398 -2.161158 3.474075 0
M  V30 40 H 3.533994 -3.029714 3.990365 0
M  V30 41 H 2.784038 -4.468167 3.141106 0
M  V30 42 H 4.580723 -4.188905 3.170851 0
M  V30 43 H 4.830073 -4.283860 0.772833 0
M  V30 44 H 4.757252 -2.916524 -1.281533 0
M  V30 45 H 4.077497 0.180529 -1.961510 0
M  V30 46 H 3.629507 1.008088 -3.771595 0
M  V30 47 H 3.058049 1.992568 -5.900033 0
M  V30 48 H -0.962507 -1.165922 -8.327001 0
M  V30 49 H -0.487161 0.556024 -7.993093 0
M  V30 50 H -2.575192 0.517414 -6.427527 0
M  V30 51 H -2.940397 0.546539 -8.245124 0
M  V30 52 H -3.168188 -2.844591 -6.117978 0
M  V30 53 H -2.032637 -2.930073 -7.500600 0
M  V30 54 H -1.823408 -1.396282 -4.842264 0
M  V30 55 H -0.719260 -2.641231 -5.509989 0
M  V30 56 H 0.325308 -1.604417 -4.032124 0
M  V30 57 H 2.235155 -0.033918 0.602997 0
M  V30 58 H 2.304410 -0.592232 3.720057 0
M  V30 59 H 0.787210 -0.199247 5.024045 0
M  V30 60 H -1.197231 0.143765 6.540966 0
M  V30 61 H -4.843504 -0.402572 7.745783 0
M  V30 62 H -3.144654 -0.683619 8.116009 0
M  V30 63 H -3.402923 1.306890 5.106206 0
M  V30 64 H -3.121579 3.776698 5.029969 0
M  V30 65 H -3.195729 5.074670 7.070883 0
M  V30 66 H -3.557575 3.855956 9.220001 0
M  V30 67 H -3.465068 -2.467593 4.078484 0
M  V30 68 H -1.602523 -2.822710 2.611046 0
M  V30 END ATOM
M  V30 BEGIN BOND
M  V30 1 1 1 2
M  V30 2 2 2 3
M  V30 3 1 3 4
M  V30 4 2 4 5
M  V30 5 1 5 6
M  V30 6 1 6 7
M  V30 7 2 7 8
M  V30 8 1 7 9
M  V30 9 2 9 10
M  V30 10 1 10 11
M  V30 11 2 11 12
M  V30 12 1 12 13
M  V30 13 1 13 14
M  V30 14 1 14 15
M  V30 15 1 15 16
M  V30 16 1 16 17
M  V30 17 1 17 18
M  V30 18 1 18 19
M  V30 19 2 13 20
M  V30 20 1 5 21
M  V30 21 2 21 22
M  V30 22 1 22 23
M  V30 23 1 23 24
M  V30 24 2 24 25
M  V30 25 1 24 26
M  V30 26 2 26 27
M  V30 27 1 27 28
M  V30 28 2 28 29
M  V30 29 1 29 30
M  V30 30 1 30 31
M  V30 31 1 31 32
M  V30 32 2 32 33
M  V30 33 1 33 34
M  V30 34 2 34 35
M  V30 35 1 35 36
M  V30 36 2 36 37
M  V30 37 1 29 38
M  V30 38 2 38 39
M  V30 39 1 22 2
M  V30 40 1 39 26
M  V30 41 1 20 9
M  V30 42 1 37 32
M  V30 43 1 19 14
M  V30 44 1 1 40
M  V30 45 1 1 41
M  V30 46 1 1 42
M  V30 47 1 3 43
M  V30 48 1 4 44
M  V30 49 1 6 45
M  V30 50 1 10 46
M  V30 51 1 11 47
M  V30 52 1 15 48
M  V30 53 1 15 49
M  V30 54 1 16 50
M  V30 55 1 16 51
M  V30 56 1 18 52
M  V30 57 1 18 53
M  V30 58 1 19 54
M  V30 59 1 19 55
M  V30 60 1 20 56
M  V30 61 1 21 57
M  V30 62 1 23 58
M  V30 63 1 27 59
M  V30 64 1 28 60
M  V30 65 1 31 61
M  V30 66 1 31 62
M  V30 67 1 33 63
M  V30 68 1 34 64
M  V30 69 1 35 65
M  V30 70 1 36 66
M  V30 71 1 38 67
M  V30 72 1 39 68
M  V30 END BOND
M  V30 END CTAB
M  END
>  <Dataset>  (703) 
ChEMBL_Kinases

>  <Ligand_Instance>  (703) 
nan

>  <PDB_ID>  (703) 
nan

>  <Standardized_SMILES>  (703) 
Cc1ccc(NC(=O)c2ccnc(N3CCOCC3)c2)cc1NC(=O)c1ccc(OCc2ccccn2)cc1

>  <Name>  (703) 
nan

>  <Pocket>  (703) 
nan

>  <ATP_Site>  (703) 
nan

>  <Peripheral>  (703) 
nan

>  <Num_H_Atoms_ProtBoundConf>  (703) 
nan

>  <Num_Resolved_Atoms>  (703) 
nan

>  <Num_Not_Resolved_Atoms>  (703) 
nan

$$$$
CHEMBL184011
     RDKit          3D

  0  0  0  0  0  0  0  0  0  0999 V3000
M  V30 BEGIN CTAB
M  V30 COUNTS 55 57 0 0 0
M  V30 BEGIN ATOM
M  V30 1 C 4.880301 -8.835454 1.768739 0
M  V30 2 O 5.237750 -7.484266 1.797282 0
M  V30 3 C 4.404504 -6.531563 1.233461 0
M  V30 4 C 4.888477 -5.258788 1.339586 0
M  V30 5 C 4.192769 -4.179239 0.834410 0
M  V30 6 C 2.978797 -4.424001 0.210894 0
M  V30 7 C 2.071698 -3.444379 -0.396108 0
M  V30 8 O 0.971523 -3.650317 -0.963123 0
M  V30 9 N 2.405066 -2.066530 -0.383999 0
M  V30 10 C 1.598405 -1.031627 -0.943730 0
M  V30 11 C 0.634540 -0.373465 -0.216312 0
M  V30 12 C -0.158203 0.616653 -0.701432 0
M  V30 13 N -1.145130 1.316310 -0.018511 0
M  V30 14 C -1.593073 1.207682 1.321880 0
M  V30 15 O -1.035346 0.351029 2.051297 0
M  V30 16 C -2.631870 1.985106 1.941508 0
M  V30 17 C -2.943237 1.747929 3.264845 0
M  V30 18 C -3.945775 2.474608 3.919825 0
M  V30 19 C -4.652847 3.452630 3.255475 0
M  V30 20 C -4.365503 3.721590 1.913075 0
M  V30 21 N -5.082533 4.726255 1.208703 0
M  V30 22 C -4.869320 5.090764 -0.188944 0
M  V30 23 C -6.115785 5.467657 1.904390 0
M  V30 24 C -3.368313 2.972534 1.325123 0
M  V30 25 C 0.068304 0.939386 -2.024791 0
M  V30 26 C 1.020782 0.309483 -2.793095 0
M  V30 27 C 1.808428 -0.692764 -2.266425 0
M  V30 28 C 2.839607 -1.379775 -3.086033 0
M  V30 29 C 2.490368 -5.716891 0.104813 0
M  V30 30 C 3.208770 -6.800676 0.622723 0
M  V30 31 H 5.096208 -9.274860 0.781116 0
M  V30 32 H 5.406648 -9.443149 2.535731 0
M  V30 33 H 3.783327 -8.975940 1.980321 0
M  V30 34 H 5.830818 -4.976261 1.812360 0
M  V30 35 H 4.474869 -3.133725 0.859467 0
M  V30 36 H 3.283384 -1.688831 0.042759 0
M  V30 37 H 0.541655 -0.694885 0.782743 0
M  V30 38 H -1.700893 2.072485 -0.509822 0
M  V30 39 H -2.456892 1.001561 3.899976 0
M  V30 40 H -4.185733 2.278614 4.971707 0
M  V30 41 H -5.416443 3.990055 3.793356 0
M  V30 42 H -4.122481 5.910090 -0.225309 0
M  V30 43 H -5.824058 5.467621 -0.642243 0
M  V30 44 H -4.553294 4.214386 -0.793915 0
M  V30 45 H -6.770649 4.750582 2.471791 0
M  V30 46 H -6.734847 6.076442 1.247758 0
M  V30 47 H -5.680618 6.131746 2.694015 0
M  V30 48 H -3.174466 3.200497 0.307905 0
M  V30 49 H -0.524055 1.729433 -2.508444 0
M  V30 50 H 1.147975 0.603997 -3.809654 0
M  V30 51 H 2.833803 -2.474182 -2.806277 0
M  V30 52 H 3.865364 -1.029901 -2.855312 0
M  V30 53 H 2.603959 -1.371666 -4.159381 0
M  V30 54 H 1.549527 -6.000384 -0.367023 0
M  V30 55 H 2.878816 -7.814542 0.568096 0
M  V30 END ATOM
M  V30 BEGIN BOND
M  V30 1 1 1 2
M  V30 2 1 2 3
M  V30 3 2 3 4
M  V30 4 1 4 5
M  V30 5 2 5 6
M  V30 6 1 6 7
M  V30 7 2 7 8
M  V30 8 1 7 9
M  V30 9 1 9 10
M  V30 10 2 10 11
M  V30 11 1 11 12
M  V30 12 1 12 13
M  V30 13 1 13 14
M  V30 14 2 14 15
M  V30 15 1 14 16
M  V30 16 2 16 17
M  V30 17 1 17 18
M  V30 18 2 18 19
M  V30 19 1 19 20
M  V30 20 1 20 21
M  V30 21 1 21 22
M  V30 22 1 21 23
M  V30 23 2 20 24
M  V30 24 2 12 25
M  V30 25 1 25 26
M  V30 26 2 26 27
M  V30 27 1 27 28
M  V30 28 1 6 29
M  V30 29 2 29 30
M  V30 30 1 30 3
M  V30 31 1 27 10
M  V30 32 1 24 16
M  V30 33 1 1 31
M  V30 34 1 1 32
M  V30 35 1 1 33
M  V30 36 1 4 34
M  V30 37 1 5 35
M  V30 38 1 9 36
M  V30 39 1 11 37
M  V30 40 1 13 38
M  V30 41 1 17 39
M  V30 42 1 18 40
M  V30 43 1 19 41
M  V30 44 1 22 42
M  V30 45 1 22 43
M  V30 46 1 22 44
M  V30 47 1 23 45
M  V30 48 1 23 46
M  V30 49 1 23 47
M  V30 50 1 24 48
M  V30 51 1 25 49
M  V30 52 1 26 50
M  V30 53 1 28 51
M  V30 54 1 28 52
M  V30 55 1 28 53
M  V30 56 1 29 54
M  V30 57 1 30 55
M  V30 END BOND
M  V30 END CTAB
M  END
>  <Dataset>  (704) 
ChEMBL_Kinases

>  <Ligand_Instance>  (704) 
nan

>  <PDB_ID>  (704) 
nan

>  <Standardized_SMILES>  (704) 
COc1ccc(C(=O)Nc2cc(NC(=O)c3cccc(N(C)C)c3)ccc2C)cc1

>  <Name>  (704) 
nan

>  <Pocket>  (704) 
nan

>  <ATP_Site>  (704) 
nan

>  <Peripheral>  (704) 
nan

>  <Num_H_Atoms_ProtBoundConf>  (704) 
nan

>  <Num_Resolved_Atoms>  (704) 
nan

>  <Num_Not_Resolved_Atoms>  (704) 
nan

$$$$
CHEMBL186343
     RDKit          3D

  0  0  0  0  0  0  0  0  0  0999 V3000
M  V30 BEGIN CTAB
M  V30 COUNTS 37 40 0 0 0
M  V30 BEGIN ATOM
M  V30 1 C 1.238079 -4.599615 -0.596770 0
M  V30 2 C 1.079787 -4.023659 0.785784 0
M  V30 3 N 0.672927 -2.633456 0.753167 0
M  V30 4 C 1.463999 -1.546467 0.727075 0
M  V30 5 C 2.921036 -1.512322 0.725454 0
M  V30 6 N 3.811353 -2.520346 0.748718 0
M  V30 7 O 5.014959 -2.052850 0.736989 0
M  V30 8 N 4.976540 -0.752552 0.706336 0
M  V30 9 C 3.682668 -0.362742 0.697894 0
M  V30 10 N 3.235814 0.991651 0.666217 0
M  V30 11 N 0.710423 -0.432907 0.701204 0
M  V30 12 C -0.597316 -0.808792 0.710791 0
M  V30 13 C -1.769389 -0.051279 0.693557 0
M  V30 14 C -1.616783 1.397402 0.659240 0
M  V30 15 C -2.355420 2.204951 -0.180153 0
M  V30 16 C -2.156420 3.574410 -0.158229 0
M  V30 17 C -1.212515 4.066240 0.718347 0
M  V30 18 C -0.461749 3.269283 1.568452 0
M  V30 19 C -0.666738 1.906025 1.539768 0
M  V30 20 N -2.951422 -0.705603 0.709669 0
M  V30 21 C -3.012482 -2.056475 0.741601 0
M  V30 22 C -1.863569 -2.831295 0.759247 0
M  V30 23 C -0.621593 -2.207381 0.743819 0
M  V30 24 H 0.900003 -3.905294 -1.389788 0
M  V30 25 H 0.728001 -5.584464 -0.613532 0
M  V30 26 H 2.312904 -4.830356 -0.836754 0
M  V30 27 H 2.075885 -4.061871 1.273667 0
M  V30 28 H 0.413424 -4.632405 1.431298 0
M  V30 29 H 3.095033 1.579010 -0.187460 0
M  V30 30 H 2.994471 1.561967 1.495823 0
M  V30 31 H -3.074483 1.748365 -0.837357 0
M  V30 32 H -2.719888 4.241818 -0.805166 0
M  V30 33 H -1.021419 5.129951 0.771763 0
M  V30 34 H 0.272254 3.708168 2.242812 0
M  V30 35 H -0.084781 1.277930 2.200052 0
M  V30 36 H -3.935248 -2.586077 0.754607 0
M  V30 37 H -1.880698 -3.915389 0.784830 0
M  V30 END ATOM
M  V30 BEGIN BOND
M  V30 1 1 1 2
M  V30 2 1 2 3
M  V30 3 1 3 4
M  V30 4 1 4 5
M  V30 5 2 5 6
M  V30 6 1 6 7
M  V30 7 1 7 8
M  V30 8 2 8 9
M  V30 9 1 9 10
M  V30 10 2 4 11
M  V30 11 1 11 12
M  V30 12 2 12 13
M  V30 13 1 13 14
M  V30 14 2 14 15
M  V30 15 1 15 16
M  V30 16 2 16 17
M  V30 17 1 17 18
M  V30 18 2 18 19
M  V30 19 1 13 20
M  V30 20 2 20 21
M  V30 21 1 21 22
M  V30 22 2 22 23
M  V30 23 1 23 3
M  V30 24 1 9 5
M  V30 25 1 23 12
M  V30 26 1 19 14
M  V30 27 1 1 24
M  V30 28 1 1 25
M  V30 29 1 1 26
M  V30 30 1 2 27
M  V30 31 1 2 28
M  V30 32 1 10 29
M  V30 33 1 10 30
M  V30 34 1 15 31
M  V30 35 1 16 32
M  V30 36 1 17 33
M  V30 37 1 18 34
M  V30 38 1 19 35
M  V30 39 1 21 36
M  V30 40 1 22 37
M  V30 END BOND
M  V30 END CTAB
M  END
>  <Dataset>  (705) 
ChEMBL_Kinases

>  <Ligand_Instance>  (705) 
nan

>  <PDB_ID>  (705) 
nan

>  <Standardized_SMILES>  (705) 
CCn1c(-c2nonc2N)nc2c(-c3ccccc3)nccc21

>  <Name>  (705) 
nan

>  <Pocket>  (705) 
nan

>  <ATP_Site>  (705) 
nan

>  <Peripheral>  (705) 
nan

>  <Num_H_Atoms_ProtBoundConf>  (705) 
nan

>  <Num_Resolved_Atoms>  (705) 
nan

>  <Num_Not_Resolved_Atoms>  (705) 
nan

$$$$
CHEMBL1835629
     RDKit          3D

  0  0  0  0  0  0  0  0  0  0999 V3000
M  V30 BEGIN CTAB
M  V30 COUNTS 55 59 0 0 0
M  V30 BEGIN ATOM
M  V30 1 C 2.997144 -4.820798 3.825815 0
M  V30 2 O 2.800468 -4.654496 2.458074 0
M  V30 3 C 3.113300 -3.527870 1.711623 0
M  V30 4 C 3.676642 -2.469186 2.390601 0
M  V30 5 C 3.975252 -1.356712 1.596803 0
M  V30 6 C 3.760551 -1.229498 0.231025 0
M  V30 7 N 4.075465 -0.064564 -0.574927 0
M  V30 8 C 2.830457 0.407863 -0.365548 0
M  V30 9 S 3.527232 1.570923 -1.348419 0
M  V30 10 N 1.557937 0.890871 -0.151625 0
M  V30 11 C 0.846148 2.008925 -0.211199 0
M  V30 12 C -0.380251 1.536959 0.203484 0
M  V30 13 C -1.494280 2.490530 0.280599 0
M  V30 14 C -2.094403 2.960271 1.427050 0
M  V30 15 C -3.148944 3.842914 1.293238 0
M  V30 16 C -3.628892 4.275297 0.079951 0
M  V30 17 N -4.597571 5.092439 -0.301831 0
M  V30 18 C -4.618074 5.144906 -1.622325 0
M  V30 19 N -3.640664 4.343254 -2.107276 0
M  V30 20 N -3.029770 3.806051 -1.049041 0
M  V30 21 C -2.004560 2.948612 -0.923918 0
M  V30 22 C -0.434484 0.200793 0.504139 0
M  V30 23 C -1.582561 -0.572614 0.961479 0
M  V30 24 C -2.320480 -0.483272 2.118404 0
M  V30 25 C -3.373731 -1.318422 2.349755 0
M  V30 26 C -3.632328 -2.225031 1.372249 0
M  V30 27 C -2.936594 -2.369725 0.192645 0
M  V30 28 C -3.280500 -3.402100 -0.842470 0
M  V30 29 N -1.902436 -1.509771 0.024948 0
M  V30 30 N 0.856515 -0.168171 0.254719 0
M  V30 31 C 3.182848 -2.381248 -0.325817 0
M  V30 32 C 2.841683 -3.548179 0.362535 0
M  V30 33 O 2.275354 -4.645526 -0.251075 0
M  V30 34 C 1.992247 -4.668935 -1.630731 0
M  V30 35 H 4.034776 -4.735541 4.182017 0
M  V30 36 H 2.492716 -5.774004 4.123966 0
M  V30 37 H 2.406857 -4.015272 4.358093 0
M  V30 38 H 3.903546 -2.408435 3.432366 0
M  V30 39 H 4.428951 -0.473761 2.080322 0
M  V30 40 H 4.971817 -0.482086 -0.681045 0
M  V30 41 H 1.322110 2.895475 -0.522870 0
M  V30 42 H -1.698669 2.608170 2.358048 0
M  V30 43 H -3.619999 4.208241 2.192221 0
M  V30 44 H -5.177730 5.633992 -2.421143 0
M  V30 45 H -1.560702 2.603864 -1.861965 0
M  V30 46 H -1.963374 0.292529 2.776469 0
M  V30 47 H -3.924591 -1.209799 3.272291 0
M  V30 48 H -4.462586 -2.912901 1.511737 0
M  V30 49 H -2.771403 -3.111408 -1.787622 0
M  V30 50 H -2.859281 -4.378640 -0.520432 0
M  V30 51 H -4.376548 -3.522040 -0.964801 0
M  V30 52 H 2.999045 -2.322397 -1.391461 0
M  V30 53 H 1.756948 -5.691041 -1.996522 0
M  V30 54 H 2.780884 -4.174682 -2.193942 0
M  V30 55 H 1.053599 -4.075692 -1.771416 0
M  V30 END ATOM
M  V30 BEGIN BOND
M  V30 1 1 1 2
M  V30 2 1 2 3
M  V30 3 2 3 4
M  V30 4 1 4 5
M  V30 5 2 5 6
M  V30 6 1 6 7
M  V30 7 1 7 8
M  V30 8 2 8 9
M  V30 9 1 8 10
M  V30 10 1 10 11
M  V30 11 2 11 12
M  V30 12 1 12 13
M  V30 13 1 13 14
M  V30 14 2 14 15
M  V30 15 1 15 16
M  V30 16 2 16 17
M  V30 17 1 17 18
M  V30 18 2 18 19
M  V30 19 1 19 20
M  V30 20 1 20 21
M  V30 21 1 12 22
M  V30 22 1 22 23
M  V30 23 2 23 24
M  V30 24 1 24 25
M  V30 25 2 25 26
M  V30 26 1 26 27
M  V30 27 1 27 28
M  V30 28 2 27 29
M  V30 29 2 22 30
M  V30 30 1 6 31
M  V30 31 2 31 32
M  V30 32 1 32 33
M  V30 33 1 33 34
M  V30 34 1 32 3
M  V30 35 1 30 10
M  V30 36 2 21 13
M  V30 37 1 29 23
M  V30 38 1 20 16
M  V30 39 1 1 35
M  V30 40 1 1 36
M  V30 41 1 1 37
M  V30 42 1 4 38
M  V30 43 1 5 39
M  V30 44 1 7 40
M  V30 45 1 11 41
M  V30 46 1 14 42
M  V30 47 1 15 43
M  V30 48 1 18 44
M  V30 49 1 21 45
M  V30 50 1 24 46
M  V30 51 1 25 47
M  V30 52 1 26 48
M  V30 53 1 28 49
M  V30 54 1 28 50
M  V30 55 1 28 51
M  V30 56 1 31 52
M  V30 57 1 34 53
M  V30 58 1 34 54
M  V30 59 1 34 55
M  V30 END BOND
M  V30 END CTAB
M  END
>  <Dataset>  (706) 
ChEMBL_Kinases

>  <Ligand_Instance>  (706) 
nan

>  <PDB_ID>  (706) 
nan

>  <Standardized_SMILES>  (706) 
COc1ccc(NC(=S)n2cc(-c3ccc4ncnn4c3)c(-c3cccc(C)n3)n2)cc1OC

>  <Name>  (706) 
nan

>  <Pocket>  (706) 
nan

>  <ATP_Site>  (706) 
nan

>  <Peripheral>  (706) 
nan

>  <Num_H_Atoms_ProtBoundConf>  (706) 
nan

>  <Num_Resolved_Atoms>  (706) 
nan

>  <Num_Not_Resolved_Atoms>  (706) 
nan

$$$$
CHEMBL1835630
     RDKit          3D

  0  0  0  0  0  0  0  0  0  0999 V3000
M  V30 BEGIN CTAB
M  V30 COUNTS 55 59 0 0 0
M  V30 BEGIN ATOM
M  V30 1 C -0.108627 -2.758530 7.236684 0
M  V30 2 O -0.630331 -1.494207 7.559693 0
M  V30 3 C -0.736924 -0.553645 6.557346 0
M  V30 4 C -0.345986 -0.813528 5.247564 0
M  V30 5 C -0.478886 0.164594 4.300320 0
M  V30 6 N -0.104687 -0.002764 2.938565 0
M  V30 7 C 0.932365 0.154584 1.976786 0
M  V30 8 S 2.240150 0.789442 2.740933 0
M  V30 9 N 0.802237 -0.195043 0.603865 0
M  V30 10 C 0.620343 0.728651 -0.363919 0
M  V30 11 C 0.540783 0.015837 -1.544669 0
M  V30 12 C 0.350043 0.399054 -2.953159 0
M  V30 13 C 1.346125 0.124632 -3.876087 0
M  V30 14 C 1.107204 0.508323 -5.183926 0
M  V30 15 C -0.093440 1.124071 -5.442825 0
M  V30 16 N -0.568472 1.593068 -6.629836 0
M  V30 17 C -1.798124 2.124724 -6.418877 0
M  V30 18 N -2.089256 1.985348 -5.092458 0
M  V30 19 N -1.040566 1.375928 -4.521803 0
M  V30 20 C -0.852192 1.018335 -3.225189 0
M  V30 21 C 0.680366 -1.342246 -1.241895 0
M  V30 22 C 0.670735 -2.494040 -2.121067 0
M  V30 23 C -0.435698 -2.824904 -2.875566 0
M  V30 24 C -0.532357 -3.896402 -3.734746 0
M  V30 25 C 0.570750 -4.716525 -3.857686 0
M  V30 26 C 1.695138 -4.395513 -3.102594 0
M  V30 27 C 2.843761 -5.312395 -3.279121 0
M  V30 28 N 1.739165 -3.326157 -2.268858 0
M  V30 29 N 0.840132 -1.422070 0.104317 0
M  V30 30 C -0.995892 1.417327 4.609489 0
M  V30 31 C -1.404208 1.733204 5.907949 0
M  V30 32 O -1.915665 2.957280 6.238305 0
M  V30 33 C -2.325624 3.257960 7.568847 0
M  V30 34 C -1.235639 0.688041 6.803574 0
M  V30 35 H 0.943837 -2.782712 6.960179 0
M  V30 36 H -0.694503 -3.097252 6.333857 0
M  V30 37 H -0.253381 -3.463143 8.089244 0
M  V30 38 H 0.058150 -1.773780 4.975445 0
M  V30 39 H -1.015904 -0.403496 2.593627 0
M  V30 40 H 0.536870 1.792171 -0.373675 0
M  V30 41 H 2.248958 -0.364225 -3.559420 0
M  V30 42 H 1.860373 0.311352 -5.933428 0
M  V30 43 H -2.529366 2.604882 -7.081202 0
M  V30 44 H -1.589721 1.205719 -2.465110 0
M  V30 45 H -1.302899 -2.156776 -2.760903 0
M  V30 46 H -1.410820 -4.123449 -4.306713 0
M  V30 47 H 0.528623 -5.563003 -4.521027 0
M  V30 48 H 3.760760 -4.964457 -2.763991 0
M  V30 49 H 2.597204 -6.323021 -2.862333 0
M  V30 50 H 3.010543 -5.515845 -4.373970 0
M  V30 51 H -1.103528 2.196426 3.862469 0
M  V30 52 H -2.993318 2.440052 7.964966 0
M  V30 53 H -1.488691 3.360086 8.271538 0
M  V30 54 H -2.961912 4.172380 7.567747 0
M  V30 55 H -1.542916 0.894723 7.829990 0
M  V30 END ATOM
M  V30 BEGIN BOND
M  V30 1 1 1 2
M  V30 2 1 2 3
M  V30 3 2 3 4
M  V30 4 1 4 5
M  V30 5 1 5 6
M  V30 6 1 6 7
M  V30 7 2 7 8
M  V30 8 1 7 9
M  V30 9 1 9 10
M  V30 10 2 10 11
M  V30 11 1 11 12
M  V30 12 1 12 13
M  V30 13 2 13 14
M  V30 14 1 14 15
M  V30 15 2 15 16
M  V30 16 1 16 17
M  V30 17 2 17 18
M  V30 18 1 18 19
M  V30 19 1 19 20
M  V30 20 1 11 21
M  V30 21 1 21 22
M  V30 22 2 22 23
M  V30 23 1 23 24
M  V30 24 2 24 25
M  V30 25 1 25 26
M  V30 26 1 26 27
M  V30 27 2 26 28
M  V30 28 2 21 29
M  V30 29 2 5 30
M  V30 30 1 30 31
M  V30 31 1 31 32
M  V30 32 1 32 33
M  V30 33 2 31 34
M  V30 34 1 34 3
M  V30 35 1 29 9
M  V30 36 2 20 12
M  V30 37 1 28 22
M  V30 38 1 19 15
M  V30 39 1 1 35
M  V30 40 1 1 36
M  V30 41 1 1 37
M  V30 42 1 4 38
M  V30 43 1 6 39
M  V30 44 1 10 40
M  V30 45 1 13 41
M  V30 46 1 14 42
M  V30 47 1 17 43
M  V30 48 1 20 44
M  V30 49 1 23 45
M  V30 50 1 24 46
M  V30 51 1 25 47
M  V30 52 1 27 48
M  V30 53 1 27 49
M  V30 54 1 27 50
M  V30 55 1 30 51
M  V30 56 1 33 52
M  V30 57 1 33 53
M  V30 58 1 33 54
M  V30 59 1 34 55
M  V30 END BOND
M  V30 END CTAB
M  END
>  <Dataset>  (707) 
ChEMBL_Kinases

>  <Ligand_Instance>  (707) 
nan

>  <PDB_ID>  (707) 
nan

>  <Standardized_SMILES>  (707) 
COc1cc(NC(=S)n2cc(-c3ccc4ncnn4c3)c(-c3cccc(C)n3)n2)cc(OC)c1

>  <Name>  (707) 
nan

>  <Pocket>  (707) 
nan

>  <ATP_Site>  (707) 
nan

>  <Peripheral>  (707) 
nan

>  <Num_H_Atoms_ProtBoundConf>  (707) 
nan

>  <Num_Resolved_Atoms>  (707) 
nan

>  <Num_Not_Resolved_Atoms>  (707) 
nan

$$$$
CHEMBL1835709
     RDKit          3D

  0  0  0  0  0  0  0  0  0  0999 V3000
M  V30 BEGIN CTAB
M  V30 COUNTS 55 59 0 0 0
M  V30 BEGIN ATOM
M  V30 1 C -2.095524 -3.216028 5.154226 0
M  V30 2 C -1.017978 -3.168862 4.119172 0
M  V30 3 C 0.108519 -3.927632 4.362249 0
M  V30 4 C 1.090397 -3.887144 3.422714 0
M  V30 5 C 0.993364 -3.133199 2.272362 0
M  V30 6 C -0.142966 -2.383911 2.052874 0
M  V30 7 C -0.528443 -1.514063 0.957912 0
M  V30 8 N -0.716768 -0.186120 1.056005 0
M  V30 9 N -1.061598 0.261974 -0.153107 0
M  V30 10 C -1.355584 1.595687 -0.506945 0
M  V30 11 S -2.950537 1.761296 -0.343338 0
M  V30 12 N -0.497842 2.645043 -0.930229 0
M  V30 13 C 0.934064 2.476497 -1.071891 0
M  V30 14 C 1.514202 3.814362 -1.547998 0
M  V30 15 C 1.483710 4.734563 -0.326422 0
M  V30 16 N 0.496146 4.273991 0.611796 0
M  V30 17 C 0.069270 5.269062 1.543179 0
M  V30 18 C 0.917571 3.046468 1.282280 0
M  V30 19 C 1.611964 2.200903 0.259150 0
M  V30 20 C -1.090236 -0.787215 -1.014831 0
M  V30 21 C -0.748595 -1.959582 -0.327652 0
M  V30 22 C -0.681851 -3.258371 -0.945227 0
M  V30 23 C -1.953340 -3.638931 -1.398436 0
M  V30 24 C -2.167662 -4.863640 -2.040985 0
M  V30 25 C -1.067651 -5.689644 -2.212707 0
M  V30 26 N -0.886648 -6.910197 -2.769205 0
M  V30 27 C 0.406568 -7.268779 -2.671373 0
M  V30 28 N 1.052365 -6.252116 -2.040208 0
M  V30 29 N 0.142327 -5.303114 -1.769552 0
M  V30 30 C 0.363069 -4.129797 -1.150719 0
M  V30 31 N -1.128130 -2.425036 2.996416 0
M  V30 32 H -2.905244 -3.935924 4.888199 0
M  V30 33 H -1.657698 -3.469597 6.144102 0
M  V30 34 H -2.575256 -2.218165 5.293436 0
M  V30 35 H 0.224124 -4.535847 5.255347 0
M  V30 36 H 2.016981 -4.440081 3.506126 0
M  V30 37 H 1.700831 -3.020137 1.463415 0
M  V30 38 H -0.966139 3.553352 -1.135565 0
M  V30 39 H 1.218397 1.662266 -1.767209 0
M  V30 40 H 0.971465 4.219503 -2.407574 0
M  V30 41 H 2.565797 3.610552 -1.861306 0
M  V30 42 H 2.485220 4.675113 0.136677 0
M  V30 43 H 1.289237 5.769563 -0.610593 0
M  V30 44 H -0.569173 6.024641 1.048449 0
M  V30 45 H 0.926198 5.724451 2.086060 0
M  V30 46 H -0.556122 4.756316 2.313271 0
M  V30 47 H 1.521663 3.274514 2.176653 0
M  V30 48 H 0.019220 2.471850 1.641842 0
M  V30 49 H 2.672526 2.552027 0.155680 0
M  V30 50 H 1.686995 1.131951 0.503050 0
M  V30 51 H -1.341167 -0.696158 -2.059967 0
M  V30 52 H -2.890434 -3.070566 -1.318823 0
M  V30 53 H -3.107166 -5.199703 -2.402150 0
M  V30 54 H 0.839687 -8.211403 -3.039367 0
M  V30 55 H 1.282958 -3.745923 -0.772016 0
M  V30 END ATOM
M  V30 BEGIN BOND
M  V30 1 1 1 2
M  V30 2 2 2 3
M  V30 3 1 3 4
M  V30 4 2 4 5
M  V30 5 1 5 6
M  V30 6 1 6 7
M  V30 7 2 7 8
M  V30 8 1 8 9
M  V30 9 1 9 10
M  V30 10 2 10 11
M  V30 11 1 10 12
M  V30 12 1 12 13
M  V30 13 1 13 14
M  V30 14 1 14 15
M  V30 15 1 15 16
M  V30 16 1 16 17
M  V30 17 1 16 18
M  V30 18 1 18 19
M  V30 19 1 9 20
M  V30 20 2 20 21
M  V30 21 1 21 22
M  V30 22 1 22 23
M  V30 23 2 23 24
M  V30 24 1 24 25
M  V30 25 2 25 26
M  V30 26 1 26 27
M  V30 27 2 27 28
M  V30 28 1 28 29
M  V30 29 1 29 30
M  V30 30 2 6 31
M  V30 31 1 31 2
M  V30 32 1 21 7
M  V30 33 2 30 22
M  V30 34 1 19 13
M  V30 35 1 29 25
M  V30 36 1 1 32
M  V30 37 1 1 33
M  V30 38 1 1 34
M  V30 39 1 3 35
M  V30 40 1 4 36
M  V30 41 1 5 37
M  V30 42 1 12 38
M  V30 43 1 13 39
M  V30 44 1 14 40
M  V30 45 1 14 41
M  V30 46 1 15 42
M  V30 47 1 15 43
M  V30 48 1 17 44
M  V30 49 1 17 45
M  V30 50 1 17 46
M  V30 51 1 18 47
M  V30 52 1 18 48
M  V30 53 1 19 49
M  V30 54 1 19 50
M  V30 55 1 20 51
M  V30 56 1 23 52
M  V30 57 1 24 53
M  V30 58 1 27 54
M  V30 59 1 30 55
M  V30 END BOND
M  V30 END CTAB
M  END
>  <Dataset>  (708) 
ChEMBL_Kinases

>  <Ligand_Instance>  (708) 
nan

>  <PDB_ID>  (708) 
nan

>  <Standardized_SMILES>  (708) 
Cc1cccc(-c2nn(C(=S)NC3CCN(C)CC3)cc2-c2ccc3ncnn3c2)n1

>  <Name>  (708) 
nan

>  <Pocket>  (708) 
nan

>  <ATP_Site>  (708) 
nan

>  <Peripheral>  (708) 
nan

>  <Num_H_Atoms_ProtBoundConf>  (708) 
nan

>  <Num_Resolved_Atoms>  (708) 
nan

>  <Num_Not_Resolved_Atoms>  (708) 
nan

$$$$
CHEMBL1835710
     RDKit          3D

  0  0  0  0  0  0  0  0  0  0999 V3000
M  V30 BEGIN CTAB
M  V30 COUNTS 65 70 0 0 0
M  V30 BEGIN ATOM
M  V30 1 C 3.754868 -0.305294 6.737220 0
M  V30 2 C 4.023419 0.568230 5.544864 0
M  V30 3 C 5.074684 1.457238 5.618196 0
M  V30 4 C 5.331443 2.267317 4.526125 0
M  V30 5 C 4.543419 2.173861 3.398475 0
M  V30 6 C 3.497428 1.278251 3.346661 0
M  V30 7 C 2.536249 1.002217 2.288942 0
M  V30 8 N 2.331424 -0.097636 1.537666 0
M  V30 9 N 1.353505 0.097786 0.703110 0
M  V30 10 C 0.819712 -0.822846 -0.271060 0
M  V30 11 S 1.902322 -1.336099 -1.380246 0
M  V30 12 N -0.551463 -1.246151 -0.257546 0
M  V30 13 C -1.061880 -2.163983 -1.237873 0
M  V30 14 C -2.538425 -2.387517 -0.928632 0
M  V30 15 C -3.189412 -3.361470 -1.854985 0
M  V30 16 N -2.257817 -4.316753 -2.387971 0
M  V30 17 C -2.884598 -5.491259 -2.930256 0
M  V30 18 C -3.811911 -5.177297 -4.026674 0
M  V30 19 C -5.135440 -4.927779 -3.691361 0
M  V30 20 C -6.060731 -4.625391 -4.670804 0
M  V30 21 C -5.688450 -4.566752 -5.987703 0
M  V30 22 C -4.357698 -4.822274 -6.280618 0
M  V30 23 C -3.403332 -5.127003 -5.338117 0
M  V30 24 C -1.168215 -4.607356 -1.505018 0
M  V30 25 C -0.269218 -3.433416 -1.259159 0
M  V30 26 C 0.882752 1.354717 0.889152 0
M  V30 27 C 1.630725 1.958929 1.908168 0
M  V30 28 C 1.316558 3.327652 2.297676 0
M  V30 29 C 0.060098 3.489972 2.893292 0
M  V30 30 C -0.443169 4.695807 3.336073 0
M  V30 31 C 0.389498 5.788312 3.156103 0
M  V30 32 N 0.175442 7.091858 3.485303 0
M  V30 33 C 1.290893 7.754373 3.100711 0
M  V30 34 N 2.153494 6.860934 2.552247 0
M  V30 35 N 1.599474 5.650982 2.585978 0
M  V30 36 C 2.071634 4.467153 2.161191 0
M  V30 37 N 3.261904 0.488278 4.435826 0
M  V30 38 H 3.574153 -1.349090 6.428296 0
M  V30 39 H 4.642099 -0.319752 7.390805 0
M  V30 40 H 2.923345 0.121152 7.341458 0
M  V30 41 H 5.715980 1.558424 6.489224 0
M  V30 42 H 6.134996 2.993488 4.495149 0
M  V30 43 H 4.637008 2.740201 2.486477 0
M  V30 44 H -1.136108 -0.845885 0.499645 0
M  V30 45 H -1.007651 -1.620542 -2.225772 0
M  V30 46 H -3.029853 -1.398411 -1.026614 0
M  V30 47 H -2.665938 -2.677082 0.139818 0
M  V30 48 H -3.754820 -2.825367 -2.633122 0
M  V30 49 H -3.924073 -3.949172 -1.249349 0
M  V30 50 H -3.422304 -6.049686 -2.134412 0
M  V30 51 H -2.065201 -6.166281 -3.282794 0
M  V30 52 H -5.559140 -4.940871 -2.702685 0
M  V30 53 H -7.108547 -4.421418 -4.466353 0
M  V30 54 H -6.393833 -4.332141 -6.772744 0
M  V30 55 H -4.083814 -4.769441 -7.343223 0
M  V30 56 H -2.374546 -5.318506 -5.621136 0
M  V30 57 H -0.553339 -5.399264 -1.973830 0
M  V30 58 H -1.599283 -4.929470 -0.530508 0
M  V30 59 H 0.548659 -3.395962 -2.030066 0
M  V30 60 H 0.204191 -3.585595 -0.252932 0
M  V30 61 H 0.049100 1.773664 0.305019 0
M  V30 62 H -0.618787 2.636825 3.046764 0
M  V30 63 H -1.417463 4.773407 3.789444 0
M  V30 64 H 1.399922 8.820460 3.241999 0
M  V30 65 H 3.024997 4.310921 1.701280 0
M  V30 END ATOM
M  V30 BEGIN BOND
M  V30 1 1 1 2
M  V30 2 2 2 3
M  V30 3 1 3 4
M  V30 4 2 4 5
M  V30 5 1 5 6
M  V30 6 1 6 7
M  V30 7 2 7 8
M  V30 8 1 8 9
M  V30 9 1 9 10
M  V30 10 2 10 11
M  V30 11 1 10 12
M  V30 12 1 12 13
M  V30 13 1 13 14
M  V30 14 1 14 15
M  V30 15 1 15 16
M  V30 16 1 16 17
M  V30 17 1 17 18
M  V30 18 2 18 19
M  V30 19 1 19 20
M  V30 20 2 20 21
M  V30 21 1 21 22
M  V30 22 2 22 23
M  V30 23 1 16 24
M  V30 24 1 24 25
M  V30 25 1 9 26
M  V30 26 2 26 27
M  V30 27 1 27 28
M  V30 28 1 28 29
M  V30 29 2 29 30
M  V30 30 1 30 31
M  V30 31 2 31 32
M  V30 32 1 32 33
M  V30 33 2 33 34
M  V30 34 1 34 35
M  V30 35 1 35 36
M  V30 36 2 6 37
M  V30 37 1 37 2
M  V30 38 1 27 7
M  V30 39 2 36 28
M  V30 40 1 25 13
M  V30 41 1 35 31
M  V30 42 1 23 18
M  V30 43 1 1 38
M  V30 44 1 1 39
M  V30 45 1 1 40
M  V30 46 1 3 41
M  V30 47 1 4 42
M  V30 48 1 5 43
M  V30 49 1 12 44
M  V30 50 1 13 45
M  V30 51 1 14 46
M  V30 52 1 14 47
M  V30 53 1 15 48
M  V30 54 1 15 49
M  V30 55 1 17 50
M  V30 56 1 17 51
M  V30 57 1 19 52
M  V30 58 1 20 53
M  V30 59 1 21 54
M  V30 60 1 22 55
M  V30 61 1 23 56
M  V30 62 1 24 57
M  V30 63 1 24 58
M  V30 64 1 25 59
M  V30 65 1 25 60
M  V30 66 1 26 61
M  V30 67 1 29 62
M  V30 68 1 30 63
M  V30 69 1 33 64
M  V30 70 1 36 65
M  V30 END BOND
M  V30 END CTAB
M  END
>  <Dataset>  (709) 
ChEMBL_Kinases

>  <Ligand_Instance>  (709) 
nan

>  <PDB_ID>  (709) 
nan

>  <Standardized_SMILES>  (709) 
Cc1cccc(-c2nn(C(=S)NC3CCN(Cc4ccccc4)CC3)cc2-c2ccc3ncnn3c2)n1

>  <Name>  (709) 
nan

>  <Pocket>  (709) 
nan

>  <ATP_Site>  (709) 
nan

>  <Peripheral>  (709) 
nan

>  <Num_H_Atoms_ProtBoundConf>  (709) 
nan

>  <Num_Resolved_Atoms>  (709) 
nan

>  <Num_Not_Resolved_Atoms>  (709) 
nan

$$$$
CHEMBL1835711
     RDKit          3D

  0  0  0  0  0  0  0  0  0  0999 V3000
M  V30 BEGIN CTAB
M  V30 COUNTS 50 54 0 0 0
M  V30 BEGIN ATOM
M  V30 1 C -0.876216 -3.992043 4.083270 0
M  V30 2 C 0.081794 -3.704548 2.998190 0
M  V30 3 C 0.998596 -4.722239 2.722871 0
M  V30 4 C 1.906197 -4.455967 1.698396 0
M  V30 5 C 1.905950 -3.267027 0.996784 0
M  V30 6 C 0.954925 -2.331246 1.353142 0
M  V30 7 C 0.830379 -1.028720 0.702791 0
M  V30 8 N 1.788304 -0.091224 0.688753 0
M  V30 9 N 1.379717 0.981655 0.020226 0
M  V30 10 C 1.898345 2.257171 -0.339115 0
M  V30 11 S 2.019999 2.587560 -1.937514 0
M  V30 12 N 2.300807 3.221120 0.630398 0
M  V30 13 C 2.835615 4.525681 0.801175 0
M  V30 14 C 1.929408 5.571389 0.881035 0
M  V30 15 C 2.408621 6.871998 1.048770 0
M  V30 16 C 3.776976 7.014208 1.123167 0
M  V30 17 C 4.707270 5.992296 1.047036 0
M  V30 18 C 4.199878 4.698986 0.878904 0
M  V30 19 C 0.121464 0.743563 -0.416259 0
M  V30 20 C -0.266823 -0.530721 -0.000987 0
M  V30 21 C -1.484901 -1.315035 -0.169729 0
M  V30 22 C -2.740283 -0.950332 0.292056 0
M  V30 23 C -3.839987 -1.766154 0.081611 0
M  V30 24 C -3.674454 -2.960410 -0.600118 0
M  V30 25 N -4.517788 -3.944563 -0.955456 0
M  V30 26 C -3.807109 -4.887960 -1.615884 0
M  V30 27 C -4.299565 -6.155684 -2.198459 0
M  V30 28 N -2.534442 -4.454057 -1.648897 0
M  V30 29 N -2.423744 -3.279790 -1.036377 0
M  V30 30 C -1.317263 -2.513832 -0.854379 0
M  V30 31 N 0.041830 -2.522636 2.338696 0
M  V30 32 H -1.764614 -4.496443 3.620628 0
M  V30 33 H -1.273168 -3.019061 4.444105 0
M  V30 34 H -0.450175 -4.554045 4.919652 0
M  V30 35 H 0.995337 -5.646044 3.271348 0
M  V30 36 H 2.654386 -5.213479 1.430693 0
M  V30 37 H 2.599271 -3.040725 0.200882 0
M  V30 38 H 2.207497 2.971631 1.639229 0
M  V30 39 H 0.853941 5.441538 0.820489 0
M  V30 40 H 1.750925 7.719193 1.116757 0
M  V30 41 H 4.154666 8.020136 1.253314 0
M  V30 42 H 5.763864 6.167577 1.111917 0
M  V30 43 H 4.899139 3.872723 0.815162 0
M  V30 44 H -0.617960 1.300773 -0.992055 0
M  V30 45 H -2.787053 -0.004692 0.814072 0
M  V30 46 H -4.806671 -1.451791 0.455306 0
M  V30 47 H -5.053719 -6.650300 -1.577242 0
M  V30 48 H -4.704437 -5.944900 -3.224581 0
M  V30 49 H -3.446199 -6.858872 -2.332287 0
M  V30 50 H -0.377009 -2.846099 -1.232223 0
M  V30 END ATOM
M  V30 BEGIN BOND
M  V30 1 1 1 2
M  V30 2 2 2 3
M  V30 3 1 3 4
M  V30 4 2 4 5
M  V30 5 1 5 6
M  V30 6 1 6 7
M  V30 7 2 7 8
M  V30 8 1 8 9
M  V30 9 1 9 10
M  V30 10 2 10 11
M  V30 11 1 10 12
M  V30 12 1 12 13
M  V30 13 2 13 14
M  V30 14 1 14 15
M  V30 15 2 15 16
M  V30 16 1 16 17
M  V30 17 2 17 18
M  V30 18 1 9 19
M  V30 19 2 19 20
M  V30 20 1 20 21
M  V30 21 1 21 22
M  V30 22 2 22 23
M  V30 23 1 23 24
M  V30 24 2 24 25
M  V30 25 1 25 26
M  V30 26 1 26 27
M  V30 27 2 26 28
M  V30 28 1 28 29
M  V30 29 1 29 30
M  V30 30 2 6 31
M  V30 31 1 31 2
M  V30 32 1 20 7
M  V30 33 2 30 21
M  V30 34 1 18 13
M  V30 35 1 29 24
M  V30 36 1 1 32
M  V30 37 1 1 33
M  V30 38 1 1 34
M  V30 39 1 3 35
M  V30 40 1 4 36
M  V30 41 1 5 37
M  V30 42 1 12 38
M  V30 43 1 14 39
M  V30 44 1 15 40
M  V30 45 1 16 41
M  V30 46 1 17 42
M  V30 47 1 18 43
M  V30 48 1 19 44
M  V30 49 1 22 45
M  V30 50 1 23 46
M  V30 51 1 27 47
M  V30 52 1 27 48
M  V30 53 1 27 49
M  V30 54 1 30 50
M  V30 END BOND
M  V30 END CTAB
M  END
>  <Dataset>  (710) 
ChEMBL_Kinases

>  <Ligand_Instance>  (710) 
nan

>  <PDB_ID>  (710) 
nan

>  <Standardized_SMILES>  (710) 
Cc1cccc(-c2nn(C(=S)Nc3ccccc3)cc2-c2ccc3nc(C)nn3c2)n1

>  <Name>  (710) 
nan

>  <Pocket>  (710) 
nan

>  <ATP_Site>  (710) 
nan

>  <Peripheral>  (710) 
nan

>  <Num_H_Atoms_ProtBoundConf>  (710) 
nan

>  <Num_Resolved_Atoms>  (710) 
nan

>  <Num_Not_Resolved_Atoms>  (710) 
nan

$$$$
CHEMBL1835712
     RDKit          3D

  0  0  0  0  0  0  0  0  0  0999 V3000
M  V30 BEGIN CTAB
M  V30 COUNTS 51 55 0 0 0
M  V30 BEGIN ATOM
M  V30 1 C 3.017486 -1.488240 3.914352 0
M  V30 2 C 1.543030 -1.465213 3.722296 0
M  V30 3 C 0.678990 -2.068484 4.601342 0
M  V30 4 C -0.707317 -2.061368 4.455767 0
M  V30 5 C -1.151789 -1.396936 3.352184 0
M  V30 6 C -0.329754 -0.779442 2.445512 0
M  V30 7 C -0.648489 -0.036551 1.234581 0
M  V30 8 N -0.393480 1.252276 0.872068 0
M  V30 9 N -0.850848 1.509702 -0.332448 0
M  V30 10 C -0.541616 2.810977 -0.641546 0
M  V30 11 S -1.868168 3.341380 -1.516710 0
M  V30 12 N -0.240622 4.096883 -0.949419 0
M  V30 13 C 1.006402 3.941355 -0.225213 0
M  V30 14 C 1.143076 4.214868 1.150974 0
M  V30 15 C 2.307475 4.091070 1.904809 0
M  V30 16 C 3.415904 3.658758 1.220811 0
M  V30 17 C 3.438738 3.352249 -0.124279 0
M  V30 18 C 4.584112 2.900495 -0.847339 0
M  V30 19 N 5.524265 2.532440 -1.419631 0
M  V30 20 C 2.218358 3.513232 -0.776792 0
M  V30 21 C -1.443788 0.464053 -0.895754 0
M  V30 22 C -1.298543 -0.470700 0.102687 0
M  V30 23 C -1.850375 -1.825527 -0.116488 0
M  V30 24 C -2.985583 -2.289992 0.508082 0
M  V30 25 C -3.396088 -3.570719 0.245122 0
M  V30 26 C -2.734830 -4.422618 -0.612470 0
M  V30 27 N -2.866488 -5.701146 -1.073135 0
M  V30 28 C -1.830360 -5.939263 -1.931093 0
M  V30 29 C -1.456273 -7.139560 -2.721327 0
M  V30 30 N -1.076159 -4.808834 -1.988983 0
M  V30 31 N -1.634680 -3.909736 -1.191193 0
M  V30 32 C -1.152545 -2.665567 -0.996106 0
M  V30 33 N 1.020191 -0.822848 2.645775 0
M  V30 34 H 3.548945 -1.738371 2.972378 0
M  V30 35 H 3.247875 -2.286855 4.644008 0
M  V30 36 H 3.360498 -0.482444 4.272997 0
M  V30 37 H 1.096932 -2.577935 5.457139 0
M  V30 38 H -1.405202 -2.522386 5.122170 0
M  V30 39 H -2.191245 -1.305957 3.114031 0
M  V30 40 H 0.084481 5.020342 -1.112403 0
M  V30 41 H 0.190427 4.551069 1.591855 0
M  V30 42 H 2.280306 4.330051 2.941860 0
M  V30 43 H 4.338653 3.547478 1.762359 0
M  V30 44 H 2.205765 3.279499 -1.833535 0
M  V30 45 H -1.858890 0.530497 -1.863856 0
M  V30 46 H -3.520035 -1.653061 1.173069 0
M  V30 47 H -4.291916 -4.005250 0.709223 0
M  V30 48 H -1.603217 -6.919939 -3.787973 0
M  V30 49 H -2.036226 -8.042777 -2.424283 0
M  V30 50 H -0.373295 -7.393967 -2.557142 0
M  V30 51 H -0.266382 -2.273698 -1.473674 0
M  V30 END ATOM
M  V30 BEGIN BOND
M  V30 1 1 1 2
M  V30 2 2 2 3
M  V30 3 1 3 4
M  V30 4 2 4 5
M  V30 5 1 5 6
M  V30 6 1 6 7
M  V30 7 2 7 8
M  V30 8 1 8 9
M  V30 9 1 9 10
M  V30 10 2 10 11
M  V30 11 1 10 12
M  V30 12 1 12 13
M  V30 13 2 13 14
M  V30 14 1 14 15
M  V30 15 2 15 16
M  V30 16 1 16 17
M  V30 17 1 17 18
M  V30 18 3 18 19
M  V30 19 2 17 20
M  V30 20 1 9 21
M  V30 21 2 21 22
M  V30 22 1 22 23
M  V30 23 1 23 24
M  V30 24 2 24 25
M  V30 25 1 25 26
M  V30 26 2 26 27
M  V30 27 1 27 28
M  V30 28 1 28 29
M  V30 29 2 28 30
M  V30 30 1 30 31
M  V30 31 1 31 32
M  V30 32 2 6 33
M  V30 33 1 33 2
M  V30 34 1 22 7
M  V30 35 2 32 23
M  V30 36 1 20 13
M  V30 37 1 31 26
M  V30 38 1 1 34
M  V30 39 1 1 35
M  V30 40 1 1 36
M  V30 41 1 3 37
M  V30 42 1 4 38
M  V30 43 1 5 39
M  V30 44 1 12 40
M  V30 45 1 14 41
M  V30 46 1 15 42
M  V30 47 1 16 43
M  V30 48 1 20 44
M  V30 49 1 21 45
M  V30 50 1 24 46
M  V30 51 1 25 47
M  V30 52 1 29 48
M  V30 53 1 29 49
M  V30 54 1 29 50
M  V30 55 1 32 51
M  V30 END BOND
M  V30 END CTAB
M  END
>  <Dataset>  (711) 
ChEMBL_Kinases

>  <Ligand_Instance>  (711) 
nan

>  <PDB_ID>  (711) 
nan

>  <Standardized_SMILES>  (711) 
Cc1cccc(-c2nn(C(=S)Nc3cccc(C#N)c3)cc2-c2ccc3nc(C)nn3c2)n1

>  <Name>  (711) 
nan

>  <Pocket>  (711) 
nan

>  <ATP_Site>  (711) 
nan

>  <Peripheral>  (711) 
nan

>  <Num_H_Atoms_ProtBoundConf>  (711) 
nan

>  <Num_Resolved_Atoms>  (711) 
nan

>  <Num_Not_Resolved_Atoms>  (711) 
nan

$$$$
CHEMBL1835713
     RDKit          3D

  0  0  0  0  0  0  0  0  0  0999 V3000
M  V30 BEGIN CTAB
M  V30 COUNTS 54 58 0 0 0
M  V30 BEGIN ATOM
M  V30 1 C 3.638105 -5.152222 3.031289 0
M  V30 2 C 3.009544 -3.805847 3.094078 0
M  V30 3 C 2.668733 -3.312375 4.349923 0
M  V30 4 C 2.094701 -2.057190 4.324088 0
M  V30 5 C 1.880906 -1.356279 3.137914 0
M  V30 6 C 2.250487 -1.918936 1.917112 0
M  V30 7 C 1.964320 -1.044061 0.793948 0
M  V30 8 N 2.590728 0.129764 0.601675 0
M  V30 9 N 2.148089 0.717125 -0.492816 0
M  V30 10 C 2.273940 1.883015 -1.336676 0
M  V30 11 S 3.437081 1.575198 -2.423513 0
M  V30 12 N 1.358752 2.832999 -0.907296 0
M  V30 13 C 0.441887 3.809675 -0.492764 0
M  V30 14 C 0.797243 4.928311 0.222339 0
M  V30 15 C -0.170744 5.822302 0.639867 0
M  V30 16 C -1.444114 5.458378 0.267333 0
M  V30 17 C -1.852394 4.356140 -0.443710 0
M  V30 18 C -3.252700 4.131306 -0.738558 0
M  V30 19 N -3.576179 2.956668 -1.456526 0
M  V30 20 O -4.340163 4.693944 -0.540440 0
M  V30 21 C -0.870535 3.495085 -0.841822 0
M  V30 22 C 1.196367 -0.123731 -1.017922 0
M  V30 23 C 1.052983 -1.266952 -0.213459 0
M  V30 24 C 0.132316 -2.383656 -0.440679 0
M  V30 25 C 0.443962 -3.319488 -1.386455 0
M  V30 26 C -0.448840 -4.346529 -1.599523 0
M  V30 27 C -1.621848 -4.428164 -0.879943 0
M  V30 28 N -2.671323 -5.296268 -0.872742 0
M  V30 29 C -3.579855 -4.902409 0.039305 0
M  V30 30 C -4.886542 -5.495009 0.431828 0
M  V30 31 N -3.117197 -3.772855 0.627426 0
M  V30 32 N -1.937067 -3.509692 0.054679 0
M  V30 33 C -1.056061 -2.515839 0.249669 0
M  V30 34 N 2.816059 -3.152063 1.923038 0
M  V30 35 H 4.728967 -5.051296 3.311234 0
M  V30 36 H 3.162513 -5.758956 3.836610 0
M  V30 37 H 3.525241 -5.631564 2.061718 0
M  V30 38 H 2.845967 -3.877677 5.248037 0
M  V30 39 H 1.810380 -1.626223 5.274234 0
M  V30 40 H 1.418984 -0.373416 3.265769 0
M  V30 41 H 1.720800 3.440602 -1.711538 0
M  V30 42 H 1.839233 5.108991 0.458950 0
M  V30 43 H 0.038666 6.717048 1.201936 0
M  V30 44 H -2.278422 6.106293 0.557726 0
M  V30 45 H -3.839330 2.060345 -1.903364 0
M  V30 46 H -3.960998 2.158151 -0.878198 0
M  V30 47 H -1.157580 2.615455 -1.406535 0
M  V30 48 H 0.542706 -0.087026 -1.914751 0
M  V30 49 H 1.365851 -3.229512 -1.931889 0
M  V30 50 H -0.268912 -5.109800 -2.321362 0
M  V30 51 H -4.935446 -5.539677 1.536351 0
M  V30 52 H -5.045613 -6.505533 -0.022131 0
M  V30 53 H -5.691281 -4.795090 0.127626 0
M  V30 54 H -1.301411 -1.774911 0.997611 0
M  V30 END ATOM
M  V30 BEGIN BOND
M  V30 1 1 1 2
M  V30 2 2 2 3
M  V30 3 1 3 4
M  V30 4 2 4 5
M  V30 5 1 5 6
M  V30 6 1 6 7
M  V30 7 2 7 8
M  V30 8 1 8 9
M  V30 9 1 9 10
M  V30 10 2 10 11
M  V30 11 1 10 12
M  V30 12 1 12 13
M  V30 13 2 13 14
M  V30 14 1 14 15
M  V30 15 2 15 16
M  V30 16 1 16 17
M  V30 17 1 17 18
M  V30 18 1 18 19
M  V30 19 2 18 20
M  V30 20 2 17 21
M  V30 21 1 9 22
M  V30 22 2 22 23
M  V30 23 1 23 24
M  V30 24 1 24 25
M  V30 25 2 25 26
M  V30 26 1 26 27
M  V30 27 2 27 28
M  V30 28 1 28 29
M  V30 29 1 29 30
M  V30 30 2 29 31
M  V30 31 1 31 32
M  V30 32 1 32 33
M  V30 33 2 6 34
M  V30 34 1 34 2
M  V30 35 1 23 7
M  V30 36 2 33 24
M  V30 37 1 21 13
M  V30 38 1 32 27
M  V30 39 1 1 35
M  V30 40 1 1 36
M  V30 41 1 1 37
M  V30 42 1 3 38
M  V30 43 1 4 39
M  V30 44 1 5 40
M  V30 45 1 12 41
M  V30 46 1 14 42
M  V30 47 1 15 43
M  V30 48 1 16 44
M  V30 49 1 19 45
M  V30 50 1 19 46
M  V30 51 1 21 47
M  V30 52 1 22 48
M  V30 53 1 25 49
M  V30 54 1 26 50
M  V30 55 1 30 51
M  V30 56 1 30 52
M  V30 57 1 30 53
M  V30 58 1 33 54
M  V30 END BOND
M  V30 END CTAB
M  END
>  <Dataset>  (712) 
ChEMBL_Kinases

>  <Ligand_Instance>  (712) 
nan

>  <PDB_ID>  (712) 
nan

>  <Standardized_SMILES>  (712) 
Cc1cccc(-c2nn(C(=S)Nc3cccc(C(N)=O)c3)cc2-c2ccc3nc(C)nn3c2)n1

>  <Name>  (712) 
nan

>  <Pocket>  (712) 
nan

>  <ATP_Site>  (712) 
nan

>  <Peripheral>  (712) 
nan

>  <Num_H_Atoms_ProtBoundConf>  (712) 
nan

>  <Num_Resolved_Atoms>  (712) 
nan

>  <Num_Not_Resolved_Atoms>  (712) 
nan

$$$$
CHEMBL183999
     RDKit          3D

  0  0  0  0  0  0  0  0  0  0999 V3000
M  V30 BEGIN CTAB
M  V30 COUNTS 69 73 0 0 0
M  V30 BEGIN ATOM
M  V30 1 C 0.758518 -2.689056 4.581999 0
M  V30 2 C 1.447067 -2.300164 3.313463 0
M  V30 3 C 2.589272 -1.532247 3.348532 0
M  V30 4 C 3.175046 -1.212052 2.115796 0
M  V30 5 C 2.660643 -1.629726 0.889109 0
M  V30 6 N 3.450063 -1.154387 -0.189639 0
M  V30 7 C 4.601918 -1.598123 -0.848116 0
M  V30 8 O 5.222182 -2.645820 -0.543708 0
M  V30 9 C 5.126116 -0.803137 -1.954756 0
M  V30 10 C 6.314673 -1.216775 -2.516701 0
M  V30 11 C 6.877113 -0.513464 -3.583443 0
M  V30 12 F 8.049746 -0.947337 -4.117351 0
M  V30 13 C 6.213869 0.601129 -4.056837 0
M  V30 14 C 5.030949 1.042461 -3.524779 0
M  V30 15 N 4.317197 2.197338 -3.992065 0
M  V30 16 C 2.958184 2.435568 -3.503488 0
M  V30 17 C 2.253436 3.303591 -4.519888 0
M  V30 18 O 2.629602 2.848809 -5.786847 0
M  V30 19 C 3.894886 3.369140 -6.079467 0
M  V30 20 C 4.843612 3.165079 -4.916104 0
M  V30 21 C 4.509679 0.317592 -2.470025 0
M  V30 22 C 1.527016 -2.389968 0.873728 0
M  V30 23 C 0.964527 -2.695412 2.085890 0
M  V30 24 N -0.250648 -3.481107 2.120753 0
M  V30 25 C -1.237548 -2.427658 2.095875 0
M  V30 26 O -0.582707 -1.327373 2.050516 0
M  V30 27 C -2.693295 -2.604938 2.119730 0
M  V30 28 C -3.412893 -3.780600 2.152190 0
M  V30 29 C -4.788245 -3.692401 2.180412 0
M  V30 30 C -5.499086 -2.484035 2.178199 0
M  V30 31 O -6.825507 -2.754924 2.210831 0
M  V30 32 C -7.954388 -1.980746 2.231002 0
M  V30 33 C -8.055471 -1.092254 3.412587 0
M  V30 34 C -8.618256 -1.706272 4.543066 0
M  V30 35 C -8.840421 -1.089840 5.779400 0
M  V30 36 N -8.466289 0.207568 5.846819 0
M  V30 37 C -7.931434 0.833378 4.812580 0
M  V30 38 C -7.711372 0.233174 3.595600 0
M  V30 39 C -4.714004 -1.353671 2.144417 0
M  V30 40 C -3.335822 -1.376950 2.115381 0
M  V30 41 H 0.553732 -1.844541 5.242611 0
M  V30 42 H 1.479227 -3.350935 5.143539 0
M  V30 43 H -0.123651 -3.309156 4.399086 0
M  V30 44 H 2.992716 -1.206905 4.294692 0
M  V30 45 H 4.078138 -0.597611 2.249752 0
M  V30 46 H 2.889712 -0.298601 -0.383290 0
M  V30 47 H 6.877454 -2.095826 -2.171122 0
M  V30 48 H 6.669191 1.120335 -4.875790 0
M  V30 49 H 2.956641 2.925358 -2.499903 0
M  V30 50 H 2.410862 1.454899 -3.449695 0
M  V30 51 H 2.509188 4.356582 -4.337978 0
M  V30 52 H 1.154681 3.119810 -4.400456 0
M  V30 53 H 3.739308 4.456254 -6.205768 0
M  V30 54 H 4.234439 2.919760 -7.015769 0
M  V30 55 H 4.995555 4.138820 -4.375705 0
M  V30 56 H 5.826225 2.888658 -5.338578 0
M  V30 57 H 3.589925 0.637855 -2.031632 0
M  V30 58 H 1.166017 -2.685971 -0.091773 0
M  V30 59 H -0.633264 -4.475558 2.154260 0
M  V30 60 H -2.799755 -4.667029 2.152217 0
M  V30 61 H -5.197104 -4.712781 2.204263 0
M  V30 62 H -8.053623 -1.303927 1.328047 0
M  V30 63 H -8.870647 -2.643315 2.212596 0
M  V30 64 H -8.933488 -2.760406 4.523904 0
M  V30 65 H -9.278488 -1.635909 6.597467 0
M  V30 66 H -7.626340 1.872145 4.847729 0
M  V30 67 H -7.288527 0.677265 2.706253 0
M  V30 68 H -5.321366 -0.465491 2.140802 0
M  V30 69 H -2.885850 -0.393946 2.089909 0
M  V30 END ATOM
M  V30 BEGIN BOND
M  V30 1 1 1 2
M  V30 2 2 2 3
M  V30 3 1 3 4
M  V30 4 2 4 5
M  V30 5 1 5 6
M  V30 6 1 6 7
M  V30 7 2 7 8
M  V30 8 1 7 9
M  V30 9 2 9 10
M  V30 10 1 10 11
M  V30 11 1 11 12
M  V30 12 2 11 13
M  V30 13 1 13 14
M  V30 14 1 14 15
M  V30 15 1 15 16
M  V30 16 1 16 17
M  V30 17 1 17 18
M  V30 18 1 18 19
M  V30 19 1 19 20
M  V30 20 2 14 21
M  V30 21 1 5 22
M  V30 22 2 22 23
M  V30 23 1 23 24
M  V30 24 1 24 25
M  V30 25 2 25 26
M  V30 26 1 25 27
M  V30 27 2 27 28
M  V30 28 1 28 29
M  V30 29 2 29 30
M  V30 30 1 30 31
M  V30 31 1 31 32
M  V30 32 1 32 33
M  V30 33 2 33 34
M  V30 34 1 34 35
M  V30 35 2 35 36
M  V30 36 1 36 37
M  V30 37 2 37 38
M  V30 38 1 30 39
M  V30 39 2 39 40
M  V30 40 1 23 2
M  V30 41 1 40 27
M  V30 42 1 21 9
M  V30 43 1 38 33
M  V30 44 1 20 15
M  V30 45 1 1 41
M  V30 46 1 1 42
M  V30 47 1 1 43
M  V30 48 1 3 44
M  V30 49 1 4 45
M  V30 50 1 6 46
M  V30 51 1 10 47
M  V30 52 1 13 48
M  V30 53 1 16 49
M  V30 54 1 16 50
M  V30 55 1 17 51
M  V30 56 1 17 52
M  V30 57 1 19 53
M  V30 58 1 19 54
M  V30 59 1 20 55
M  V30 60 1 20 56
M  V30 61 1 21 57
M  V30 62 1 22 58
M  V30 63 1 24 59
M  V30 64 1 28 60
M  V30 65 1 29 61
M  V30 66 1 32 62
M  V30 67 1 32 63
M  V30 68 1 34 64
M  V30 69 1 35 65
M  V30 70 1 37 66
M  V30 71 1 38 67
M  V30 72 1 39 68
M  V30 73 1 40 69
M  V30 END BOND
M  V30 END CTAB
M  END
>  <Dataset>  (713) 
ChEMBL_Kinases

>  <Ligand_Instance>  (713) 
nan

>  <PDB_ID>  (713) 
nan

>  <Standardized_SMILES>  (713) 
Cc1ccc(NC(=O)c2cc(F)cc(N3CCOCC3)c2)cc1NC(=O)c1ccc(OCc2ccncc2)cc1

>  <Name>  (713) 
nan

>  <Pocket>  (713) 
nan

>  <ATP_Site>  (713) 
nan

>  <Peripheral>  (713) 
nan

>  <Num_H_Atoms_ProtBoundConf>  (713) 
nan

>  <Num_Resolved_Atoms>  (713) 
nan

>  <Num_Not_Resolved_Atoms>  (713) 
nan

$$$$
CHEMBL1836358
     RDKit          3D

  0  0  0  0  0  0  0  0  0  0999 V3000
M  V30 BEGIN CTAB
M  V30 COUNTS 21 23 0 0 0
M  V30 BEGIN ATOM
M  V30 1 N 0.151874 -1.750111 4.127923 0
M  V30 2 C 1.005417 -0.968306 3.302452 0
M  V30 3 N 2.245819 -0.603741 3.716259 0
M  V30 4 C 2.931383 0.133334 2.825032 0
M  V30 5 N 2.495101 0.512178 1.619165 0
M  V30 6 C 1.276041 0.178397 1.161227 0
M  V30 7 C 0.562181 -0.579065 2.068254 0
M  V30 8 S -0.980111 -0.917738 1.314081 0
M  V30 9 C -0.572576 0.025785 -0.272459 0
M  V30 10 C -1.381387 0.186666 -1.375759 0
M  V30 11 C -0.845210 0.923039 -2.407169 0
M  V30 12 C 0.429233 1.412593 -2.222464 0
M  V30 13 C 1.203402 1.227627 -1.101646 0
M  V30 14 C 0.718397 0.499598 -0.039166 0
M  V30 15 H -0.100608 -1.268640 5.035008 0
M  V30 16 H -0.323440 -2.692695 4.115854 0
M  V30 17 H 3.949214 0.470021 3.086100 0
M  V30 18 H -2.353642 -0.249455 -1.385667 0
M  V30 19 H -1.432039 1.074986 -3.281308 0
M  V30 20 H 0.877484 2.006947 -3.040276 0
M  V30 21 H 2.191307 1.663743 -1.076886 0
M  V30 END ATOM
M  V30 BEGIN BOND
M  V30 1 1 1 2
M  V30 2 2 2 3
M  V30 3 1 3 4
M  V30 4 2 4 5
M  V30 5 1 5 6
M  V30 6 2 6 7
M  V30 7 1 7 8
M  V30 8 1 8 9
M  V30 9 2 9 10
M  V30 10 1 10 11
M  V30 11 2 11 12
M  V30 12 1 12 13
M  V30 13 2 13 14
M  V30 14 1 7 2
M  V30 15 1 14 9
M  V30 16 1 14 6
M  V30 17 1 1 15
M  V30 18 1 1 16
M  V30 19 1 4 17
M  V30 20 1 10 18
M  V30 21 1 11 19
M  V30 22 1 12 20
M  V30 23 1 13 21
M  V30 END BOND
M  V30 END CTAB
M  END
>  <Dataset>  (714) 
ChEMBL_Kinases

>  <Ligand_Instance>  (714) 
nan

>  <PDB_ID>  (714) 
nan

>  <Standardized_SMILES>  (714) 
Nc1ncnc2c1sc1ccccc12

>  <Name>  (714) 
nan

>  <Pocket>  (714) 
nan

>  <ATP_Site>  (714) 
nan

>  <Peripheral>  (714) 
nan

>  <Num_H_Atoms_ProtBoundConf>  (714) 
nan

>  <Num_Resolved_Atoms>  (714) 
nan

>  <Num_Not_Resolved_Atoms>  (714) 
nan

$$$$
CHEMBL1836673
     RDKit          3D

  0  0  0  0  0  0  0  0  0  0999 V3000
M  V30 BEGIN CTAB
M  V30 COUNTS 45 48 0 0 0
M  V30 BEGIN ATOM
M  V30 1 C 3.987946 -4.197910 3.996279 0
M  V30 2 S 2.770384 -4.483431 2.682678 0
M  V30 3 C 2.107137 -2.936115 2.082416 0
M  V30 4 N 2.750045 -2.349087 1.064820 0
M  V30 5 C 2.292442 -1.164676 0.561633 0
M  V30 6 N 3.018070 -0.597139 -0.500109 0
M  V30 7 C 2.966176 0.439767 -1.457330 0
M  V30 8 C 1.837035 0.576120 -2.268080 0
M  V30 9 C 1.613423 1.540303 -3.238613 0
M  V30 10 C 2.652038 2.432681 -3.372201 0
M  V30 11 C 3.788346 2.364744 -2.615551 0
M  V30 12 Cl 5.035570 3.568396 -2.890467 0
M  V30 13 C 3.955648 1.380076 -1.662083 0
M  V30 14 C 1.168484 -0.651206 1.163225 0
M  V30 15 C 0.479011 0.496166 0.911771 0
M  V30 16 N -0.566581 0.627895 1.742653 0
M  V30 17 N -0.556436 -0.442274 2.541687 0
M  V30 18 C -1.495449 -0.763577 3.618518 0
M  V30 19 C -2.624370 -1.575796 2.999294 0
M  V30 20 C -3.317918 -0.805923 1.941334 0
M  V30 21 C -4.401570 0.014162 2.157214 0
M  V30 22 C -4.969501 0.688016 1.079727 0
M  V30 23 C -4.475899 0.555499 -0.194496 0
M  V30 24 C -3.383735 -0.263059 -0.450940 0
M  V30 25 C -2.844372 -0.918184 0.645543 0
M  V30 26 C 0.484279 -1.227839 2.209518 0
M  V30 27 N 1.019654 -2.399959 2.632903 0
M  V30 28 H 4.666318 -3.387709 3.649427 0
M  V30 29 H 4.530006 -5.116065 4.225325 0
M  V30 30 H 3.424999 -3.810825 4.885253 0
M  V30 31 H 3.942636 -1.038769 -0.745639 0
M  V30 32 H 1.050611 -0.161782 -2.112070 0
M  V30 33 H 0.688494 1.517546 -3.786625 0
M  V30 34 H 2.528424 3.215347 -4.121320 0
M  V30 35 H 4.850727 1.313413 -1.056680 0
M  V30 36 H 0.686309 1.246434 0.175140 0
M  V30 37 H -0.958904 -1.361397 4.381410 0
M  V30 38 H -1.899905 0.147166 4.093997 0
M  V30 39 H -3.338823 -1.921330 3.769413 0
M  V30 40 H -2.165280 -2.475611 2.549171 0
M  V30 41 H -4.741758 0.080419 3.164497 0
M  V30 42 H -5.817236 1.323002 1.278497 0
M  V30 43 H -4.947589 1.099545 -1.017019 0
M  V30 44 H -2.967826 -0.394279 -1.431722 0
M  V30 45 H -1.992228 -1.555759 0.437744 0
M  V30 END ATOM
M  V30 BEGIN BOND
M  V30 1 1 1 2
M  V30 2 1 2 3
M  V30 3 2 3 4
M  V30 4 1 4 5
M  V30 5 1 5 6
M  V30 6 1 6 7
M  V30 7 2 7 8
M  V30 8 1 8 9
M  V30 9 2 9 10
M  V30 10 1 10 11
M  V30 11 1 11 12
M  V30 12 2 11 13
M  V30 13 2 5 14
M  V30 14 1 14 15
M  V30 15 2 15 16
M  V30 16 1 16 17
M  V30 17 1 17 18
M  V30 18 1 18 19
M  V30 19 1 19 20
M  V30 20 2 20 21
M  V30 21 1 21 22
M  V30 22 2 22 23
M  V30 23 1 23 24
M  V30 24 2 24 25
M  V30 25 1 17 26
M  V30 26 2 26 27
M  V30 27 1 27 3
M  V30 28 1 13 7
M  V30 29 1 26 14
M  V30 30 1 25 20
M  V30 31 1 1 28
M  V30 32 1 1 29
M  V30 33 1 1 30
M  V30 34 1 6 31
M  V30 35 1 8 32
M  V30 36 1 9 33
M  V30 37 1 10 34
M  V30 38 1 13 35
M  V30 39 1 15 36
M  V30 40 1 18 37
M  V30 41 1 18 38
M  V30 42 1 19 39
M  V30 43 1 19 40
M  V30 44 1 21 41
M  V30 45 1 22 42
M  V30 46 1 23 43
M  V30 47 1 24 44
M  V30 48 1 25 45
M  V30 END BOND
M  V30 END CTAB
M  END
>  <Dataset>  (715) 
ChEMBL_Kinases

>  <Ligand_Instance>  (715) 
nan

>  <PDB_ID>  (715) 
nan

>  <Standardized_SMILES>  (715) 
CSc1nc(Nc2cccc(Cl)c2)c2cnn(CCc3ccccc3)c2n1

>  <Name>  (715) 
nan

>  <Pocket>  (715) 
nan

>  <ATP_Site>  (715) 
nan

>  <Peripheral>  (715) 
nan

>  <Num_H_Atoms_ProtBoundConf>  (715) 
nan

>  <Num_Resolved_Atoms>  (715) 
nan

>  <Num_Not_Resolved_Atoms>  (715) 
nan

$$$$
CHEMBL1836679
     RDKit          3D

  0  0  0  0  0  0  0  0  0  0999 V3000
M  V30 BEGIN CTAB
M  V30 COUNTS 48 51 0 0 0
M  V30 BEGIN ATOM
M  V30 1 C 1.986139 -5.141290 0.459361 0
M  V30 2 S 3.202404 -3.810332 0.429445 0
M  V30 3 C 2.455122 -2.278767 0.939030 0
M  V30 4 N 3.337882 -1.257960 0.935771 0
M  V30 5 C 3.036584 0.004876 1.279671 0
M  V30 6 N 3.938215 1.104773 1.281231 0
M  V30 7 C 3.982692 1.915775 0.112776 0
M  V30 8 C 4.865523 2.982075 -0.026405 0
M  V30 9 C 4.871665 3.751980 -1.183685 0
M  V30 10 C 3.997634 3.482781 -2.238705 0
M  V30 11 C 3.110403 2.432859 -2.131754 0
M  V30 12 Cl 1.984973 2.037573 -3.413913 0
M  V30 13 C 3.148285 1.704536 -0.963939 0
M  V30 14 C 1.738442 0.327280 1.672100 0
M  V30 15 C 1.028698 1.434940 2.083732 0
M  V30 16 N -0.211473 1.021986 2.304946 0
M  V30 17 N -0.352045 -0.290315 2.061440 0
M  V30 18 C -1.653015 -0.888344 2.256761 0
M  V30 19 C -2.493759 -0.833536 0.996413 0
M  V30 20 C -1.879951 -1.559202 -0.150187 0
M  V30 21 C -3.813405 -1.429703 1.310301 0
M  V30 22 C -4.891754 -0.560994 1.169421 0
M  V30 23 C -6.192330 -1.004113 1.441786 0
M  V30 24 C -6.391835 -2.306058 1.849159 0
M  V30 25 C -5.315871 -3.188473 1.993988 0
M  V30 26 C -4.034499 -2.723047 1.717203 0
M  V30 27 C 0.848660 -0.734697 1.668257 0
M  V30 28 N 1.174251 -1.992777 1.319470 0
M  V30 29 H 1.473174 -5.221126 1.437693 0
M  V30 30 H 2.462871 -6.129961 0.293068 0
M  V30 31 H 1.207767 -4.964285 -0.308120 0
M  V30 32 H 4.584747 1.387323 2.068087 0
M  V30 33 H 5.550281 3.204319 0.782596 0
M  V30 34 H 5.557778 4.595962 -1.315452 0
M  V30 35 H 4.004723 4.083884 -3.137986 0
M  V30 36 H 2.446711 0.883005 -0.891826 0
M  V30 37 H 1.478781 2.410662 2.178275 0
M  V30 38 H -2.192986 -0.447409 3.104641 0
M  V30 39 H -1.493084 -1.982672 2.466262 0
M  V30 40 H -2.646414 0.222166 0.665475 0
M  V30 41 H -1.592199 -2.610491 0.097787 0
M  V30 42 H -2.640070 -1.674946 -0.968815 0
M  V30 43 H -0.955793 -1.069180 -0.529372 0
M  V30 44 H -4.866323 0.489432 0.855835 0
M  V30 45 H -7.065259 -0.348800 1.342444 0
M  V30 46 H -7.421020 -2.625074 2.055752 0
M  V30 47 H -5.474809 -4.207373 2.313596 0
M  V30 48 H -3.152486 -3.364476 1.811109 0
M  V30 END ATOM
M  V30 BEGIN BOND
M  V30 1 1 1 2
M  V30 2 1 2 3
M  V30 3 2 3 4
M  V30 4 1 4 5
M  V30 5 1 5 6
M  V30 6 1 6 7
M  V30 7 2 7 8
M  V30 8 1 8 9
M  V30 9 2 9 10
M  V30 10 1 10 11
M  V30 11 1 11 12
M  V30 12 2 11 13
M  V30 13 2 5 14
M  V30 14 1 14 15
M  V30 15 2 15 16
M  V30 16 1 16 17
M  V30 17 1 17 18
M  V30 18 1 18 19
M  V30 19 1 19 20
M  V30 20 1 19 21
M  V30 21 2 21 22
M  V30 22 1 22 23
M  V30 23 2 23 24
M  V30 24 1 24 25
M  V30 25 2 25 26
M  V30 26 1 17 27
M  V30 27 2 27 28
M  V30 28 1 28 3
M  V30 29 1 13 7
M  V30 30 1 27 14
M  V30 31 1 26 21
M  V30 32 1 1 29
M  V30 33 1 1 30
M  V30 34 1 1 31
M  V30 35 1 6 32
M  V30 36 1 8 33
M  V30 37 1 9 34
M  V30 38 1 10 35
M  V30 39 1 13 36
M  V30 40 1 15 37
M  V30 41 1 18 38
M  V30 42 1 18 39
M  V30 43 1 19 40
M  V30 44 1 20 41
M  V30 45 1 20 42
M  V30 46 1 20 43
M  V30 47 1 22 44
M  V30 48 1 23 45
M  V30 49 1 24 46
M  V30 50 1 25 47
M  V30 51 1 26 48
M  V30 END BOND
M  V30 END CTAB
M  END
>  <Dataset>  (716) 
ChEMBL_Kinases

>  <Ligand_Instance>  (716) 
nan

>  <PDB_ID>  (716) 
nan

>  <Standardized_SMILES>  (716) 
CSc1nc(Nc2cccc(Cl)c2)c2cnn(CC(C)c3ccccc3)c2n1

>  <Name>  (716) 
nan

>  <Pocket>  (716) 
nan

>  <ATP_Site>  (716) 
nan

>  <Peripheral>  (716) 
nan

>  <Num_H_Atoms_ProtBoundConf>  (716) 
nan

>  <Num_Resolved_Atoms>  (716) 
nan

>  <Num_Not_Resolved_Atoms>  (716) 
nan

$$$$
CHEMBL1836714
     RDKit          3D

  0  0  0  0  0  0  0  0  0  0999 V3000
M  V30 BEGIN CTAB
M  V30 COUNTS 30 32 0 0 0
M  V30 BEGIN ATOM
M  V30 1 O 2.891357 -2.651402 2.892095 0
M  V30 2 C 2.379869 -3.425212 2.041607 0
M  V30 3 O 1.001813 -3.665586 2.102944 0
M  V30 4 C 3.174805 -4.096247 0.973155 0
M  V30 5 S 3.228501 -3.035960 -0.519616 0
M  V30 6 C 1.571838 -2.917073 -1.195178 0
M  V30 7 N 0.999840 -3.724952 -2.101548 0
M  V30 8 C -0.268041 -3.412586 -2.443301 0
M  V30 9 N -0.989176 -2.406074 -1.980175 0
M  V30 10 C -0.499066 -1.547039 -1.071098 0
M  V30 11 C -1.068520 -0.460352 -0.473662 0
M  V30 12 C -0.381296 0.264955 0.421342 0
M  V30 13 C -0.694739 1.435538 1.204637 0
M  V30 14 C 0.262834 1.946120 2.054785 0
M  V30 15 C -0.018906 3.064897 2.811844 0
M  V30 16 C -1.275546 3.621346 2.669996 0
M  V30 17 Cl -1.568693 5.049495 3.666592 0
M  V30 18 C -2.244003 3.112311 1.816162 0
M  V30 19 C -1.947528 1.987910 1.061131 0
M  V30 20 S 1.194576 -0.545093 0.510981 0
M  V30 21 C 0.816600 -1.832816 -0.686258 0
M  V30 22 H 0.473629 -3.453146 2.962387 0
M  V30 23 H 2.686572 -5.040260 0.656907 0
M  V30 24 H 4.221279 -4.264753 1.266588 0
M  V30 25 H -0.762204 -4.059238 -3.187412 0
M  V30 26 H -2.078054 -0.129617 -0.680306 0
M  V30 27 H 1.254120 1.504741 2.165273 0
M  V30 28 H 0.737644 3.457085 3.474397 0
M  V30 29 H -3.205585 3.624258 1.775825 0
M  V30 30 H -2.691044 1.581610 0.392807 0
M  V30 END ATOM
M  V30 BEGIN BOND
M  V30 1 2 1 2
M  V30 2 1 2 3
M  V30 3 1 2 4
M  V30 4 1 4 5
M  V30 5 1 5 6
M  V30 6 2 6 7
M  V30 7 1 7 8
M  V30 8 2 8 9
M  V30 9 1 9 10
M  V30 10 1 10 11
M  V30 11 2 11 12
M  V30 12 1 12 13
M  V30 13 2 13 14
M  V30 14 1 14 15
M  V30 15 2 15 16
M  V30 16 1 16 17
M  V30 17 1 16 18
M  V30 18 2 18 19
M  V30 19 1 12 20
M  V30 20 1 20 21
M  V30 21 1 21 6
M  V30 22 2 21 10
M  V30 23 1 19 13
M  V30 24 1 3 22
M  V30 25 1 4 23
M  V30 26 1 4 24
M  V30 27 1 8 25
M  V30 28 1 11 26
M  V30 29 1 14 27
M  V30 30 1 15 28
M  V30 31 1 18 29
M  V30 32 1 19 30
M  V30 END BOND
M  V30 END CTAB
M  END
>  <Dataset>  (717) 
ChEMBL_Kinases

>  <Ligand_Instance>  (717) 
nan

>  <PDB_ID>  (717) 
nan

>  <Standardized_SMILES>  (717) 
O=C(O)CSc1ncnc2cc(-c3ccc(Cl)cc3)sc12

>  <Name>  (717) 
nan

>  <Pocket>  (717) 
nan

>  <ATP_Site>  (717) 
nan

>  <Peripheral>  (717) 
nan

>  <Num_H_Atoms_ProtBoundConf>  (717) 
nan

>  <Num_Resolved_Atoms>  (717) 
nan

>  <Num_Not_Resolved_Atoms>  (717) 
nan

$$$$
CHEMBL1836717
     RDKit          3D

  0  0  0  0  0  0  0  0  0  0999 V3000
M  V30 BEGIN CTAB
M  V30 COUNTS 31 33 0 0 0
M  V30 BEGIN ATOM
M  V30 1 N -0.905807 -5.738481 5.761175 0
M  V30 2 C -0.819310 -5.025595 4.830751 0
M  V30 3 C -0.737535 -4.163027 3.690514 0
M  V30 4 C -0.818390 -4.665777 2.396743 0
M  V30 5 C -0.722556 -3.717496 1.406593 0
M  V30 6 C -0.557245 -2.369173 1.663596 0
M  V30 7 C -0.462221 -1.445482 0.574866 0
M  V30 8 C -0.501644 -1.614397 -0.766965 0
M  V30 9 C -0.384602 -0.571904 -1.630362 0
M  V30 10 N -0.395283 -0.513934 -2.971591 0
M  V30 11 C -0.260401 0.653069 -3.606201 0
M  V30 12 N -0.102094 1.874271 -3.075644 0
M  V30 13 C -0.073436 1.963404 -1.751795 0
M  V30 14 S 0.104073 3.343830 -0.629836 0
M  V30 15 C 1.865093 3.651329 -0.272108 0
M  V30 16 C 2.430540 2.504862 0.459466 0
M  V30 17 O 2.988296 1.541611 -0.127254 0
M  V30 18 O 2.332354 2.508425 1.861283 0
M  V30 19 C -0.220055 0.696033 -1.016494 0
M  V30 20 S -0.239899 0.330621 0.786862 0
M  V30 21 C -0.481418 -1.904909 2.959313 0
M  V30 22 C -0.574825 -2.829609 3.975110 0
M  V30 23 H -0.944891 -5.718253 2.207061 0
M  V30 24 H -0.780190 -4.031787 0.366759 0
M  V30 25 H -0.630121 -2.625694 -1.124016 0
M  V30 26 H -0.280157 0.605903 -4.695861 0
M  V30 27 H 1.986941 4.553641 0.362471 0
M  V30 28 H 2.371653 3.730909 -1.245119 0
M  V30 29 H 2.839418 1.765790 2.335246 0
M  V30 30 H -0.355308 -0.856985 3.196723 0
M  V30 31 H -0.516345 -2.455508 4.994176 0
M  V30 END ATOM
M  V30 BEGIN BOND
M  V30 1 3 1 2
M  V30 2 1 2 3
M  V30 3 2 3 4
M  V30 4 1 4 5
M  V30 5 2 5 6
M  V30 6 1 6 7
M  V30 7 2 7 8
M  V30 8 1 8 9
M  V30 9 2 9 10
M  V30 10 1 10 11
M  V30 11 2 11 12
M  V30 12 1 12 13
M  V30 13 1 13 14
M  V30 14 1 14 15
M  V30 15 1 15 16
M  V30 16 2 16 17
M  V30 17 1 16 18
M  V30 18 2 13 19
M  V30 19 1 19 20
M  V30 20 1 6 21
M  V30 21 2 21 22
M  V30 22 1 22 3
M  V30 23 1 20 7
M  V30 24 1 19 9
M  V30 25 1 4 23
M  V30 26 1 5 24
M  V30 27 1 8 25
M  V30 28 1 11 26
M  V30 29 1 15 27
M  V30 30 1 15 28
M  V30 31 1 18 29
M  V30 32 1 21 30
M  V30 33 1 22 31
M  V30 END BOND
M  V30 END CTAB
M  END
>  <Dataset>  (718) 
ChEMBL_Kinases

>  <Ligand_Instance>  (718) 
nan

>  <PDB_ID>  (718) 
nan

>  <Standardized_SMILES>  (718) 
N#Cc1ccc(-c2cc3ncnc(SCC(=O)O)c3s2)cc1

>  <Name>  (718) 
nan

>  <Pocket>  (718) 
nan

>  <ATP_Site>  (718) 
nan

>  <Peripheral>  (718) 
nan

>  <Num_H_Atoms_ProtBoundConf>  (718) 
nan

>  <Num_Resolved_Atoms>  (718) 
nan

>  <Num_Not_Resolved_Atoms>  (718) 
nan

$$$$
CHEMBL1836724
     RDKit          3D

  0  0  0  0  0  0  0  0  0  0999 V3000
M  V30 BEGIN CTAB
M  V30 COUNTS 37 39 0 0 0
M  V30 BEGIN ATOM
M  V30 1 C 1.210047 -7.195254 1.116589 0
M  V30 2 C 1.255260 -5.709918 0.953633 0
M  V30 3 O 0.613500 -5.143169 0.036251 0
M  V30 4 N 2.003904 -4.840825 1.795447 0
M  V30 5 C 1.799198 -3.490708 1.328730 0
M  V30 6 C 0.707454 -2.869714 1.934180 0
M  V30 7 C 0.406010 -1.557601 1.564758 0
M  V30 8 C 1.214613 -0.995485 0.635526 0
M  V30 9 C 0.947363 0.394937 0.201433 0
M  V30 10 C 1.544256 1.268458 -0.702586 0
M  V30 11 C 0.974255 2.492753 -0.809013 0
M  V30 12 N 1.416295 3.479510 -1.632259 0
M  V30 13 C 0.810230 4.652352 -1.679023 0
M  V30 14 N -0.285660 5.017424 -0.946559 0
M  V30 15 C -0.734431 4.026950 -0.116457 0
M  V30 16 S -2.141750 4.433058 0.871404 0
M  V30 17 C -2.737209 3.114457 1.919591 0
M  V30 18 C -3.336246 1.972994 1.179664 0
M  V30 19 O -3.785660 0.965135 1.781161 0
M  V30 20 O -3.627151 1.542284 -0.110510 0
M  V30 21 C -0.129008 2.810562 -0.048810 0
M  V30 22 S -0.456985 1.373279 0.899318 0
M  V30 23 C 2.298214 -1.552559 0.006811 0
M  V30 24 C 2.591738 -2.869124 0.384910 0
M  V30 25 H 1.336920 -7.459107 2.182651 0
M  V30 26 H 0.158706 -7.492342 0.829618 0
M  V30 27 H 1.897582 -7.720194 0.455092 0
M  V30 28 H 2.559418 -5.276012 2.580709 0
M  V30 29 H 0.081681 -3.344615 2.672192 0
M  V30 30 H -0.429796 -1.048019 2.012505 0
M  V30 31 H 2.398479 0.857533 -1.213394 0
M  V30 32 H 1.193075 5.425073 -2.354833 0
M  V30 33 H -1.954447 2.714086 2.595777 0
M  V30 34 H -3.540036 3.533383 2.556532 0
M  V30 35 H -2.982467 1.005926 -0.678374 0
M  V30 36 H 2.907598 -1.051711 -0.730786 0
M  V30 37 H 3.412699 -3.420217 -0.028907 0
M  V30 END ATOM
M  V30 BEGIN BOND
M  V30 1 1 1 2
M  V30 2 2 2 3
M  V30 3 1 2 4
M  V30 4 1 4 5
M  V30 5 2 5 6
M  V30 6 1 6 7
M  V30 7 2 7 8
M  V30 8 1 8 9
M  V30 9 2 9 10
M  V30 10 1 10 11
M  V30 11 2 11 12
M  V30 12 1 12 13
M  V30 13 2 13 14
M  V30 14 1 14 15
M  V30 15 1 15 16
M  V30 16 1 16 17
M  V30 17 1 17 18
M  V30 18 2 18 19
M  V30 19 1 18 20
M  V30 20 2 15 21
M  V30 21 1 21 22
M  V30 22 1 8 23
M  V30 23 2 23 24
M  V30 24 1 24 5
M  V30 25 1 22 9
M  V30 26 1 21 11
M  V30 27 1 1 25
M  V30 28 1 1 26
M  V30 29 1 1 27
M  V30 30 1 4 28
M  V30 31 1 6 29
M  V30 32 1 7 30
M  V30 33 1 10 31
M  V30 34 1 13 32
M  V30 35 1 17 33
M  V30 36 1 17 34
M  V30 37 1 20 35
M  V30 38 1 23 36
M  V30 39 1 24 37
M  V30 END BOND
M  V30 END CTAB
M  END
>  <Dataset>  (719) 
ChEMBL_Kinases

>  <Ligand_Instance>  (719) 
nan

>  <PDB_ID>  (719) 
nan

>  <Standardized_SMILES>  (719) 
CC(=O)Nc1ccc(-c2cc3ncnc(SCC(=O)O)c3s2)cc1

>  <Name>  (719) 
nan

>  <Pocket>  (719) 
nan

>  <ATP_Site>  (719) 
nan

>  <Peripheral>  (719) 
nan

>  <Num_H_Atoms_ProtBoundConf>  (719) 
nan

>  <Num_Resolved_Atoms>  (719) 
nan

>  <Num_Not_Resolved_Atoms>  (719) 
nan

$$$$
CHEMBL183703
     RDKit          3D

  0  0  0  0  0  0  0  0  0  0999 V3000
M  V30 BEGIN CTAB
M  V30 COUNTS 54 57 0 0 0
M  V30 BEGIN ATOM
M  V30 1 N 2.885316 -4.641601 -1.252240 0
M  V30 2 C 2.201967 -3.707331 -1.239100 0
M  V30 3 C 1.342359 -2.539097 -1.204915 0
M  V30 4 C 1.846286 -1.436850 -0.542848 0
M  V30 5 C 3.199854 -1.433713 0.105170 0
M  V30 6 C 3.165196 -1.894756 1.515185 0
M  V30 7 C 3.017320 -0.767493 2.479165 0
M  V30 8 C 4.264250 0.103931 2.258995 0
M  V30 9 N 4.067141 0.721080 0.984829 0
M  V30 10 C 3.930524 -0.161448 -0.125272 0
M  V30 11 C 1.099569 -0.299380 -0.468160 0
M  V30 12 C -0.131784 -0.372147 -1.087571 0
M  V30 13 C -1.112531 0.731900 -1.139554 0
M  V30 14 C -0.973366 1.591150 -2.232894 0
M  V30 15 O 0.021731 1.394395 -3.179923 0
M  V30 16 C -1.851832 2.648332 -2.354195 0
M  V30 17 C -2.822105 2.801580 -1.389332 0
M  V30 18 C -2.949969 1.949139 -0.316714 0
M  V30 19 C -2.091770 0.879234 -0.157584 0
M  V30 20 O -2.062296 -0.078260 0.844515 0
M  V30 21 C -3.048058 0.035973 1.867413 0
M  V30 22 C -2.909878 -1.065367 2.897596 0
M  V30 23 C -3.056002 -2.458888 2.333116 0
M  V30 24 C -4.140105 -2.730889 3.327780 0
M  V30 25 C -4.173313 -1.269962 3.684586 0
M  V30 26 N -0.630310 -1.440832 -1.734274 0
M  V30 27 C 0.107211 -2.587307 -1.816639 0
M  V30 28 N -0.261989 -3.803980 -2.456723 0
M  V30 29 H 3.752223 -2.243513 -0.464590 0
M  V30 30 H 2.430757 -2.706496 1.650236 0
M  V30 31 H 4.158032 -2.375711 1.747654 0
M  V30 32 H 2.171637 -0.091231 2.196970 0
M  V30 33 H 2.951593 -1.067073 3.523191 0
M  V30 34 H 5.106465 -0.611205 2.212668 0
M  V30 35 H 4.365926 0.893505 3.009696 0
M  V30 36 H 4.902839 1.348057 0.795352 0
M  V30 37 H 3.387560 0.436951 -0.918965 0
M  V30 38 H 4.940799 -0.363831 -0.581363 0
M  V30 39 H 1.364532 0.609447 0.004757 0
M  V30 40 H -0.224629 1.570150 -4.152236 0
M  V30 41 H -1.768553 3.328324 -3.188652 0
M  V30 42 H -3.519062 3.623295 -1.467841 0
M  V30 43 H -3.697292 2.026213 0.469953 0
M  V30 44 H -4.067220 0.062362 1.446218 0
M  V30 45 H -2.873516 0.991105 2.389971 0
M  V30 46 H -1.999286 -1.000292 3.511518 0
M  V30 47 H -3.440621 -2.407096 1.277969 0
M  V30 48 H -2.152311 -3.101321 2.420815 0
M  V30 49 H -5.094902 -3.114146 2.870396 0
M  V30 50 H -3.779712 -3.410168 4.146943 0
M  V30 51 H -4.096014 -1.041496 4.768425 0
M  V30 52 H -5.059468 -0.792103 3.204967 0
M  V30 53 H -0.805643 -4.154949 -1.647279 0
M  V30 54 H 0.003408 -4.099649 -3.418485 0
M  V30 END ATOM
M  V30 BEGIN BOND
M  V30 1 3 1 2
M  V30 2 1 2 3
M  V30 3 2 3 4
M  V30 4 1 4 5
M  V30 5 1 5 6
M  V30 6 1 6 7
M  V30 7 1 7 8
M  V30 8 1 8 9
M  V30 9 1 9 10
M  V30 10 1 4 11
M  V30 11 2 11 12
M  V30 12 1 12 13
M  V30 13 2 13 14
M  V30 14 1 14 15
M  V30 15 1 14 16
M  V30 16 2 16 17
M  V30 17 1 17 18
M  V30 18 2 18 19
M  V30 19 1 19 20
M  V30 20 1 20 21
M  V30 21 1 21 22
M  V30 22 1 22 23
M  V30 23 1 23 24
M  V30 24 1 24 25
M  V30 25 1 12 26
M  V30 26 2 26 27
M  V30 27 1 27 28
M  V30 28 1 27 3
M  V30 29 1 10 5
M  V30 30 1 19 13
M  V30 31 1 25 22
M  V30 32 1 5 29
M  V30 33 1 6 30
M  V30 34 1 6 31
M  V30 35 1 7 32
M  V30 36 1 7 33
M  V30 37 1 8 34
M  V30 38 1 8 35
M  V30 39 1 9 36
M  V30 40 1 10 37
M  V30 41 1 10 38
M  V30 42 1 11 39
M  V30 43 1 15 40
M  V30 44 1 16 41
M  V30 45 1 17 42
M  V30 46 1 18 43
M  V30 47 1 21 44
M  V30 48 1 21 45
M  V30 49 1 22 46
M  V30 50 1 23 47
M  V30 51 1 23 48
M  V30 52 1 24 49
M  V30 53 1 24 50
M  V30 54 1 25 51
M  V30 55 1 25 52
M  V30 56 1 28 53
M  V30 57 1 28 54
M  V30 END BOND
M  V30 END CTAB
M  END
>  <Dataset>  (720) 
ChEMBL_Kinases

>  <Ligand_Instance>  (720) 
nan

>  <PDB_ID>  (720) 
nan

>  <Standardized_SMILES>  (720) 
N#Cc1c(C2CCCNC2)cc(-c2c(O)cccc2OCC2CCC2)nc1N

>  <Name>  (720) 
nan

>  <Pocket>  (720) 
nan

>  <ATP_Site>  (720) 
nan

>  <Peripheral>  (720) 
nan

>  <Num_H_Atoms_ProtBoundConf>  (720) 
nan

>  <Num_Resolved_Atoms>  (720) 
nan

>  <Num_Not_Resolved_Atoms>  (720) 
nan

$$$$
CHEMBL183742
     RDKit          3D

  0  0  0  0  0  0  0  0  0  0999 V3000
M  V30 BEGIN CTAB
M  V30 COUNTS 38 41 0 0 0
M  V30 BEGIN ATOM
M  V30 1 C -0.529575 -5.870761 4.654830 0
M  V30 2 O 0.304380 -5.971734 3.514893 0
M  V30 3 C 0.363057 -4.876783 2.662428 0
M  V30 4 C 1.213668 -5.079357 1.569503 0
M  V30 5 C 1.351955 -4.043722 0.643033 0
M  V30 6 C 0.663691 -2.855767 0.809771 0
M  V30 7 C 0.847737 -1.809536 -0.190529 0
M  V30 8 C 0.242048 -0.572606 -0.177997 0
M  V30 9 C 0.721563 0.055447 -1.314203 0
M  V30 10 C 0.552707 1.265778 -1.917182 0
M  V30 11 N -0.338776 2.204175 -1.280560 0
M  V30 12 C 0.345912 3.022446 -0.363193 0
M  V30 13 O 1.578299 2.723978 -0.330585 0
M  V30 14 C -0.347281 4.051272 0.405183 0
M  V30 15 C -1.639998 4.532077 0.524245 0
M  V30 16 C -1.657341 5.549095 1.449279 0
M  V30 17 C -0.355247 5.651819 1.865756 0
M  V30 18 O 0.377263 4.781669 1.252120 0
M  V30 19 N 1.153444 1.625835 -3.041573 0
M  V30 20 C 1.998624 0.753111 -3.656983 0
M  V30 21 N 2.203247 -0.466858 -3.099175 0
M  V30 22 C 1.590847 -0.828133 -1.956998 0
M  V30 23 O 1.631699 -1.941894 -1.235863 0
M  V30 24 C -0.173575 -2.662927 1.890144 0
M  V30 25 C -0.314669 -3.682654 2.809543 0
M  V30 26 H -0.255497 -6.609746 5.435404 0
M  V30 27 H -1.604173 -5.911392 4.388786 0
M  V30 28 H -0.305063 -4.874692 5.137348 0
M  V30 29 H 1.771816 -5.992381 1.398998 0
M  V30 30 H 2.023177 -4.221707 -0.206699 0
M  V30 31 H -0.448147 -0.147246 0.525897 0
M  V30 32 H -1.382908 2.300148 -1.451557 0
M  V30 33 H -2.396289 4.067989 -0.087197 0
M  V30 34 H -2.575630 6.086067 1.712436 0
M  V30 35 H -0.036630 6.382200 2.612105 0
M  V30 36 H 2.564599 0.879926 -4.567471 0
M  V30 37 H -0.712170 -1.731299 2.019222 0
M  V30 38 H -0.952046 -3.602971 3.679022 0
M  V30 END ATOM
M  V30 BEGIN BOND
M  V30 1 1 1 2
M  V30 2 1 2 3
M  V30 3 2 3 4
M  V30 4 1 4 5
M  V30 5 2 5 6
M  V30 6 1 6 7
M  V30 7 2 7 8
M  V30 8 1 8 9
M  V30 9 2 9 10
M  V30 10 1 10 11
M  V30 11 1 11 12
M  V30 12 2 12 13
M  V30 13 1 12 14
M  V30 14 2 14 15
M  V30 15 1 15 16
M  V30 16 2 16 17
M  V30 17 1 17 18
M  V30 18 1 10 19
M  V30 19 2 19 20
M  V30 20 1 20 21
M  V30 21 2 21 22
M  V30 22 1 22 23
M  V30 23 1 6 24
M  V30 24 2 24 25
M  V30 25 1 25 3
M  V30 26 1 23 7
M  V30 27 1 22 9
M  V30 28 1 18 14
M  V30 29 1 1 26
M  V30 30 1 1 27
M  V30 31 1 1 28
M  V30 32 1 4 29
M  V30 33 1 5 30
M  V30 34 1 8 31
M  V30 35 1 11 32
M  V30 36 1 15 33
M  V30 37 1 16 34
M  V30 38 1 17 35
M  V30 39 1 20 36
M  V30 40 1 24 37
M  V30 41 1 25 38
M  V30 END BOND
M  V30 END CTAB
M  END
>  <Dataset>  (721) 
ChEMBL_Kinases

>  <Ligand_Instance>  (721) 
nan

>  <PDB_ID>  (721) 
nan

>  <Standardized_SMILES>  (721) 
COc1ccc(-c2cc3c(NC(=O)c4ccco4)ncnc3o2)cc1

>  <Name>  (721) 
nan

>  <Pocket>  (721) 
nan

>  <ATP_Site>  (721) 
nan

>  <Peripheral>  (721) 
nan

>  <Num_H_Atoms_ProtBoundConf>  (721) 
nan

>  <Num_Resolved_Atoms>  (721) 
nan

>  <Num_Not_Resolved_Atoms>  (721) 
nan

$$$$
CHEMBL183630
     RDKit          3D

  0  0  0  0  0  0  0  0  0  0999 V3000
M  V30 BEGIN CTAB
M  V30 COUNTS 66 70 0 0 0
M  V30 BEGIN ATOM
M  V30 1 C 4.330109 -0.129670 3.445289 0
M  V30 2 C 3.738253 -0.474024 2.114044 0
M  V30 3 C 4.617798 -0.605264 1.061932 0
M  V30 4 C 4.072903 -0.922165 -0.164850 0
M  V30 5 C 2.721256 -1.105311 -0.363403 0
M  V30 6 N 2.106265 -1.428445 -1.601944 0
M  V30 7 C 1.848952 -2.720039 -2.121500 0
M  V30 8 O 2.208374 -3.678611 -1.399054 0
M  V30 9 C 1.213722 -2.987561 -3.400292 0
M  V30 10 C 1.053426 -4.337043 -3.724669 0
M  V30 11 C 0.449381 -4.622743 -4.940402 0
M  V30 12 C 0.025244 -3.633531 -5.792369 0
M  V30 13 C 0.175050 -2.298878 -5.489008 0
M  V30 14 N -0.242783 -1.236484 -6.331860 0
M  V30 15 C -0.170607 0.186317 -6.076697 0
M  V30 16 C -1.547768 0.806797 -6.194130 0
M  V30 17 O -2.225569 0.443868 -7.343303 0
M  V30 18 C -2.278873 -0.922110 -7.488276 0
M  V30 19 C -0.833314 -1.415620 -7.639364 0
M  V30 20 C 0.773755 -2.033409 -4.284063 0
M  V30 21 C 1.912817 -0.953965 0.749400 0
M  V30 22 C 2.375568 -0.634811 2.026817 0
M  V30 23 N 1.484803 -0.495365 3.122057 0
M  V30 24 C 0.962127 -1.348716 4.111594 0
M  V30 25 O 1.290725 -2.562090 4.138474 0
M  V30 26 C 0.038879 -0.811913 5.102073 0
M  V30 27 C -0.437121 -1.671052 6.072889 0
M  V30 28 C -1.325495 -1.156320 7.027074 0
M  V30 29 C -1.738918 0.185379 7.025016 0
M  V30 30 O -2.597822 0.379941 8.072065 0
M  V30 31 C -3.273352 1.508734 8.485393 0
M  V30 32 C -4.244641 2.064409 7.475722 0
M  V30 33 C -5.586264 1.466465 7.590445 0
M  V30 34 S -6.502196 2.312620 6.299624 0
M  V30 35 C -4.987150 3.339857 5.785854 0
M  V30 36 N -4.131252 2.971389 6.531198 0
M  V30 37 C -1.233630 0.997178 6.035379 0
M  V30 38 C -0.360258 0.503811 5.091880 0
M  V30 39 H 3.618078 -0.382460 4.243060 0
M  V30 40 H 4.491079 0.969225 3.465038 0
M  V30 41 H 5.312861 -0.605708 3.570722 0
M  V30 42 H 5.685750 -0.469850 1.175538 0
M  V30 43 H 4.705762 -1.041342 -1.040205 0
M  V30 44 H 1.837416 -0.594970 -2.141624 0
M  V30 45 H 1.368244 -5.138189 -3.091722 0
M  V30 46 H 0.313655 -5.658893 -5.214009 0
M  V30 47 H -0.430548 -3.933350 -6.707973 0
M  V30 48 H 0.465310 0.655309 -6.878988 0
M  V30 49 H 0.200414 0.420600 -5.069093 0
M  V30 50 H -2.165170 0.602916 -5.295082 0
M  V30 51 H -1.423550 1.926461 -6.264610 0
M  V30 52 H -2.628460 -1.353877 -6.511861 0
M  V30 53 H -2.906749 -1.221458 -8.331382 0
M  V30 54 H -0.392257 -0.737099 -8.417537 0
M  V30 55 H -0.807163 -2.442264 -8.001109 0
M  V30 56 H 0.959880 -1.042564 -3.909578 0
M  V30 57 H 0.834810 -1.089375 0.641986 0
M  V30 58 H 1.285146 0.520125 3.002146 0
M  V30 59 H -0.108625 -2.700740 6.060666 0
M  V30 60 H -1.626593 -1.944596 7.739406 0
M  V30 61 H -2.472516 2.288937 8.688548 0
M  V30 62 H -3.745172 1.376511 9.482679 0
M  V30 63 H -5.980432 0.744286 8.220562 0
M  V30 64 H -4.891804 4.089635 5.005276 0
M  V30 65 H -1.599366 1.999446 6.119061 0
M  V30 66 H -0.025611 1.207360 4.368294 0
M  V30 END ATOM
M  V30 BEGIN BOND
M  V30 1 1 1 2
M  V30 2 2 2 3
M  V30 3 1 3 4
M  V30 4 2 4 5
M  V30 5 1 5 6
M  V30 6 1 6 7
M  V30 7 2 7 8
M  V30 8 1 7 9
M  V30 9 2 9 10
M  V30 10 1 10 11
M  V30 11 2 11 12
M  V30 12 1 12 13
M  V30 13 1 13 14
M  V30 14 1 14 15
M  V30 15 1 15 16
M  V30 16 1 16 17
M  V30 17 1 17 18
M  V30 18 1 18 19
M  V30 19 2 13 20
M  V30 20 1 5 21
M  V30 21 2 21 22
M  V30 22 1 22 23
M  V30 23 1 23 24
M  V30 24 2 24 25
M  V30 25 1 24 26
M  V30 26 2 26 27
M  V30 27 1 27 28
M  V30 28 2 28 29
M  V30 29 1 29 30
M  V30 30 1 30 31
M  V30 31 1 31 32
M  V30 32 2 32 33
M  V30 33 1 33 34
M  V30 34 1 34 35
M  V30 35 2 35 36
M  V30 36 1 29 37
M  V30 37 2 37 38
M  V30 38 1 22 2
M  V30 39 1 38 26
M  V30 40 1 20 9
M  V30 41 1 36 32
M  V30 42 1 19 14
M  V30 43 1 1 39
M  V30 44 1 1 40
M  V30 45 1 1 41
M  V30 46 1 3 42
M  V30 47 1 4 43
M  V30 48 1 6 44
M  V30 49 1 10 45
M  V30 50 1 11 46
M  V30 51 1 12 47
M  V30 52 1 15 48
M  V30 53 1 15 49
M  V30 54 1 16 50
M  V30 55 1 16 51
M  V30 56 1 18 52
M  V30 57 1 18 53
M  V30 58 1 19 54
M  V30 59 1 19 55
M  V30 60 1 20 56
M  V30 61 1 21 57
M  V30 62 1 23 58
M  V30 63 1 27 59
M  V30 64 1 28 60
M  V30 65 1 31 61
M  V30 66 1 31 62
M  V30 67 1 33 63
M  V30 68 1 35 64
M  V30 69 1 37 65
M  V30 70 1 38 66
M  V30 END BOND
M  V30 END CTAB
M  END
>  <Dataset>  (722) 
ChEMBL_Kinases

>  <Ligand_Instance>  (722) 
nan

>  <PDB_ID>  (722) 
nan

>  <Standardized_SMILES>  (722) 
Cc1ccc(NC(=O)c2cccc(N3CCOCC3)c2)cc1NC(=O)c1ccc(OCc2cscn2)cc1

>  <Name>  (722) 
nan

>  <Pocket>  (722) 
nan

>  <ATP_Site>  (722) 
nan

>  <Peripheral>  (722) 
nan

>  <Num_H_Atoms_ProtBoundConf>  (722) 
nan

>  <Num_Resolved_Atoms>  (722) 
nan

>  <Num_Not_Resolved_Atoms>  (722) 
nan

$$$$
CHEMBL186317
     RDKit          3D

  0  0  0  0  0  0  0  0  0  0999 V3000
M  V30 BEGIN CTAB
M  V30 COUNTS 36 39 0 0 0
M  V30 BEGIN ATOM
M  V30 1 N 1.442826 -4.892868 1.645749 0
M  V30 2 C 2.336349 -3.992027 1.017477 0
M  V30 3 C 1.955620 -2.614040 1.485378 0
M  V30 4 C 2.533345 -2.073377 2.629247 0
M  V30 5 C 2.158285 -0.802223 3.029403 0
M  V30 6 C 1.228428 -0.097020 2.298156 0
M  V30 7 C 0.643930 -0.616298 1.160407 0
M  V30 8 N -0.321399 0.048554 0.353906 0
M  V30 9 C -0.186450 1.227127 -0.280341 0
M  V30 10 C 0.985006 2.095427 -0.285751 0
M  V30 11 N 2.174312 1.937276 0.319573 0
M  V30 12 O 2.939601 2.947101 0.056038 0
M  V30 13 N 2.296429 3.796954 -0.720353 0
M  V30 14 C 1.077819 3.297344 -0.951872 0
M  V30 15 N 0.075041 3.917832 -1.748459 0
M  V30 16 N -1.319557 1.525929 -0.944067 0
M  V30 17 C -2.199789 0.505811 -0.724009 0
M  V30 18 C -3.498889 0.320943 -1.175108 0
M  V30 19 N -4.132606 -0.811176 -0.783046 0
M  V30 20 C -3.534999 -1.726567 0.012196 0
M  V30 21 C -2.244096 -1.563811 0.472755 0
M  V30 22 C -1.572663 -0.417562 0.088643 0
M  V30 23 C 1.029108 -1.894204 0.768856 0
M  V30 24 H 0.612077 -5.202846 1.147276 0
M  V30 25 H 1.415674 -4.899595 2.668653 0
M  V30 26 H 3.385560 -4.227756 1.199432 0
M  V30 27 H 2.164276 -4.060115 -0.080844 0
M  V30 28 H 3.268296 -2.635864 3.203606 0
M  V30 29 H 2.595316 -0.378731 3.904912 0
M  V30 30 H 0.927149 0.896617 2.600258 0
M  V30 31 H -0.798928 4.291182 -1.297926 0
M  V30 32 H -0.072571 4.141164 -2.768212 0
M  V30 33 H -3.955894 1.065605 -1.809476 0
M  V30 34 H -4.070536 -2.620794 0.306805 0
M  V30 35 H -1.721851 -2.269335 1.112244 0
M  V30 36 H 0.599448 -2.345529 -0.116526 0
M  V30 END ATOM
M  V30 BEGIN BOND
M  V30 1 1 1 2
M  V30 2 1 2 3
M  V30 3 2 3 4
M  V30 4 1 4 5
M  V30 5 2 5 6
M  V30 6 1 6 7
M  V30 7 1 7 8
M  V30 8 1 8 9
M  V30 9 1 9 10
M  V30 10 2 10 11
M  V30 11 1 11 12
M  V30 12 1 12 13
M  V30 13 2 13 14
M  V30 14 1 14 15
M  V30 15 2 9 16
M  V30 16 1 16 17
M  V30 17 2 17 18
M  V30 18 1 18 19
M  V30 19 2 19 20
M  V30 20 1 20 21
M  V30 21 2 21 22
M  V30 22 2 7 23
M  V30 23 1 23 3
M  V30 24 1 22 8
M  V30 25 1 14 10
M  V30 26 1 22 17
M  V30 27 1 1 24
M  V30 28 1 1 25
M  V30 29 1 2 26
M  V30 30 1 2 27
M  V30 31 1 4 28
M  V30 32 1 5 29
M  V30 33 1 6 30
M  V30 34 1 15 31
M  V30 35 1 15 32
M  V30 36 1 18 33
M  V30 37 1 20 34
M  V30 38 1 21 35
M  V30 39 1 23 36
M  V30 END BOND
M  V30 END CTAB
M  END
>  <Dataset>  (723) 
ChEMBL_Kinases

>  <Ligand_Instance>  (723) 
nan

>  <PDB_ID>  (723) 
nan

>  <Standardized_SMILES>  (723) 
NCc1cccc(-n2c(-c3nonc3N)nc3cnccc32)c1

>  <Name>  (723) 
nan

>  <Pocket>  (723) 
nan

>  <ATP_Site>  (723) 
nan

>  <Peripheral>  (723) 
nan

>  <Num_H_Atoms_ProtBoundConf>  (723) 
nan

>  <Num_Resolved_Atoms>  (723) 
nan

>  <Num_Not_Resolved_Atoms>  (723) 
nan

$$$$
CHEMBL186195
     RDKit          3D

  0  0  0  0  0  0  0  0  0  0999 V3000
M  V30 BEGIN CTAB
M  V30 COUNTS 50 54 0 0 0
M  V30 BEGIN ATOM
M  V30 1 C 1.603298 -4.534129 5.874643 0
M  V30 2 C 1.457094 -3.504181 4.813120 0
M  V30 3 C 1.421450 -2.142421 5.114185 0
M  V30 4 C 1.280618 -1.244658 4.051901 0
M  V30 5 C 1.181703 -1.733173 2.743845 0
M  V30 6 C 1.037696 -1.129607 1.503159 0
M  V30 7 C 0.955935 0.312061 1.391630 0
M  V30 8 C 2.082120 1.024257 1.738308 0
M  V30 9 C 2.005885 2.395843 1.635698 0
M  V30 10 N 0.881385 2.985345 1.217161 0
M  V30 11 C -0.216089 2.324017 0.877690 0
M  V30 12 N -1.373324 3.016555 0.440634 0
M  V30 13 C -2.634808 2.495447 0.063746 0
M  V30 14 C -3.016224 1.174746 0.088418 0
M  V30 15 C -4.226889 0.669599 -0.275209 0
M  V30 16 C -5.188843 1.578905 -0.721024 0
M  V30 17 F -6.411387 1.135907 -1.095751 0
M  V30 18 C -4.867662 2.901606 -0.766967 0
M  V30 19 F -5.796253 3.796142 -1.199295 0
M  V30 20 C -3.623550 3.342010 -0.383937 0
M  V30 21 N -0.124798 0.991499 0.983161 0
M  V30 22 C 0.996425 -2.130985 0.558450 0
M  V30 23 C 0.854766 -1.894896 -0.874183 0
M  V30 24 C -0.183400 -1.325298 -1.582261 0
M  V30 25 C -0.091290 -1.204399 -2.952796 0
M  V30 26 C 1.009531 -1.633457 -3.664800 0
M  V30 27 C 2.058756 -2.207902 -2.958882 0
M  V30 28 C 3.236619 -2.663267 -3.749261 0
M  V30 29 F 2.944563 -2.874768 -5.059521 0
M  V30 30 F 3.727641 -3.819357 -3.188092 0
M  V30 31 F 4.261688 -1.720614 -3.638434 0
M  V30 32 C 1.969202 -2.328321 -1.602139 0
M  V30 33 N 1.113479 -3.323112 1.215983 0
M  V30 34 N 1.223643 -3.060153 2.528067 0
M  V30 35 N 1.357293 -3.900907 3.541290 0
M  V30 36 H 2.130582 -5.400732 5.429194 0
M  V30 37 H 0.622736 -4.912823 6.217566 0
M  V30 38 H 2.216447 -4.121942 6.697191 0
M  V30 39 H 1.499091 -1.800447 6.121058 0
M  V30 40 H 1.245681 -0.175956 4.215255 0
M  V30 41 H 2.977966 0.519960 2.073622 0
M  V30 42 H 2.858052 3.016935 1.893433 0
M  V30 43 H -1.281974 4.072934 0.389499 0
M  V30 44 H -2.309717 0.436194 0.426653 0
M  V30 45 H -4.466150 -0.381845 -0.233159 0
M  V30 46 H -3.443732 4.418559 -0.450274 0
M  V30 47 H -0.997110 -1.021506 -0.945877 0
M  V30 48 H -0.955163 -0.741936 -3.443949 0
M  V30 49 H 1.057823 -1.528371 -4.729826 0
M  V30 50 H 2.840714 -2.788799 -1.159659 0
M  V30 END ATOM
M  V30 BEGIN BOND
M  V30 1 1 1 2
M  V30 2 1 2 3
M  V30 3 2 3 4
M  V30 4 1 4 5
M  V30 5 2 5 6
M  V30 6 1 6 7
M  V30 7 2 7 8
M  V30 8 1 8 9
M  V30 9 2 9 10
M  V30 10 1 10 11
M  V30 11 1 11 12
M  V30 12 1 12 13
M  V30 13 2 13 14
M  V30 14 1 14 15
M  V30 15 2 15 16
M  V30 16 1 16 17
M  V30 17 1 16 18
M  V30 18 1 18 19
M  V30 19 2 18 20
M  V30 20 2 11 21
M  V30 21 1 6 22
M  V30 22 1 22 23
M  V30 23 2 23 24
M  V30 24 1 24 25
M  V30 25 2 25 26
M  V30 26 1 26 27
M  V30 27 1 27 28
M  V30 28 1 28 29
M  V30 29 1 28 30
M  V30 30 1 28 31
M  V30 31 2 27 32
M  V30 32 2 22 33
M  V30 33 1 33 34
M  V30 34 1 34 35
M  V30 35 2 35 2
M  V30 36 1 34 5
M  V30 37 1 21 7
M  V30 38 1 32 23
M  V30 39 1 20 13
M  V30 40 1 1 36
M  V30 41 1 1 37
M  V30 42 1 1 38
M  V30 43 1 3 39
M  V30 44 1 4 40
M  V30 45 1 8 41
M  V30 46 1 9 42
M  V30 47 1 12 43
M  V30 48 1 14 44
M  V30 49 1 15 45
M  V30 50 1 20 46
M  V30 51 1 24 47
M  V30 52 1 25 48
M  V30 53 1 26 49
M  V30 54 1 32 50
M  V30 END BOND
M  V30 END CTAB
M  END
>  <Dataset>  (724) 
ChEMBL_Kinases

>  <Ligand_Instance>  (724) 
nan

>  <PDB_ID>  (724) 
nan

>  <Standardized_SMILES>  (724) 
Cc1ccc2c(-c3ccnc(Nc4ccc(F)c(F)c4)n3)c(-c3cccc(C(F)(F)F)c3)nn2n1

>  <Name>  (724) 
nan

>  <Pocket>  (724) 
nan

>  <ATP_Site>  (724) 
nan

>  <Peripheral>  (724) 
nan

>  <Num_H_Atoms_ProtBoundConf>  (724) 
nan

>  <Num_Resolved_Atoms>  (724) 
nan

>  <Num_Not_Resolved_Atoms>  (724) 
nan

$$$$
CHEMBL186177
     RDKit          3D

  0  0  0  0  0  0  0  0  0  0999 V3000
M  V30 BEGIN CTAB
M  V30 COUNTS 37 39 0 0 0
M  V30 BEGIN ATOM
M  V30 1 C 2.557795 -3.593496 -1.215466 0
M  V30 2 C 3.564775 -3.309700 -0.157763 0
M  V30 3 C 4.570008 -4.253127 0.086766 0
M  V30 4 C 5.501052 -3.986013 1.067682 0
M  V30 5 C 5.454875 -2.801769 1.810889 0
M  V30 6 C 4.432136 -1.888264 1.531513 0
M  V30 7 Cl 4.333204 -0.392058 2.436102 0
M  V30 8 C 3.480098 -2.121509 0.554811 0
M  V30 9 N 2.442676 -1.181932 0.280014 0
M  V30 10 C 2.358979 -0.079460 -0.617874 0
M  V30 11 O 3.358661 0.157870 -1.328062 0
M  V30 12 C 1.012300 0.484152 -0.414516 0
M  V30 13 C 0.633581 1.648459 -1.215188 0
M  V30 14 N -0.554554 2.186141 -1.070350 0
M  V30 15 C -1.375445 1.771078 -0.299507 0
M  V30 16 N -2.706119 2.175679 0.017157 0
M  V30 17 C -3.634979 1.680249 0.956925 0
M  V30 18 C -4.943118 2.107035 0.863149 0
M  V30 19 C -5.909943 1.681607 1.736644 0
M  V30 20 C -5.638910 0.802209 2.762568 0
M  V30 21 C -4.342265 0.355880 2.885509 0
M  V30 22 C -3.411918 0.806139 1.993074 0
M  V30 23 S -0.567724 0.322091 0.526130 0
M  V30 24 H 2.913200 -4.420495 -1.873693 0
M  V30 25 H 1.578321 -3.878997 -0.833729 0
M  V30 26 H 2.432276 -2.706429 -1.871409 0
M  V30 27 H 4.627351 -5.181081 -0.477524 0
M  V30 28 H 6.310272 -4.686184 1.303485 0
M  V30 29 H 6.184085 -2.586371 2.583435 0
M  V30 30 H 1.781742 -1.614514 0.984427 0
M  V30 31 H 1.282042 2.139167 -1.963419 0
M  V30 32 H -3.008925 2.983288 -0.567867 0
M  V30 33 H -5.260373 2.805540 0.083520 0
M  V30 34 H -6.940713 2.047787 1.624435 0
M  V30 35 H -6.401651 0.472187 3.444400 0
M  V30 36 H -4.098500 -0.328934 3.673311 0
M  V30 37 H -2.416647 0.427350 2.143391 0
M  V30 END ATOM
M  V30 BEGIN BOND
M  V30 1 1 1 2
M  V30 2 2 2 3
M  V30 3 1 3 4
M  V30 4 2 4 5
M  V30 5 1 5 6
M  V30 6 1 6 7
M  V30 7 2 6 8
M  V30 8 1 8 9
M  V30 9 1 9 10
M  V30 10 2 10 11
M  V30 11 1 10 12
M  V30 12 2 12 13
M  V30 13 1 13 14
M  V30 14 2 14 15
M  V30 15 1 15 16
M  V30 16 1 16 17
M  V30 17 2 17 18
M  V30 18 1 18 19
M  V30 19 2 19 20
M  V30 20 1 20 21
M  V30 21 2 21 22
M  V30 22 1 15 23
M  V30 23 1 8 2
M  V30 24 1 23 12
M  V30 25 1 22 17
M  V30 26 1 1 24
M  V30 27 1 1 25
M  V30 28 1 1 26
M  V30 29 1 3 27
M  V30 30 1 4 28
M  V30 31 1 5 29
M  V30 32 1 9 30
M  V30 33 1 13 31
M  V30 34 1 16 32
M  V30 35 1 18 33
M  V30 36 1 19 34
M  V30 37 1 20 35
M  V30 38 1 21 36
M  V30 39 1 22 37
M  V30 END BOND
M  V30 END CTAB
M  END
>  <Dataset>  (725) 
ChEMBL_Kinases

>  <Ligand_Instance>  (725) 
nan

>  <PDB_ID>  (725) 
nan

>  <Standardized_SMILES>  (725) 
Cc1cccc(Cl)c1NC(=O)c1cnc(Nc2ccccc2)s1

>  <Name>  (725) 
nan

>  <Pocket>  (725) 
nan

>  <ATP_Site>  (725) 
nan

>  <Peripheral>  (725) 
nan

>  <Num_H_Atoms_ProtBoundConf>  (725) 
nan

>  <Num_Resolved_Atoms>  (725) 
nan

>  <Num_Not_Resolved_Atoms>  (725) 
nan

$$$$
CHEMBL186166
     RDKit          3D

  0  0  0  0  0  0  0  0  0  0999 V3000
M  V30 BEGIN CTAB
M  V30 COUNTS 44 48 0 0 0
M  V30 BEGIN ATOM
M  V30 1 F -4.831650 1.183178 -1.380915 0
M  V30 2 C -3.482914 1.266653 -1.278636 0
M  V30 3 C -2.712809 0.473653 -2.105436 0
M  V30 4 C -1.332924 0.518727 -2.043530 0
M  V30 5 C -0.778474 1.385321 -1.125442 0
M  V30 6 C 0.673810 1.575989 -0.909224 0
M  V30 7 N 1.598007 2.039664 -1.790401 0
M  V30 8 N 2.793815 2.067713 -1.219145 0
M  V30 9 N 4.006222 2.416307 -1.598609 0
M  V30 10 C 5.095918 2.352457 -0.811197 0
M  V30 11 C 5.003263 1.900914 0.488405 0
M  V30 12 C 3.760141 1.520103 0.947848 0
M  V30 13 C 2.717076 1.629070 0.051451 0
M  V30 14 C 1.376340 1.309203 0.273036 0
M  V30 15 C 0.683797 0.784579 1.452528 0
M  V30 16 C 0.574652 1.353586 2.708426 0
M  V30 17 C -0.136867 0.655598 3.663289 0
M  V30 18 N -0.705510 -0.519146 3.414113 0
M  V30 19 C -0.601853 -1.066693 2.208704 0
M  V30 20 N -1.181484 -2.329272 1.853085 0
M  V30 21 C -0.533292 -3.591632 1.915945 0
M  V30 22 C 0.756541 -3.661011 2.344107 0
M  V30 23 C 1.365472 -4.896950 2.390406 0
M  V30 24 C 0.634247 -6.001890 1.999481 0
M  V30 25 F 1.131910 -7.265009 2.004273 0
M  V30 26 C -0.684299 -5.910302 1.564550 0
M  V30 27 F -1.398016 -7.011577 1.178824 0
M  V30 28 C -1.296442 -4.666827 1.518178 0
M  V30 29 N 0.081895 -0.407323 1.272786 0
M  V30 30 C -1.509894 2.202100 -0.273093 0
M  V30 31 C -2.906010 2.126702 -0.367243 0
M  V30 32 H -3.109061 -0.230248 -2.850993 0
M  V30 33 H -0.652026 -0.060216 -2.646926 0
M  V30 34 H 6.047555 2.671605 -1.246263 0
M  V30 35 H 5.886654 1.853475 1.113604 0
M  V30 36 H 3.613853 1.156862 1.954676 0
M  V30 37 H 1.079070 2.312808 2.795910 0
M  V30 38 H -0.182733 1.156017 4.620651 0
M  V30 39 H -2.155659 -2.162765 1.541863 0
M  V30 40 H 1.322717 -2.772467 2.651287 0
M  V30 41 H 2.402418 -5.031964 2.724641 0
M  V30 42 H -2.329024 -4.598606 1.177575 0
M  V30 43 H -1.126738 2.881704 0.445409 0
M  V30 44 H -3.559807 2.719091 0.249590 0
M  V30 END ATOM
M  V30 BEGIN BOND
M  V30 1 1 1 2
M  V30 2 2 2 3
M  V30 3 1 3 4
M  V30 4 2 4 5
M  V30 5 1 5 6
M  V30 6 2 6 7
M  V30 7 1 7 8
M  V30 8 1 8 9
M  V30 9 2 9 10
M  V30 10 1 10 11
M  V30 11 2 11 12
M  V30 12 1 12 13
M  V30 13 2 13 14
M  V30 14 1 14 15
M  V30 15 2 15 16
M  V30 16 1 16 17
M  V30 17 2 17 18
M  V30 18 1 18 19
M  V30 19 1 19 20
M  V30 20 1 20 21
M  V30 21 2 21 22
M  V30 22 1 22 23
M  V30 23 2 23 24
M  V30 24 1 24 25
M  V30 25 1 24 26
M  V30 26 1 26 27
M  V30 27 2 26 28
M  V30 28 2 19 29
M  V30 29 1 5 30
M  V30 30 2 30 31
M  V30 31 1 31 2
M  V30 32 1 14 6
M  V30 33 1 29 15
M  V30 34 1 13 8
M  V30 35 1 28 21
M  V30 36 1 3 32
M  V30 37 1 4 33
M  V30 38 1 10 34
M  V30 39 1 11 35
M  V30 40 1 12 36
M  V30 41 1 16 37
M  V30 42 1 17 38
M  V30 43 1 20 39
M  V30 44 1 22 40
M  V30 45 1 23 41
M  V30 46 1 28 42
M  V30 47 1 30 43
M  V30 48 1 31 44
M  V30 END BOND
M  V30 END CTAB
M  END
>  <Dataset>  (726) 
ChEMBL_Kinases

>  <Ligand_Instance>  (726) 
nan

>  <PDB_ID>  (726) 
nan

>  <Standardized_SMILES>  (726) 
Fc1ccc(-c2nn3ncccc3c2-c2ccnc(Nc3ccc(F)c(F)c3)n2)cc1

>  <Name>  (726) 
nan

>  <Pocket>  (726) 
nan

>  <ATP_Site>  (726) 
nan

>  <Peripheral>  (726) 
nan

>  <Num_H_Atoms_ProtBoundConf>  (726) 
nan

>  <Num_Resolved_Atoms>  (726) 
nan

>  <Num_Not_Resolved_Atoms>  (726) 
nan

$$$$
CHEMBL186116
     RDKit          3D

  0  0  0  0  0  0  0  0  0  0999 V3000
M  V30 BEGIN CTAB
M  V30 COUNTS 48 52 0 0 0
M  V30 BEGIN ATOM
M  V30 1 C 1.388047 -3.595308 -4.017648 0
M  V30 2 O 1.797157 -2.251040 -3.954548 0
M  V30 3 C 1.793069 -1.520183 -2.774308 0
M  V30 4 C 2.242254 -0.220288 -2.984560 0
M  V30 5 C 2.322980 0.689363 -1.949564 0
M  V30 6 C 1.953095 0.313533 -0.674179 0
M  V30 7 C 1.966941 1.122795 0.538732 0
M  V30 8 N 3.140027 1.627267 0.978447 0
M  V30 9 N 2.939974 2.330850 2.090316 0
M  V30 10 N 3.719241 3.019794 2.914313 0
M  V30 11 C 3.219887 3.650409 3.997839 0
M  V30 12 C 1.883436 3.637976 4.342026 0
M  V30 13 C 1.060046 2.921748 3.489016 0
M  V30 14 C 1.628195 2.294017 2.391162 0
M  V30 15 C 0.990554 1.537107 1.426641 0
M  V30 16 C -0.378338 1.147479 1.213415 0
M  V30 17 C -1.036465 1.575588 0.055732 0
M  V30 18 C -2.361037 1.192222 -0.140213 0
M  V30 19 N -2.973557 0.418846 0.790992 0
M  V30 20 C -2.306060 0.025287 1.895517 0
M  V30 21 N -3.051216 -0.785784 2.805348 0
M  V30 22 C -2.943554 -2.195344 2.544116 0
M  V30 23 C -2.178045 -2.671793 1.500337 0
M  V30 24 C -2.060554 -4.037578 1.230163 0
M  V30 25 C -2.730105 -4.950605 2.029940 0
M  V30 26 C -3.504922 -4.483537 3.085127 0
M  V30 27 C -3.600759 -3.129566 3.325949 0
M  V30 28 N -1.031041 0.369449 2.126728 0
M  V30 29 C 1.503400 -0.991399 -0.469295 0
M  V30 30 C 1.421648 -1.902736 -1.501868 0
M  V30 31 H 0.324092 -3.717450 -4.294649 0
M  V30 32 H 2.020920 -4.135042 -4.766252 0
M  V30 33 H 1.608551 -4.073196 -3.043425 0
M  V30 34 H 2.560289 0.199787 -3.927181 0
M  V30 35 H 2.659554 1.709121 -2.034127 0
M  V30 36 H 3.942688 4.187793 4.609401 0
M  V30 37 H 1.512149 4.153285 5.217434 0
M  V30 38 H 0.000253 2.859806 3.683813 0
M  V30 39 H -0.568514 2.188587 -0.693772 0
M  V30 40 H -2.890921 1.512949 -1.031228 0
M  V30 41 H -3.640742 -0.489533 3.604939 0
M  V30 42 H -1.645907 -2.009757 0.859346 0
M  V30 43 H -1.438917 -4.354954 0.388631 0
M  V30 44 H -2.580031 -5.993450 1.744567 0
M  V30 45 H -4.006350 -5.240374 3.678091 0
M  V30 46 H -4.217957 -2.818400 4.161344 0
M  V30 47 H 1.197565 -1.369771 0.478353 0
M  V30 48 H 1.093004 -2.915182 -1.446236 0
M  V30 END ATOM
M  V30 BEGIN BOND
M  V30 1 1 1 2
M  V30 2 1 2 3
M  V30 3 2 3 4
M  V30 4 1 4 5
M  V30 5 2 5 6
M  V30 6 1 6 7
M  V30 7 2 7 8
M  V30 8 1 8 9
M  V30 9 1 9 10
M  V30 10 2 10 11
M  V30 11 1 11 12
M  V30 12 2 12 13
M  V30 13 1 13 14
M  V30 14 2 14 15
M  V30 15 1 15 16
M  V30 16 2 16 17
M  V30 17 1 17 18
M  V30 18 2 18 19
M  V30 19 1 19 20
M  V30 20 1 20 21
M  V30 21 1 21 22
M  V30 22 2 22 23
M  V30 23 1 23 24
M  V30 24 2 24 25
M  V30 25 1 25 26
M  V30 26 2 26 27
M  V30 27 2 20 28
M  V30 28 1 6 29
M  V30 29 2 29 30
M  V30 30 1 30 3
M  V30 31 1 15 7
M  V30 32 1 28 16
M  V30 33 1 14 9
M  V30 34 1 27 22
M  V30 35 1 1 31
M  V30 36 1 1 32
M  V30 37 1 1 33
M  V30 38 1 4 34
M  V30 39 1 5 35
M  V30 40 1 11 36
M  V30 41 1 12 37
M  V30 42 1 13 38
M  V30 43 1 17 39
M  V30 44 1 18 40
M  V30 45 1 21 41
M  V30 46 1 23 42
M  V30 47 1 24 43
M  V30 48 1 25 44
M  V30 49 1 26 45
M  V30 50 1 27 46
M  V30 51 1 29 47
M  V30 52 1 30 48
M  V30 END BOND
M  V30 END CTAB
M  END
>  <Dataset>  (727) 
ChEMBL_Kinases

>  <Ligand_Instance>  (727) 
nan

>  <PDB_ID>  (727) 
nan

>  <Standardized_SMILES>  (727) 
COc1ccc(-c2nn3ncccc3c2-c2ccnc(Nc3ccccc3)n2)cc1

>  <Name>  (727) 
nan

>  <Pocket>  (727) 
nan

>  <ATP_Site>  (727) 
nan

>  <Peripheral>  (727) 
nan

>  <Num_H_Atoms_ProtBoundConf>  (727) 
nan

>  <Num_Resolved_Atoms>  (727) 
nan

>  <Num_Not_Resolved_Atoms>  (727) 
nan

$$$$
CHEMBL186010
     RDKit          3D

  0  0  0  0  0  0  0  0  0  0999 V3000
M  V30 BEGIN CTAB
M  V30 COUNTS 50 54 0 0 0
M  V30 BEGIN ATOM
M  V30 1 C 1.642071 -1.770761 6.724861 0
M  V30 2 C 1.513196 -1.769771 5.261918 0
M  V30 3 C 2.465205 -1.038739 4.542959 0
M  V30 4 C 2.463992 -0.939641 3.165140 0
M  V30 5 C 1.457322 -1.609475 2.505827 0
M  V30 6 C 1.144895 -1.726915 1.170001 0
M  V30 7 C 1.862664 -1.122355 0.055143 0
M  V30 8 C 3.028442 -1.540076 -0.544616 0
M  V30 9 C 3.585465 -0.841109 -1.599699 0
M  V30 10 N 2.989645 0.255135 -2.047815 0
M  V30 11 C 1.843684 0.698922 -1.485779 0
M  V30 12 N 1.147653 1.884285 -1.938267 0
M  V30 13 C -0.029588 2.301750 -1.261803 0
M  V30 14 C 0.270764 3.099806 -0.151557 0
M  V30 15 C -0.763885 3.597331 0.649180 0
M  V30 16 C -2.077333 3.281681 0.316734 0
M  V30 17 Cl -3.389942 3.899868 1.317126 0
M  V30 18 C -2.362317 2.495274 -0.777693 0
M  V30 19 C -3.769810 2.185753 -1.070895 0
M  V30 20 F -3.813714 1.405505 -2.210983 0
M  V30 21 F -4.486537 3.342309 -1.269416 0
M  V30 22 F -4.380974 1.530814 -0.006383 0
M  V30 23 C -1.340801 2.011607 -1.558849 0
M  V30 24 N 1.325378 -0.001704 -0.461328 0
M  V30 25 C 0.026581 -2.513446 1.077872 0
M  V30 26 C -0.718594 -2.950059 -0.099259 0
M  V30 27 C -0.687396 -4.318275 -0.303955 0
M  V30 28 C -1.341658 -4.901958 -1.370610 0
M  V30 29 C -2.037833 -4.095356 -2.244397 0
M  V30 30 C -2.082799 -2.733917 -2.061667 0
M  V30 31 C -1.428816 -2.158618 -0.996628 0
M  V30 32 N -0.319425 -2.857642 2.350868 0
M  V30 33 N 0.544612 -2.311167 3.200022 0
M  V30 34 N 0.572766 -2.387145 4.519145 0
M  V30 35 H 2.678455 -1.887960 7.098065 0
M  V30 36 H 1.056763 -2.568654 7.212828 0
M  V30 37 H 1.260192 -0.813242 7.178467 0
M  V30 38 H 3.248158 -0.519615 5.062296 0
M  V30 39 H 3.206194 -0.372997 2.637163 0
M  V30 40 H 3.448529 -2.458728 -0.104572 0
M  V30 41 H 4.511247 -1.225126 -2.028677 0
M  V30 42 H 1.565456 2.372422 -2.751892 0
M  V30 43 H 1.255251 3.401356 0.185731 0
M  V30 44 H -0.594776 4.218251 1.515882 0
M  V30 45 H -1.490131 1.388435 -2.428060 0
M  V30 46 H -0.176310 -5.074640 0.308825 0
M  V30 47 H -1.354855 -5.970703 -1.587642 0
M  V30 48 H -2.596278 -4.410713 -3.123287 0
M  V30 49 H -2.592113 -2.010248 -2.674973 0
M  V30 50 H -1.377176 -1.111185 -0.726087 0
M  V30 END ATOM
M  V30 BEGIN BOND
M  V30 1 1 1 2
M  V30 2 1 2 3
M  V30 3 2 3 4
M  V30 4 1 4 5
M  V30 5 2 5 6
M  V30 6 1 6 7
M  V30 7 2 7 8
M  V30 8 1 8 9
M  V30 9 2 9 10
M  V30 10 1 10 11
M  V30 11 1 11 12
M  V30 12 1 12 13
M  V30 13 2 13 14
M  V30 14 1 14 15
M  V30 15 2 15 16
M  V30 16 1 16 17
M  V30 17 1 16 18
M  V30 18 1 18 19
M  V30 19 1 19 20
M  V30 20 1 19 21
M  V30 21 1 19 22
M  V30 22 2 18 23
M  V30 23 2 11 24
M  V30 24 1 6 25
M  V30 25 1 25 26
M  V30 26 2 26 27
M  V30 27 1 27 28
M  V30 28 2 28 29
M  V30 29 1 29 30
M  V30 30 2 30 31
M  V30 31 2 25 32
M  V30 32 1 32 33
M  V30 33 1 33 34
M  V30 34 2 34 2
M  V30 35 1 33 5
M  V30 36 1 24 7
M  V30 37 1 31 26
M  V30 38 1 23 13
M  V30 39 1 1 35
M  V30 40 1 1 36
M  V30 41 1 1 37
M  V30 42 1 3 38
M  V30 43 1 4 39
M  V30 44 1 8 40
M  V30 45 1 9 41
M  V30 46 1 12 42
M  V30 47 1 14 43
M  V30 48 1 15 44
M  V30 49 1 23 45
M  V30 50 1 27 46
M  V30 51 1 28 47
M  V30 52 1 29 48
M  V30 53 1 30 49
M  V30 54 1 31 50
M  V30 END BOND
M  V30 END CTAB
M  END
>  <Dataset>  (728) 
ChEMBL_Kinases

>  <Ligand_Instance>  (728) 
nan

>  <PDB_ID>  (728) 
nan

>  <Standardized_SMILES>  (728) 
Cc1ccc2c(-c3ccnc(Nc4ccc(Cl)c(C(F)(F)F)c4)n3)c(-c3ccccc3)nn2n1

>  <Name>  (728) 
nan

>  <Pocket>  (728) 
nan

>  <ATP_Site>  (728) 
nan

>  <Peripheral>  (728) 
nan

>  <Num_H_Atoms_ProtBoundConf>  (728) 
nan

>  <Num_Resolved_Atoms>  (728) 
nan

>  <Num_Not_Resolved_Atoms>  (728) 
nan

$$$$
CHEMBL185962
     RDKit          3D

  0  0  0  0  0  0  0  0  0  0999 V3000
M  V30 BEGIN CTAB
M  V30 COUNTS 28 31 0 0 0
M  V30 BEGIN ATOM
M  V30 1 N 1.296606 -3.439482 2.104305 0
M  V30 2 C 1.515990 -2.415600 3.040965 0
M  V30 3 N 1.941175 -2.723471 4.277601 0
M  V30 4 O 2.074732 -1.571697 4.865212 0
M  V30 5 N 1.757781 -0.618311 4.060419 0
M  V30 6 C 1.379840 -1.066248 2.848961 0
M  V30 7 C 0.934388 -0.239876 1.745710 0
M  V30 8 N 0.950574 1.099675 1.886827 0
M  V30 9 C 0.532038 1.738020 0.802388 0
M  V30 10 C 0.427487 3.090032 0.585446 0
M  V30 11 N -0.018267 3.470634 -0.628446 0
M  V30 12 C -0.342084 2.544820 -1.576216 0
M  V30 13 C -0.221684 1.196580 -1.314475 0
M  V30 14 C 0.232235 0.724171 -0.077993 0
M  V30 15 N 0.483316 -0.478191 0.521897 0
M  V30 16 C 0.234871 -1.717107 -0.103955 0
M  V30 17 C -1.076102 -1.665710 -0.954888 0
M  V30 18 C -0.877964 -2.648979 0.119284 0
M  V30 19 H 0.606432 -4.184641 2.371798 0
M  V30 20 H 0.609707 -4.207158 2.336708 0
M  V30 21 H 0.693569 3.792420 1.359910 0
M  V30 22 H -0.700478 2.800124 -2.556620 0
M  V30 23 H -0.455886 0.457134 -2.056982 0
M  V30 24 H 1.132005 -2.129363 -0.656533 0
M  V30 25 H -1.799214 -0.848891 -0.746662 0
M  V30 26 H -0.919737 -1.894782 -2.004143 0
M  V30 27 H -0.727447 -3.697155 -0.211424 0
M  V30 28 H -1.458279 -2.619935 1.063515 0
M  V30 END ATOM
M  V30 BEGIN BOND
M  V30 1 1 1 2
M  V30 2 2 2 3
M  V30 3 1 3 4
M  V30 4 1 4 5
M  V30 5 2 5 6
M  V30 6 1 6 7
M  V30 7 2 7 8
M  V30 8 1 8 9
M  V30 9 2 9 10
M  V30 10 1 10 11
M  V30 11 2 11 12
M  V30 12 1 12 13
M  V30 13 2 13 14
M  V30 14 1 14 15
M  V30 15 1 15 16
M  V30 16 1 16 17
M  V30 17 1 17 18
M  V30 18 1 6 2
M  V30 19 1 15 7
M  V30 20 1 18 16
M  V30 21 1 14 9
M  V30 22 1 1 19
M  V30 23 1 1 20
M  V30 24 1 10 21
M  V30 25 1 12 22
M  V30 26 1 13 23
M  V30 27 1 16 24
M  V30 28 1 17 25
M  V30 29 1 17 26
M  V30 30 1 18 27
M  V30 31 1 18 28
M  V30 END BOND
M  V30 END CTAB
M  END
>  <Dataset>  (729) 
ChEMBL_Kinases

>  <Ligand_Instance>  (729) 
nan

>  <PDB_ID>  (729) 
nan

>  <Standardized_SMILES>  (729) 
Nc1nonc1-c1nc2cnccc2n1C1CC1

>  <Name>  (729) 
nan

>  <Pocket>  (729) 
nan

>  <ATP_Site>  (729) 
nan

>  <Peripheral>  (729) 
nan

>  <Num_H_Atoms_ProtBoundConf>  (729) 
nan

>  <Num_Resolved_Atoms>  (729) 
nan

>  <Num_Not_Resolved_Atoms>  (729) 
nan

$$$$
CHEMBL185922
     RDKit          3D

  0  0  0  0  0  0  0  0  0  0999 V3000
M  V30 BEGIN CTAB
M  V30 COUNTS 40 43 0 0 0
M  V30 BEGIN ATOM
M  V30 1 O 0.258651 -2.791285 1.874552 0
M  V30 2 C -0.960217 -2.436077 1.707300 0
M  V30 3 N -1.295003 -2.396927 0.321059 0
M  V30 4 C -0.186012 -2.762553 -0.500579 0
M  V30 5 N 0.060225 -4.038611 -0.875300 0
M  V30 6 C 1.131232 -4.342896 -1.660939 0
M  V30 7 N 1.969135 -3.359036 -2.078944 0
M  V30 8 C 1.751050 -2.067684 -1.721123 0
M  V30 9 O 2.406444 -0.937860 -1.990107 0
M  V30 10 C 1.814313 0.066182 -1.421250 0
M  V30 11 C 2.233699 1.462942 -1.484943 0
M  V30 12 C 3.336811 1.865931 -2.178808 0
M  V30 13 C 3.713889 3.198188 -2.223799 0
M  V30 14 C 2.972795 4.161290 -1.559123 0
M  V30 15 F 3.314169 5.484668 -1.580977 0
M  V30 16 C 1.858016 3.784703 -0.852984 0
M  V30 17 C 1.523339 2.453150 -0.837043 0
M  V30 18 C 0.708074 -0.390423 -0.733826 0
M  V30 19 C 0.665334 -1.758592 -0.924596 0
M  V30 20 C -1.890595 -2.111762 2.799759 0
M  V30 21 C -2.457403 -0.758831 2.805577 0
M  V30 22 C -1.984724 -0.055457 4.078391 0
M  V30 23 C -1.766757 -1.245678 5.004593 0
M  V30 24 C -1.085335 -2.219743 4.080230 0
M  V30 25 H -2.281874 -2.115092 0.053311 0
M  V30 26 H 1.291093 -5.383333 -1.938321 0
M  V30 27 H 3.951566 1.164619 -2.714484 0
M  V30 28 H 4.581309 3.555570 -2.762895 0
M  V30 29 H 1.215990 4.467181 -0.301601 0
M  V30 30 H 0.630854 2.138491 -0.273840 0
M  V30 31 H -0.025366 0.153926 -0.141745 0
M  V30 32 H -2.674335 -2.908538 2.873580 0
M  V30 33 H -2.244424 -0.112474 1.961262 0
M  V30 34 H -3.571031 -0.823339 2.911980 0
M  V30 35 H -2.730819 0.614183 4.507263 0
M  V30 36 H -0.978744 0.413564 3.928886 0
M  V30 37 H -1.169040 -1.000030 5.888772 0
M  V30 38 H -2.762017 -1.684174 5.264888 0
M  V30 39 H -1.099557 -3.257765 4.476485 0
M  V30 40 H -0.021255 -1.874872 3.925167 0
M  V30 END ATOM
M  V30 BEGIN BOND
M  V30 1 2 1 2
M  V30 2 1 2 3
M  V30 3 1 3 4
M  V30 4 2 4 5
M  V30 5 1 5 6
M  V30 6 2 6 7
M  V30 7 1 7 8
M  V30 8 1 8 9
M  V30 9 1 9 10
M  V30 10 1 10 11
M  V30 11 2 11 12
M  V30 12 1 12 13
M  V30 13 2 13 14
M  V30 14 1 14 15
M  V30 15 1 14 16
M  V30 16 2 16 17
M  V30 17 2 10 18
M  V30 18 1 18 19
M  V30 19 1 2 20
M  V30 20 1 20 21
M  V30 21 1 21 22
M  V30 22 1 22 23
M  V30 23 1 23 24
M  V30 24 1 19 4
M  V30 25 1 24 20
M  V30 26 2 19 8
M  V30 27 1 17 11
M  V30 28 1 3 25
M  V30 29 1 6 26
M  V30 30 1 12 27
M  V30 31 1 13 28
M  V30 32 1 16 29
M  V30 33 1 17 30
M  V30 34 1 18 31
M  V30 35 1 20 32
M  V30 36 1 21 33
M  V30 37 1 21 34
M  V30 38 1 22 35
M  V30 39 1 22 36
M  V30 40 1 23 37
M  V30 41 1 23 38
M  V30 42 1 24 39
M  V30 43 1 24 40
M  V30 END BOND
M  V30 END CTAB
M  END
>  <Dataset>  (730) 
ChEMBL_Kinases

>  <Ligand_Instance>  (730) 
nan

>  <PDB_ID>  (730) 
nan

>  <Standardized_SMILES>  (730) 
O=C(Nc1ncnc2oc(-c3ccc(F)cc3)cc12)C1CCCC1

>  <Name>  (730) 
nan

>  <Pocket>  (730) 
nan

>  <ATP_Site>  (730) 
nan

>  <Peripheral>  (730) 
nan

>  <Num_H_Atoms_ProtBoundConf>  (730) 
nan

>  <Num_Resolved_Atoms>  (730) 
nan

>  <Num_Not_Resolved_Atoms>  (730) 
nan

$$$$
CHEMBL185910
     RDKit          3D

  0  0  0  0  0  0  0  0  0  0999 V3000
M  V30 BEGIN CTAB
M  V30 COUNTS 47 51 0 0 0
M  V30 BEGIN ATOM
M  V30 1 F 2.752331 -1.942115 3.688828 0
M  V30 2 C 3.629715 -2.029526 2.630036 0
M  V30 3 F 3.831864 -3.337113 2.285000 0
M  V30 4 F 4.824162 -1.453446 3.081051 0
M  V30 5 C 3.191184 -1.174547 1.484805 0
M  V30 6 C 3.723893 -1.378923 0.243356 0
M  V30 7 C 3.350676 -0.614832 -0.843480 0
M  V30 8 C 2.410666 0.393716 -0.694789 0
M  V30 9 C 1.873251 0.599221 0.559791 0
M  V30 10 C 0.872027 1.604599 0.935630 0
M  V30 11 N 1.069500 2.605549 1.811759 0
M  V30 12 N -0.032687 3.344326 1.934940 0
M  V30 13 N -0.351888 4.417100 2.651302 0
M  V30 14 C -1.588034 4.929016 2.538138 0
M  V30 15 C -2.601181 4.430443 1.717870 0
M  V30 16 C -2.247748 3.314819 0.982207 0
M  V30 17 C -0.966099 2.815543 1.124395 0
M  V30 18 C -0.436113 1.715562 0.475008 0
M  V30 19 C -1.004965 0.789214 -0.498901 0
M  V30 20 C -1.472148 1.216949 -1.719960 0
M  V30 21 C -1.980375 0.232026 -2.534951 0
M  V30 22 N -2.031610 -1.061472 -2.194021 0
M  V30 23 C -1.567622 -1.451439 -0.993329 0
M  V30 24 N -1.626511 -2.817348 -0.644544 0
M  V30 25 C -1.210256 -3.479130 0.534463 0
M  V30 26 C -1.347868 -4.836090 0.703868 0
M  V30 27 C -0.979729 -5.558924 1.794395 0
M  V30 28 C -0.405013 -4.876023 2.854332 0
M  V30 29 C -0.239431 -3.526013 2.751109 0
M  V30 30 C -0.634179 -2.855650 1.618577 0
M  V30 31 N -1.070867 -0.503821 -0.191659 0
M  V30 32 C 2.254114 -0.177497 1.659546 0
M  V30 33 H 4.472080 -2.159661 0.051709 0
M  V30 34 H 3.734424 -0.725870 -1.849882 0
M  V30 35 H 2.041729 1.052579 -1.465890 0
M  V30 36 H -1.857585 5.816651 3.128155 0
M  V30 37 H -3.569694 4.913033 1.693469 0
M  V30 38 H -2.989973 2.877696 0.324186 0
M  V30 39 H -1.414958 2.268657 -1.960865 0
M  V30 40 H -2.365218 0.531727 -3.522605 0
M  V30 41 H -2.047399 -3.473436 -1.369404 0
M  V30 42 H -1.797965 -5.423269 -0.106734 0
M  V30 43 H -1.123899 -6.626142 1.846008 0
M  V30 44 H -0.111804 -5.439260 3.717291 0
M  V30 45 H 0.215787 -3.023497 3.602057 0
M  V30 46 H -0.463071 -1.794267 1.629340 0
M  V30 47 H 1.878573 -0.073385 2.659989 0
M  V30 END ATOM
M  V30 BEGIN BOND
M  V30 1 1 1 2
M  V30 2 1 2 3
M  V30 3 1 2 4
M  V30 4 1 2 5
M  V30 5 2 5 6
M  V30 6 1 6 7
M  V30 7 2 7 8
M  V30 8 1 8 9
M  V30 9 1 9 10
M  V30 10 2 10 11
M  V30 11 1 11 12
M  V30 12 1 12 13
M  V30 13 2 13 14
M  V30 14 1 14 15
M  V30 15 2 15 16
M  V30 16 1 16 17
M  V30 17 2 17 18
M  V30 18 1 18 19
M  V30 19 2 19 20
M  V30 20 1 20 21
M  V30 21 2 21 22
M  V30 22 1 22 23
M  V30 23 1 23 24
M  V30 24 1 24 25
M  V30 25 2 25 26
M  V30 26 1 26 27
M  V30 27 2 27 28
M  V30 28 1 28 29
M  V30 29 2 29 30
M  V30 30 2 23 31
M  V30 31 2 9 32
M  V30 32 1 32 5
M  V30 33 1 18 10
M  V30 34 1 31 19
M  V30 35 1 17 12
M  V30 36 1 30 25
M  V30 37 1 6 33
M  V30 38 1 7 34
M  V30 39 1 8 35
M  V30 40 1 14 36
M  V30 41 1 15 37
M  V30 42 1 16 38
M  V30 43 1 20 39
M  V30 44 1 21 40
M  V30 45 1 24 41
M  V30 46 1 26 42
M  V30 47 1 27 43
M  V30 48 1 28 44
M  V30 49 1 29 45
M  V30 50 1 30 46
M  V30 51 1 32 47
M  V30 END BOND
M  V30 END CTAB
M  END
>  <Dataset>  (731) 
ChEMBL_Kinases

>  <Ligand_Instance>  (731) 
nan

>  <PDB_ID>  (731) 
nan

>  <Standardized_SMILES>  (731) 
FC(F)(F)c1cccc(-c2nn3ncccc3c2-c2ccnc(Nc3ccccc3)n2)c1

>  <Name>  (731) 
nan

>  <Pocket>  (731) 
nan

>  <ATP_Site>  (731) 
nan

>  <Peripheral>  (731) 
nan

>  <Num_H_Atoms_ProtBoundConf>  (731) 
nan

>  <Num_Resolved_Atoms>  (731) 
nan

>  <Num_Not_Resolved_Atoms>  (731) 
nan

$$$$
CHEMBL185731
     RDKit          3D

  0  0  0  0  0  0  0  0  0  0999 V3000
M  V30 BEGIN CTAB
M  V30 COUNTS 32 34 0 0 0
M  V30 BEGIN ATOM
M  V30 1 C -0.602959 -3.263966 2.604274 0
M  V30 2 C -1.119600 -2.722042 1.314614 0
M  V30 3 N -0.313932 -1.646052 0.781443 0
M  V30 4 C 0.741685 -1.705890 -0.057312 0
M  V30 5 C 1.310306 -2.915643 -0.621435 0
M  V30 6 N 0.923096 -4.199109 -0.438263 0
M  V30 7 O 1.665663 -5.021485 -1.102688 0
M  V30 8 N 2.562371 -4.312950 -1.742758 0
M  V30 9 C 2.378022 -3.010572 -1.473077 0
M  V30 10 N 3.164833 -1.974331 -1.995153 0
M  V30 11 N 1.176345 -0.473035 -0.282730 0
M  V30 12 C 0.423046 0.420406 0.396959 0
M  V30 13 C 0.438196 1.803902 0.516973 0
M  V30 14 C -0.486795 2.432305 1.306877 0
M  V30 15 C -0.556114 3.894016 1.501064 0
M  V30 16 O -1.370223 4.542421 0.576072 0
M  V30 17 C -1.418184 1.651545 1.967403 0
M  V30 18 C -1.451039 0.280834 1.862577 0
M  V30 19 C -0.517513 -0.351053 1.065616 0
M  V30 20 H 0.270227 -2.705354 2.996060 0
M  V30 21 H -1.440618 -3.299562 3.337256 0
M  V30 22 H -0.261237 -4.321828 2.500934 0
M  V30 23 H -2.198291 -2.410632 1.408483 0
M  V30 24 H -1.144827 -3.550459 0.575296 0
M  V30 25 H 2.974095 -0.963163 -1.975878 0
M  V30 26 H 4.070779 -2.146791 -2.480213 0
M  V30 27 H 1.172269 2.394000 -0.006023 0
M  V30 28 H 0.456231 4.347254 1.387937 0
M  V30 29 H -0.934620 4.152070 2.512517 0
M  V30 30 H -1.861889 3.928622 -0.016691 0
M  V30 31 H -2.157652 2.112325 2.594904 0
M  V30 32 H -2.193783 -0.310080 2.392335 0
M  V30 END ATOM
M  V30 BEGIN BOND
M  V30 1 1 1 2
M  V30 2 1 2 3
M  V30 3 1 3 4
M  V30 4 1 4 5
M  V30 5 2 5 6
M  V30 6 1 6 7
M  V30 7 1 7 8
M  V30 8 2 8 9
M  V30 9 1 9 10
M  V30 10 2 4 11
M  V30 11 1 11 12
M  V30 12 2 12 13
M  V30 13 1 13 14
M  V30 14 1 14 15
M  V30 15 1 15 16
M  V30 16 2 14 17
M  V30 17 1 17 18
M  V30 18 2 18 19
M  V30 19 1 19 3
M  V30 20 1 9 5
M  V30 21 1 19 12
M  V30 22 1 1 20
M  V30 23 1 1 21
M  V30 24 1 1 22
M  V30 25 1 2 23
M  V30 26 1 2 24
M  V30 27 1 10 25
M  V30 28 1 10 26
M  V30 29 1 13 27
M  V30 30 1 15 28
M  V30 31 1 15 29
M  V30 32 1 16 30
M  V30 33 1 17 31
M  V30 34 1 18 32
M  V30 END BOND
M  V30 END CTAB
M  END
>  <Dataset>  (732) 
ChEMBL_Kinases

>  <Ligand_Instance>  (732) 
nan

>  <PDB_ID>  (732) 
nan

>  <Standardized_SMILES>  (732) 
CCn1c(-c2nonc2N)nc2cc(CO)ccc21

>  <Name>  (732) 
nan

>  <Pocket>  (732) 
nan

>  <ATP_Site>  (732) 
nan

>  <Peripheral>  (732) 
nan

>  <Num_H_Atoms_ProtBoundConf>  (732) 
nan

>  <Num_Resolved_Atoms>  (732) 
nan

>  <Num_Not_Resolved_Atoms>  (732) 
nan

$$$$
CHEMBL185710
     RDKit          3D

  0  0  0  0  0  0  0  0  0  0999 V3000
M  V30 BEGIN CTAB
M  V30 COUNTS 27 29 0 0 0
M  V30 BEGIN ATOM
M  V30 1 C -0.846676 -2.734253 2.234447 0
M  V30 2 C -0.183704 -1.401714 2.607649 0
M  V30 3 N -0.100792 -0.567739 1.400499 0
M  V30 4 C 0.926147 -0.553303 0.536890 0
M  V30 5 C 2.158153 -1.329038 0.584000 0
M  V30 6 N 2.587885 -2.239437 1.474370 0
M  V30 7 O 3.750256 -2.696347 1.143254 0
M  V30 8 N 4.149727 -2.131162 0.042994 0
M  V30 9 C 3.173439 -1.268234 -0.333391 0
M  V30 10 N 3.291849 -0.478391 -1.509560 0
M  V30 11 N 0.682642 0.325846 -0.463790 0
M  V30 12 C -0.534648 0.893713 -0.239087 0
M  V30 13 C -1.331449 1.831347 -0.864980 0
M  V30 14 C -2.555368 2.176970 -0.331289 0
M  V30 15 N -2.976656 1.596876 0.807226 0
M  V30 16 C -2.226133 0.685578 1.435178 0
M  V30 17 C -0.989958 0.312060 0.929517 0
M  V30 18 H -0.105404 -3.476429 1.895943 0
M  V30 19 H -1.479591 -3.088487 3.059205 0
M  V30 20 H -1.512465 -2.558898 1.346387 0
M  V30 21 H -0.886902 -0.861374 3.276580 0
M  V30 22 H 0.808744 -1.576257 3.021274 0
M  V30 23 H 3.488575 0.508810 -1.796896 0
M  V30 24 H 3.161527 -0.909330 -2.462856 0
M  V30 25 H -0.907450 2.238246 -1.769166 0
M  V30 26 H -3.098151 2.917097 -0.896162 0
M  V30 27 H -2.597936 0.239488 2.350000 0
M  V30 END ATOM
M  V30 BEGIN BOND
M  V30 1 1 1 2
M  V30 2 1 2 3
M  V30 3 1 3 4
M  V30 4 1 4 5
M  V30 5 2 5 6
M  V30 6 1 6 7
M  V30 7 1 7 8
M  V30 8 2 8 9
M  V30 9 1 9 10
M  V30 10 2 4 11
M  V30 11 1 11 12
M  V30 12 2 12 13
M  V30 13 1 13 14
M  V30 14 2 14 15
M  V30 15 1 15 16
M  V30 16 2 16 17
M  V30 17 1 17 3
M  V30 18 1 9 5
M  V30 19 1 17 12
M  V30 20 1 1 18
M  V30 21 1 1 19
M  V30 22 1 1 20
M  V30 23 1 2 21
M  V30 24 1 2 22
M  V30 25 1 10 23
M  V30 26 1 10 24
M  V30 27 1 13 25
M  V30 28 1 14 26
M  V30 29 1 16 27
M  V30 END BOND
M  V30 END CTAB
M  END
>  <Dataset>  (733) 
ChEMBL_Kinases

>  <Ligand_Instance>  (733) 
nan

>  <PDB_ID>  (733) 
nan

>  <Standardized_SMILES>  (733) 
CCn1c(-c2nonc2N)nc2ccncc21

>  <Name>  (733) 
nan

>  <Pocket>  (733) 
nan

>  <ATP_Site>  (733) 
nan

>  <Peripheral>  (733) 
nan

>  <Num_H_Atoms_ProtBoundConf>  (733) 
nan

>  <Num_Resolved_Atoms>  (733) 
nan

>  <Num_Not_Resolved_Atoms>  (733) 
nan

$$$$
CHEMBL185658
     RDKit          3D

  0  0  0  0  0  0  0  0  0  0999 V3000
M  V30 BEGIN CTAB
M  V30 COUNTS 54 57 0 0 0
M  V30 BEGIN ATOM
M  V30 1 C 2.392111 -3.133113 5.201043 0
M  V30 2 C 2.270471 -2.549465 3.840802 0
M  V30 3 O 1.299839 -1.766663 3.566827 0
M  V30 4 N 3.152800 -2.775126 2.762970 0
M  V30 5 C 2.734067 -2.057768 1.608569 0
M  V30 6 C 3.244815 -0.784434 1.484286 0
M  V30 7 C 2.939733 0.041012 0.430935 0
M  V30 8 C 2.094524 -0.354040 -0.579829 0
M  V30 9 C 1.580569 0.320657 -1.808283 0
M  V30 10 N 0.299873 0.964809 -1.572848 0
M  V30 11 C 0.230213 2.115980 -0.755884 0
M  V30 12 N 1.296511 2.873717 -0.475894 0
M  V30 13 N 0.950430 3.880215 0.302832 0
M  V30 14 C -0.347304 3.852277 0.583255 0
M  V30 15 C -1.278310 4.587706 1.300338 0
M  V30 16 C -2.612800 4.203642 1.336319 0
M  V30 17 C -3.005259 3.066864 0.642134 0
M  V30 18 C -2.093408 2.298766 -0.092303 0
M  V30 19 O -2.713568 1.245518 -0.673217 0
M  V30 20 C -2.514150 -0.104360 -0.444111 0
M  V30 21 C -1.665286 -0.776206 0.409880 0
M  V30 22 C -1.659565 -2.150867 0.446749 0
M  V30 23 C -2.501779 -2.874099 -0.368712 0
M  V30 24 S -2.432811 -4.620470 -0.270670 0
M  V30 25 C -1.251952 -5.254398 -1.464306 0
M  V30 26 O -1.925856 -5.045092 1.092237 0
M  V30 27 O -3.756496 -5.272054 -0.477095 0
M  V30 28 C -3.369332 -2.237935 -1.239823 0
M  V30 29 C -3.371192 -0.837954 -1.273579 0
M  V30 30 C -0.792571 2.738903 -0.085342 0
M  V30 31 C 1.586055 -1.654890 -0.433117 0
M  V30 32 C 1.883095 -2.494159 0.617421 0
M  V30 33 H 1.849505 -2.428662 5.898719 0
M  V30 34 H 3.421865 -3.206802 5.569655 0
M  V30 35 H 1.888636 -4.122046 5.300285 0
M  V30 36 H 3.965007 -3.406381 2.926962 0
M  V30 37 H 3.924150 -0.306270 2.183879 0
M  V30 38 H 3.315463 1.035093 0.286730 0
M  V30 39 H 1.576399 -0.427534 -2.616717 0
M  V30 40 H 2.357453 1.118346 -2.043414 0
M  V30 41 H -0.429365 0.450193 -2.099981 0
M  V30 42 H 2.302100 2.864040 -0.726580 0
M  V30 43 H -0.831456 5.456471 1.799323 0
M  V30 44 H -3.268282 4.831413 1.916169 0
M  V30 45 H -4.066732 2.888265 0.758360 0
M  V30 46 H -1.067897 -0.085333 0.983839 0
M  V30 47 H -0.964339 -2.599582 1.144611 0
M  V30 48 H -1.491545 -4.799667 -2.450231 0
M  V30 49 H -0.221289 -4.950106 -1.204390 0
M  V30 50 H -1.340649 -6.334183 -1.578104 0
M  V30 51 H -3.999128 -2.864506 -1.847608 0
M  V30 52 H -4.092031 -0.470936 -1.993495 0
M  V30 53 H 0.902213 -2.124110 -1.145174 0
M  V30 54 H 1.497415 -3.488130 0.734275 0
M  V30 END ATOM
M  V30 BEGIN BOND
M  V30 1 1 1 2
M  V30 2 2 2 3
M  V30 3 1 2 4
M  V30 4 1 4 5
M  V30 5 2 5 6
M  V30 6 1 6 7
M  V30 7 2 7 8
M  V30 8 1 8 9
M  V30 9 1 9 10
M  V30 10 1 10 11
M  V30 11 1 11 12
M  V30 12 1 12 13
M  V30 13 2 13 14
M  V30 14 1 14 15
M  V30 15 2 15 16
M  V30 16 1 16 17
M  V30 17 2 17 18
M  V30 18 1 18 19
M  V30 19 1 19 20
M  V30 20 2 20 21
M  V30 21 1 21 22
M  V30 22 2 22 23
M  V30 23 1 23 24
M  V30 24 1 24 25
M  V30 25 2 24 26
M  V30 26 2 24 27
M  V30 27 1 23 28
M  V30 28 2 28 29
M  V30 29 1 18 30
M  V30 30 1 8 31
M  V30 31 2 31 32
M  V30 32 1 32 5
M  V30 33 2 30 11
M  V30 34 1 30 14
M  V30 35 1 29 20
M  V30 36 1 1 33
M  V30 37 1 1 34
M  V30 38 1 1 35
M  V30 39 1 4 36
M  V30 40 1 6 37
M  V30 41 1 7 38
M  V30 42 1 9 39
M  V30 43 1 9 40
M  V30 44 1 10 41
M  V30 45 1 12 42
M  V30 46 1 15 43
M  V30 47 1 16 44
M  V30 48 1 17 45
M  V30 49 1 21 46
M  V30 50 1 22 47
M  V30 51 1 25 48
M  V30 52 1 25 49
M  V30 53 1 25 50
M  V30 54 1 28 51
M  V30 55 1 29 52
M  V30 56 1 31 53
M  V30 57 1 32 54
M  V30 END BOND
M  V30 END CTAB
M  END
>  <Dataset>  (734) 
ChEMBL_Kinases

>  <Ligand_Instance>  (734) 
nan

>  <PDB_ID>  (734) 
nan

>  <Standardized_SMILES>  (734) 
CC(=O)Nc1ccc(CNc2[nH]nc3cccc(Oc4ccc(S(C)(=O)=O)cc4)c23)cc1

>  <Name>  (734) 
nan

>  <Pocket>  (734) 
nan

>  <ATP_Site>  (734) 
nan

>  <Peripheral>  (734) 
nan

>  <Num_H_Atoms_ProtBoundConf>  (734) 
nan

>  <Num_Resolved_Atoms>  (734) 
nan

>  <Num_Not_Resolved_Atoms>  (734) 
nan

$$$$
CHEMBL185627
     RDKit          3D

  0  0  0  0  0  0  0  0  0  0999 V3000
M  V30 BEGIN CTAB
M  V30 COUNTS 23 23 0 0 0
M  V30 BEGIN ATOM
M  V30 1 C 0.079202 -3.967208 1.004178 0
M  V30 2 C 0.161422 -2.865818 2.044289 0
M  V30 3 O 0.252761 -1.633511 1.345648 0
M  V30 4 C 0.343709 -0.412952 1.975323 0
M  V30 5 O 0.334729 -0.539973 3.227867 0
M  V30 6 C 0.438606 0.867394 1.276000 0
M  V30 7 C 0.433308 0.807753 -0.103702 0
M  V30 8 C 0.524216 2.034065 -0.754571 0
M  V30 9 N 0.526565 2.077286 -2.178530 0 CHG=1 VAL=4
M  V30 10 O 0.447218 1.017713 -2.833237 0
M  V30 11 O 0.619316 3.327154 -2.767711 0 CHG=-1 VAL=1
M  V30 12 C 0.613283 3.224310 -0.048112 0
M  V30 13 C 0.611879 3.194016 1.328406 0
M  V30 14 C 0.523904 2.006533 2.050759 0
M  V30 15 Cl 0.518886 1.924878 3.799252 0
M  V30 16 H 0.656522 -3.721115 0.089423 0
M  V30 17 H -0.971256 -4.085468 0.664386 0
M  V30 18 H 0.405816 -4.935877 1.404045 0
M  V30 19 H 1.020221 -3.085664 2.678396 0
M  V30 20 H -0.754093 -2.925863 2.657786 0
M  V30 21 H 0.362915 -0.133172 -0.623525 0
M  V30 22 H 0.685206 4.194179 -0.535722 0
M  V30 23 H 0.680312 4.108181 1.908465 0
M  V30 END ATOM
M  V30 BEGIN BOND
M  V30 1 1 1 2
M  V30 2 1 2 3
M  V30 3 1 3 4
M  V30 4 2 4 5
M  V30 5 1 4 6
M  V30 6 2 6 7
M  V30 7 1 7 8
M  V30 8 1 8 9
M  V30 9 2 9 10
M  V30 10 1 9 11
M  V30 11 2 8 12
M  V30 12 1 12 13
M  V30 13 2 13 14
M  V30 14 1 14 15
M  V30 15 1 14 6
M  V30 16 1 1 16
M  V30 17 1 1 17
M  V30 18 1 1 18
M  V30 19 1 2 19
M  V30 20 1 2 20
M  V30 21 1 7 21
M  V30 22 1 12 22
M  V30 23 1 13 23
M  V30 END BOND
M  V30 END CTAB
M  END
>  <Dataset>  (735) 
ChEMBL_Kinases

>  <Ligand_Instance>  (735) 
nan

>  <PDB_ID>  (735) 
nan

>  <Standardized_SMILES>  (735) 
CCOC(=O)c1cc([N+](=O)[O-])ccc1Cl

>  <Name>  (735) 
nan

>  <Pocket>  (735) 
nan

>  <ATP_Site>  (735) 
nan

>  <Peripheral>  (735) 
nan

>  <Num_H_Atoms_ProtBoundConf>  (735) 
nan

>  <Num_Resolved_Atoms>  (735) 
nan

>  <Num_Not_Resolved_Atoms>  (735) 
nan

$$$$
CHEMBL185573
     RDKit          3D

  0  0  0  0  0  0  0  0  0  0999 V3000
M  V30 BEGIN CTAB
M  V30 COUNTS 39 42 0 0 0
M  V30 BEGIN ATOM
M  V30 1 C -0.504876 -5.500394 3.265877 0
M  V30 2 C -0.137007 -4.069352 3.192604 0
M  V30 3 C 0.254964 -3.405511 4.330271 0
M  V30 4 C 0.595033 -2.070804 4.234303 0
M  V30 5 C 0.552143 -1.387290 3.030995 0
M  V30 6 C 0.166993 -2.008702 1.868635 0
M  V30 7 N 0.074637 -1.441064 0.552841 0
M  V30 8 C -1.011711 -0.782531 -0.101216 0
M  V30 9 C -1.118262 0.477463 -0.495276 0
M  V30 10 C -0.247880 1.642452 -0.440646 0
M  V30 11 C -0.660191 2.930100 -0.076643 0
M  V30 12 N 0.388446 3.768272 -0.142650 0
M  V30 13 C 1.503040 3.114916 -0.535439 0
M  V30 14 C 2.805449 3.503595 -0.758853 0
M  V30 15 C 3.752255 2.575693 -1.177369 0
M  V30 16 C 3.331238 1.254235 -1.357959 0
M  V30 17 C 2.037380 0.905296 -1.127793 0
M  V30 18 C 1.089763 1.813299 -0.712727 0
M  V30 19 C -2.453980 0.617002 -1.118839 0
M  V30 20 O -3.003643 1.644867 -1.643742 0
M  V30 21 N -3.141498 -0.625430 -1.077041 0
M  V30 22 C -2.232387 -1.517313 -0.433449 0
M  V30 23 O -2.528383 -2.721608 -0.230687 0
M  V30 24 C -0.169253 -3.358972 2.008663 0
M  V30 25 H -1.161840 -5.685834 4.165695 0
M  V30 26 H -0.938418 -5.884942 2.342741 0
M  V30 27 H 0.434249 -6.072974 3.480722 0
M  V30 28 H 0.283983 -3.946704 5.265301 0
M  V30 29 H 0.911108 -1.514042 5.119826 0
M  V30 30 H 0.813474 -0.336590 2.918718 0
M  V30 31 H 1.061518 -1.703133 0.319022 0
M  V30 32 H -1.682989 3.207257 0.216346 0
M  V30 33 H 0.345349 4.806901 0.084953 0
M  V30 34 H 3.088697 4.540139 -0.606951 0
M  V30 35 H 4.776772 2.882338 -1.353986 0
M  V30 36 H 4.127259 0.598152 -1.685092 0
M  V30 37 H 1.767167 -0.125651 -1.288406 0
M  V30 38 H -4.101569 -0.849272 -1.435369 0
M  V30 39 H -0.480067 -3.914670 1.148734 0
M  V30 END ATOM
M  V30 BEGIN BOND
M  V30 1 1 1 2
M  V30 2 2 2 3
M  V30 3 1 3 4
M  V30 4 2 4 5
M  V30 5 1 5 6
M  V30 6 1 6 7
M  V30 7 1 7 8
M  V30 8 2 8 9
M  V30 9 1 9 10
M  V30 10 2 10 11
M  V30 11 1 11 12
M  V30 12 1 12 13
M  V30 13 2 13 14
M  V30 14 1 14 15
M  V30 15 2 15 16
M  V30 16 1 16 17
M  V30 17 2 17 18
M  V30 18 1 9 19
M  V30 19 2 19 20
M  V30 20 1 19 21
M  V30 21 1 21 22
M  V30 22 2 22 23
M  V30 23 2 6 24
M  V30 24 1 24 2
M  V30 25 1 22 8
M  V30 26 1 18 10
M  V30 27 1 18 13
M  V30 28 1 1 25
M  V30 29 1 1 26
M  V30 30 1 1 27
M  V30 31 1 3 28
M  V30 32 1 4 29
M  V30 33 1 5 30
M  V30 34 1 7 31
M  V30 35 1 11 32
M  V30 36 1 12 33
M  V30 37 1 14 34
M  V30 38 1 15 35
M  V30 39 1 16 36
M  V30 40 1 17 37
M  V30 41 1 21 38
M  V30 42 1 24 39
M  V30 END BOND
M  V30 END CTAB
M  END
>  <Dataset>  (736) 
ChEMBL_Kinases

>  <Ligand_Instance>  (736) 
nan

>  <PDB_ID>  (736) 
nan

>  <Standardized_SMILES>  (736) 
Cc1cccc(NC2=C(c3c[nH]c4ccccc34)C(=O)NC2=O)c1

>  <Name>  (736) 
nan

>  <Pocket>  (736) 
nan

>  <ATP_Site>  (736) 
nan

>  <Peripheral>  (736) 
nan

>  <Num_H_Atoms_ProtBoundConf>  (736) 
nan

>  <Num_Resolved_Atoms>  (736) 
nan

>  <Num_Not_Resolved_Atoms>  (736) 
nan

$$$$
CHEMBL185567
     RDKit          3D

  0  0  0  0  0  0  0  0  0  0999 V3000
M  V30 BEGIN CTAB
M  V30 COUNTS 51 54 0 0 0
M  V30 BEGIN ATOM
M  V30 1 C 0.775278 -6.347839 1.943181 0
M  V30 2 C 0.779759 -4.875862 1.810859 0
M  V30 3 C 1.604160 -4.059618 2.559670 0
M  V30 4 C 1.556224 -2.689443 2.384455 0
M  V30 5 C 0.695984 -2.111091 1.470236 0
M  V30 6 N 0.628303 -0.700666 1.271438 0
M  V30 7 C 1.431683 -0.019226 0.325638 0
M  V30 8 O 2.233498 -0.706235 -0.359085 0
M  V30 9 C 1.391862 1.420439 0.093100 0
M  V30 10 C 2.237070 1.937861 -0.863950 0
M  V30 11 C 2.182982 3.305439 -1.068179 0
M  V30 12 N 1.352112 4.089964 -0.372444 0
M  V30 13 C 0.501883 3.616773 0.581345 0
M  V30 14 N -0.374837 4.503045 1.304036 0
M  V30 15 C -1.227417 3.846865 2.305893 0
M  V30 16 C -1.996058 4.840532 3.128815 0
M  V30 17 O -1.256948 6.032200 3.187876 0
M  V30 18 C -1.216416 6.647357 1.937503 0
M  V30 19 C -0.317405 5.910485 0.967614 0
M  V30 20 C 0.555495 2.267466 0.782562 0
M  V30 21 C -0.136295 -2.929703 0.713735 0
M  V30 22 C -0.086537 -4.315664 0.892234 0
M  V30 23 N -0.982020 -5.027884 0.062523 0
M  V30 24 C -0.898471 -6.022526 -0.946079 0
M  V30 25 C -0.765268 -5.570283 -2.240351 0
M  V30 26 C -0.674771 -6.445155 -3.301811 0
M  V30 27 Cl -0.503602 -5.910297 -4.971591 0
M  V30 28 N -0.718398 -7.780107 -3.060906 0
M  V30 29 C -0.849794 -8.220893 -1.783393 0
M  V30 30 N -0.938156 -7.366402 -0.746964 0
M  V30 31 H 1.394699 -6.877399 1.202560 0
M  V30 32 H -0.241894 -6.777619 1.900679 0
M  V30 33 H 1.170356 -6.672532 2.949128 0
M  V30 34 H 2.282182 -4.535299 3.282016 0
M  V30 35 H 2.212963 -2.050123 2.982030 0
M  V30 36 H -0.043723 -0.149245 1.849876 0
M  V30 37 H 2.921940 1.348790 -1.448365 0
M  V30 38 H 2.808795 3.811493 -1.800056 0
M  V30 39 H -0.553410 3.238832 2.970622 0
M  V30 40 H -1.963756 3.207576 1.771634 0
M  V30 41 H -3.040181 5.004770 2.782392 0
M  V30 42 H -2.100633 4.521641 4.192547 0
M  V30 43 H -2.251360 6.755295 1.533102 0
M  V30 44 H -0.745844 7.644021 2.096038 0
M  V30 45 H -0.762705 6.014322 -0.052045 0
M  V30 46 H 0.723083 6.311178 0.985935 0
M  V30 47 H -0.108343 1.862936 1.533724 0
M  V30 48 H -0.807845 -2.442736 -0.003234 0
M  V30 49 H -2.026389 -4.851083 0.126096 0
M  V30 50 H -0.723737 -4.532430 -2.505567 0
M  V30 51 H -0.880395 -9.278630 -1.632414 0
M  V30 END ATOM
M  V30 BEGIN BOND
M  V30 1 1 1 2
M  V30 2 2 2 3
M  V30 3 1 3 4
M  V30 4 2 4 5
M  V30 5 1 5 6
M  V30 6 1 6 7
M  V30 7 2 7 8
M  V30 8 1 7 9
M  V30 9 2 9 10
M  V30 10 1 10 11
M  V30 11 2 11 12
M  V30 12 1 12 13
M  V30 13 1 13 14
M  V30 14 1 14 15
M  V30 15 1 15 16
M  V30 16 1 16 17
M  V30 17 1 17 18
M  V30 18 1 18 19
M  V30 19 2 13 20
M  V30 20 1 5 21
M  V30 21 2 21 22
M  V30 22 1 22 23
M  V30 23 1 23 24
M  V30 24 2 24 25
M  V30 25 1 25 26
M  V30 26 1 26 27
M  V30 27 2 26 28
M  V30 28 1 28 29
M  V30 29 2 29 30
M  V30 30 1 22 2
M  V30 31 1 30 24
M  V30 32 1 20 9
M  V30 33 1 19 14
M  V30 34 1 1 31
M  V30 35 1 1 32
M  V30 36 1 1 33
M  V30 37 1 3 34
M  V30 38 1 4 35
M  V30 39 1 6 36
M  V30 40 1 10 37
M  V30 41 1 11 38
M  V30 42 1 15 39
M  V30 43 1 15 40
M  V30 44 1 16 41
M  V30 45 1 16 42
M  V30 46 1 18 43
M  V30 47 1 18 44
M  V30 48 1 19 45
M  V30 49 1 19 46
M  V30 50 1 20 47
M  V30 51 1 21 48
M  V30 52 1 23 49
M  V30 53 1 25 50
M  V30 54 1 29 51
M  V30 END BOND
M  V30 END CTAB
M  END
>  <Dataset>  (737) 
ChEMBL_Kinases

>  <Ligand_Instance>  (737) 
nan

>  <PDB_ID>  (737) 
nan

>  <Standardized_SMILES>  (737) 
Cc1ccc(NC(=O)c2ccnc(N3CCOCC3)c2)cc1Nc1cc(Cl)ncn1

>  <Name>  (737) 
nan

>  <Pocket>  (737) 
nan

>  <ATP_Site>  (737) 
nan

>  <Peripheral>  (737) 
nan

>  <Num_H_Atoms_ProtBoundConf>  (737) 
nan

>  <Num_Resolved_Atoms>  (737) 
nan

>  <Num_Not_Resolved_Atoms>  (737) 
nan

$$$$
CHEMBL184685
     RDKit          3D

  0  0  0  0  0  0  0  0  0  0999 V3000
M  V30 BEGIN CTAB
M  V30 COUNTS 50 53 0 0 0
M  V30 BEGIN ATOM
M  V30 1 C -0.896755 -5.691968 2.936218 0
M  V30 2 O -0.703308 -5.138546 1.660430 0
M  V30 3 C 0.274205 -4.245641 1.303590 0
M  V30 4 C 1.237392 -3.741681 2.151056 0
M  V30 5 C 2.198117 -2.836572 1.714100 0
M  V30 6 N 3.131846 -2.346442 2.557175 0
M  V30 7 C 4.065015 -1.460205 2.138207 0
M  V30 8 N 4.069839 -1.057875 0.869830 0
M  V30 9 C 3.169784 -1.504101 -0.028095 0
M  V30 10 N 3.052733 -1.150116 -1.401177 0
M  V30 11 C 2.040291 -0.177442 -1.651219 0
M  V30 12 C 1.255789 0.338527 -0.640777 0
M  V30 13 C 0.260103 1.280670 -0.856355 0
M  V30 14 N -0.558016 1.817733 0.172788 0
M  V30 15 C -0.523003 2.925364 1.058868 0
M  V30 16 O 0.507088 3.623862 0.892522 0
M  V30 17 C -1.626487 3.105134 1.999326 0
M  V30 18 C -2.705744 2.250529 2.131936 0
M  V30 19 C -3.668006 2.572053 3.069486 0
M  V30 20 C -3.536961 3.710652 3.835541 0
M  V30 21 C -2.448228 4.580235 3.707268 0
M  V30 22 C -1.469985 4.259828 2.759491 0
M  V30 23 C 0.049138 1.723439 -2.165973 0
M  V30 24 Cl -1.188066 2.909024 -2.494378 0
M  V30 25 C 0.825490 1.223047 -3.216572 0
M  V30 26 C 1.796490 0.287804 -2.922278 0
M  V30 27 F 2.536260 -0.184421 -3.942794 0
M  V30 28 C 2.209660 -2.415817 0.402092 0
M  V30 29 C 1.239756 -2.930733 -0.429557 0
M  V30 30 C 0.280237 -3.828662 -0.011346 0
M  V30 31 O -0.664423 -4.304158 -0.899266 0
M  V30 32 C -0.764857 -3.961250 -2.240883 0
M  V30 33 H -1.297437 -4.922794 3.611209 0
M  V30 34 H -1.635770 -6.518130 2.804606 0
M  V30 35 H 0.029717 -6.174641 3.309439 0
M  V30 36 H 1.235919 -4.067041 3.186168 0
M  V30 37 H 4.833689 -1.033951 2.761810 0
M  V30 38 H 3.602519 -1.508157 -2.211366 0
M  V30 39 H 1.386805 0.022719 0.384128 0
M  V30 40 H -1.304419 1.093800 0.112814 0
M  V30 41 H -2.746837 1.378495 1.501263 0
M  V30 42 H -4.498058 1.884968 3.148028 0
M  V30 43 H -4.355604 3.881021 4.554024 0
M  V30 44 H -2.407558 5.457761 4.340611 0
M  V30 45 H -0.646894 4.950563 2.686774 0
M  V30 46 H 0.609651 1.609420 -4.204203 0
M  V30 47 H 1.240617 -2.611712 -1.447643 0
M  V30 48 H -0.245199 -4.720601 -2.842356 0
M  V30 49 H -1.856693 -4.073223 -2.508707 0
M  V30 50 H -0.488324 -2.922205 -2.476590 0
M  V30 END ATOM
M  V30 BEGIN BOND
M  V30 1 1 1 2
M  V30 2 1 2 3
M  V30 3 2 3 4
M  V30 4 1 4 5
M  V30 5 2 5 6
M  V30 6 1 6 7
M  V30 7 2 7 8
M  V30 8 1 8 9
M  V30 9 1 9 10
M  V30 10 1 10 11
M  V30 11 2 11 12
M  V30 12 1 12 13
M  V30 13 1 13 14
M  V30 14 1 14 15
M  V30 15 2 15 16
M  V30 16 1 15 17
M  V30 17 2 17 18
M  V30 18 1 18 19
M  V30 19 2 19 20
M  V30 20 1 20 21
M  V30 21 2 21 22
M  V30 22 2 13 23
M  V30 23 1 23 24
M  V30 24 1 23 25
M  V30 25 2 25 26
M  V30 26 1 26 27
M  V30 27 2 9 28
M  V30 28 1 28 29
M  V30 29 2 29 30
M  V30 30 1 30 31
M  V30 31 1 31 32
M  V30 32 1 30 3
M  V30 33 1 28 5
M  V30 34 1 26 11
M  V30 35 1 22 17
M  V30 36 1 1 33
M  V30 37 1 1 34
M  V30 38 1 1 35
M  V30 39 1 4 36
M  V30 40 1 7 37
M  V30 41 1 10 38
M  V30 42 1 12 39
M  V30 43 1 14 40
M  V30 44 1 18 41
M  V30 45 1 19 42
M  V30 46 1 20 43
M  V30 47 1 21 44
M  V30 48 1 22 45
M  V30 49 1 25 46
M  V30 50 1 29 47
M  V30 51 1 32 48
M  V30 52 1 32 49
M  V30 53 1 32 50
M  V30 END BOND
M  V30 END CTAB
M  END
>  <Dataset>  (738) 
ChEMBL_Kinases

>  <Ligand_Instance>  (738) 
nan

>  <PDB_ID>  (738) 
nan

>  <Standardized_SMILES>  (738) 
COc1cc2ncnc(Nc3cc(NC(=O)c4ccccc4)c(Cl)cc3F)c2cc1OC

>  <Name>  (738) 
nan

>  <Pocket>  (738) 
nan

>  <ATP_Site>  (738) 
nan

>  <Peripheral>  (738) 
nan

>  <Num_H_Atoms_ProtBoundConf>  (738) 
nan

>  <Num_Resolved_Atoms>  (738) 
nan

>  <Num_Not_Resolved_Atoms>  (738) 
nan

$$$$
CHEMBL184712
     RDKit          3D

  0  0  0  0  0  0  0  0  0  0999 V3000
M  V30 BEGIN CTAB
M  V30 COUNTS 68 72 0 0 0
M  V30 BEGIN ATOM
M  V30 1 C 3.214701 -3.595936 3.557313 0
M  V30 2 C 3.362803 -2.745761 2.344969 0
M  V30 3 C 4.260777 -3.100672 1.358633 0
M  V30 4 C 4.332261 -2.251095 0.267912 0
M  V30 5 C 3.586178 -1.105261 0.106386 0
M  V30 6 N 3.710318 -0.277431 -1.044512 0
M  V30 7 C 2.785338 -0.697744 -2.041816 0
M  V30 8 O 2.091978 -1.692207 -1.655804 0
M  V30 9 C 2.660647 -0.045269 -3.358873 0
M  V30 10 C 3.422620 1.020744 -3.784433 0
M  V30 11 C 3.221596 1.553880 -5.033540 0
M  V30 12 F 3.993626 2.594156 -5.400312 0
M  V30 13 C 2.255568 1.007115 -5.839139 0
M  V30 14 C 1.467452 -0.063027 -5.453097 0
M  V30 15 N 0.454558 -0.640246 -6.289415 0
M  V30 16 C -0.408548 -1.739389 -5.952082 0
M  V30 17 C -0.888754 -2.238216 -7.293734 0
M  V30 18 C -0.992444 -0.953143 -8.097095 0
M  V30 19 C 0.198439 -0.125273 -7.642639 0
M  V30 20 C 1.682813 -0.594131 -4.181869 0
M  V30 21 C 2.684032 -0.766396 1.117662 0
M  V30 22 C 2.617896 -1.618068 2.202278 0
M  V30 23 N 1.660866 -1.195081 3.196935 0
M  V30 24 C 0.414434 -1.777924 2.883472 0
M  V30 25 O 0.465952 -2.500419 1.836833 0
M  V30 26 C -0.820903 -1.601752 3.642862 0
M  V30 27 C -0.943800 -0.834460 4.781694 0
M  V30 28 C -2.147820 -0.719338 5.443416 0
M  V30 29 C -3.286793 -1.364068 5.000897 0
M  V30 30 O -4.553055 -1.370515 5.515751 0
M  V30 31 C -5.032456 -0.712529 6.642292 0
M  V30 32 C -4.924433 0.763374 6.605311 0
M  V30 33 C -4.533024 1.615745 5.595756 0
M  V30 34 C -4.509190 2.979948 5.775208 0
M  V30 35 C -4.875491 3.565882 6.973294 0
M  V30 36 C -5.258424 2.671999 7.949610 0
M  V30 37 N -5.287109 1.336804 7.790334 0
M  V30 38 C -3.152153 -2.141079 3.843499 0
M  V30 39 C -1.946232 -2.254812 3.182907 0
M  V30 40 H 4.152685 -3.434985 4.161255 0
M  V30 41 H 2.376442 -3.226821 4.168723 0
M  V30 42 H 3.094647 -4.648044 3.243465 0
M  V30 43 H 4.868258 -3.992554 1.443387 0
M  V30 44 H 5.049072 -2.538989 -0.515267 0
M  V30 45 H 4.339701 0.538151 -1.249481 0
M  V30 46 H 4.169987 1.401503 -3.089484 0
M  V30 47 H 2.078015 1.414912 -6.836739 0
M  V30 48 H 0.089107 -2.528259 -5.350140 0
M  V30 49 H -1.291828 -1.330553 -5.412080 0
M  V30 50 H -0.116826 -2.864605 -7.756151 0
M  V30 51 H -1.868077 -2.756208 -7.229326 0
M  V30 52 H -0.924221 -1.198596 -9.171200 0
M  V30 53 H -1.924885 -0.426975 -7.854726 0
M  V30 54 H 1.110868 -0.357853 -8.225365 0
M  V30 55 H -0.048348 0.954500 -7.629916 0
M  V30 56 H 1.060311 -1.436731 -3.882673 0
M  V30 57 H 2.106872 0.136734 0.973521 0
M  V30 58 H 1.702978 -0.574582 4.060121 0
M  V30 59 H -0.075194 -0.325184 5.142796 0
M  V30 60 H -2.295038 -0.139046 6.326465 0
M  V30 61 H -6.123930 -0.995864 6.724000 0
M  V30 62 H -4.594577 -1.082600 7.594622 0
M  V30 63 H -4.265436 1.086597 4.693802 0
M  V30 64 H -4.191096 3.584127 4.939100 0
M  V30 65 H -4.862252 4.633861 7.130883 0
M  V30 66 H -5.555298 3.112261 8.914195 0
M  V30 67 H -3.988497 -2.700605 3.396706 0
M  V30 68 H -1.874887 -2.872861 2.277408 0
M  V30 END ATOM
M  V30 BEGIN BOND
M  V30 1 1 1 2
M  V30 2 2 2 3
M  V30 3 1 3 4
M  V30 4 2 4 5
M  V30 5 1 5 6
M  V30 6 1 6 7
M  V30 7 2 7 8
M  V30 8 1 7 9
M  V30 9 2 9 10
M  V30 10 1 10 11
M  V30 11 1 11 12
M  V30 12 2 11 13
M  V30 13 1 13 14
M  V30 14 1 14 15
M  V30 15 1 15 16
M  V30 16 1 16 17
M  V30 17 1 17 18
M  V30 18 1 18 19
M  V30 19 2 14 20
M  V30 20 1 5 21
M  V30 21 2 21 22
M  V30 22 1 22 23
M  V30 23 1 23 24
M  V30 24 2 24 25
M  V30 25 1 24 26
M  V30 26 2 26 27
M  V30 27 1 27 28
M  V30 28 2 28 29
M  V30 29 1 29 30
M  V30 30 1 30 31
M  V30 31 1 31 32
M  V30 32 2 32 33
M  V30 33 1 33 34
M  V30 34 2 34 35
M  V30 35 1 35 36
M  V30 36 2 36 37
M  V30 37 1 29 38
M  V30 38 2 38 39
M  V30 39 1 22 2
M  V30 40 1 39 26
M  V30 41 1 20 9
M  V30 42 1 37 32
M  V30 43 1 19 15
M  V30 44 1 1 40
M  V30 45 1 1 41
M  V30 46 1 1 42
M  V30 47 1 3 43
M  V30 48 1 4 44
M  V30 49 1 6 45
M  V30 50 1 10 46
M  V30 51 1 13 47
M  V30 52 1 16 48
M  V30 53 1 16 49
M  V30 54 1 17 50
M  V30 55 1 17 51
M  V30 56 1 18 52
M  V30 57 1 18 53
M  V30 58 1 19 54
M  V30 59 1 19 55
M  V30 60 1 20 56
M  V30 61 1 21 57
M  V30 62 1 23 58
M  V30 63 1 27 59
M  V30 64 1 28 60
M  V30 65 1 31 61
M  V30 66 1 31 62
M  V30 67 1 33 63
M  V30 68 1 34 64
M  V30 69 1 35 65
M  V30 70 1 36 66
M  V30 71 1 38 67
M  V30 72 1 39 68
M  V30 END BOND
M  V30 END CTAB
M  END
>  <Dataset>  (739) 
ChEMBL_Kinases

>  <Ligand_Instance>  (739) 
nan

>  <PDB_ID>  (739) 
nan

>  <Standardized_SMILES>  (739) 
Cc1ccc(NC(=O)c2cc(F)cc(N3CCCC3)c2)cc1NC(=O)c1ccc(OCc2ccccn2)cc1

>  <Name>  (739) 
nan

>  <Pocket>  (739) 
nan

>  <ATP_Site>  (739) 
nan

>  <Peripheral>  (739) 
nan

>  <Num_H_Atoms_ProtBoundConf>  (739) 
nan

>  <Num_Resolved_Atoms>  (739) 
nan

>  <Num_Not_Resolved_Atoms>  (739) 
nan

$$$$
CHEMBL184721
     RDKit          3D

  0  0  0  0  0  0  0  0  0  0999 V3000
M  V30 BEGIN CTAB
M  V30 COUNTS 69 73 0 0 0
M  V30 BEGIN ATOM
M  V30 1 C -2.181806 -4.078897 3.091817 0
M  V30 2 C -1.173390 -3.894136 2.003671 0
M  V30 3 C -0.956976 -4.990800 1.161588 0
M  V30 4 C -0.008363 -4.777744 0.160016 0
M  V30 5 C 0.672041 -3.568547 0.008230 0
M  V30 6 N 1.585560 -3.574038 -1.085722 0
M  V30 7 C 1.024021 -3.070656 -2.288250 0
M  V30 8 O -0.169064 -2.672964 -2.287538 0
M  V30 9 C 1.824730 -3.015169 -3.510461 0
M  V30 10 C 3.092062 -3.538622 -3.626842 0
M  V30 11 C 3.842112 -3.487807 -4.786668 0
M  V30 12 C 3.278964 -2.880916 -5.866394 0
M  V30 13 C 2.020902 -2.330957 -5.838376 0
M  V30 14 N 1.310358 -1.691312 -6.887954 0
M  V30 15 C 0.256721 -0.711789 -6.675321 0
M  V30 16 C -1.038424 -1.347955 -7.137540 0
M  V30 17 O -0.779580 -2.540479 -7.820371 0
M  V30 18 C 0.136002 -2.385837 -8.854172 0
M  V30 19 C 1.496010 -1.923143 -8.332286 0
M  V30 20 C 1.314697 -2.409708 -4.654959 0
M  V30 21 C 0.423398 -2.539906 0.851779 0
M  V30 22 C -0.503733 -2.695497 1.857889 0
M  V30 23 N -0.842758 -1.673075 2.779159 0
M  V30 24 C -0.501185 -1.113933 4.019079 0
M  V30 25 O 0.479502 -1.695036 4.585595 0
M  V30 26 C -1.253650 0.022937 4.532769 0
M  V30 27 C -2.382703 0.558292 3.948323 0
M  V30 28 C -2.980195 1.643928 4.552951 0
M  V30 29 C -2.489787 2.212497 5.719036 0
M  V30 30 O -3.206430 3.297762 6.198661 0
M  V30 31 C -2.903642 4.038814 7.344110 0
M  V30 32 C -1.582395 4.714810 7.291916 0
M  V30 33 C -0.851327 4.772758 6.098031 0
M  V30 34 C 0.370857 5.455638 6.164200 0
M  V30 35 C 0.751709 6.002673 7.358421 0
M  V30 36 C 0.019119 5.933734 8.517023 0
M  V30 37 N -1.174606 5.272345 8.477022 0
M  V30 38 C -1.351216 1.643750 6.275676 0
M  V30 39 C -0.727265 0.550471 5.691102 0
M  V30 40 H -1.799057 -3.489560 3.959528 0
M  V30 41 H -3.159110 -3.602521 2.820084 0
M  V30 42 H -2.332275 -5.132665 3.358302 0
M  V30 43 H -1.484152 -5.925746 1.282654 0
M  V30 44 H 0.124258 -5.662056 -0.469419 0
M  V30 45 H 2.562887 -3.916546 -0.993388 0
M  V30 46 H 3.539242 -4.020493 -2.767842 0
M  V30 47 H 4.834583 -3.918813 -4.816416 0
M  V30 48 H 3.784091 -2.794048 -6.819833 0
M  V30 49 H 0.211109 -0.329555 -5.638626 0
M  V30 50 H 0.442047 0.139846 -7.397483 0
M  V30 51 H -1.595773 -1.625421 -6.217805 0
M  V30 52 H -1.624145 -0.659701 -7.779004 0
M  V30 53 H 0.270702 -3.428535 -9.270032 0
M  V30 54 H -0.229451 -1.695848 -9.639123 0
M  V30 55 H 1.678916 -0.922411 -8.777755 0
M  V30 56 H 2.296887 -2.643318 -8.540559 0
M  V30 57 H 0.301667 -2.004952 -4.530525 0
M  V30 58 H 0.953444 -1.622637 0.722648 0
M  V30 59 H -1.626107 -1.279428 2.209735 0
M  V30 60 H -2.758251 0.113397 3.045056 0
M  V30 61 H -3.868100 2.005430 4.023346 0
M  V30 62 H -3.698806 4.769003 7.507016 0
M  V30 63 H -2.945641 3.307603 8.200431 0
M  V30 64 H -1.216207 4.319883 5.191900 0
M  V30 65 H 0.988040 5.539586 5.281717 0
M  V30 66 H 1.679431 6.542283 7.475408 0
M  V30 67 H 0.279556 6.349721 9.475076 0
M  V30 68 H -0.994537 2.099904 7.183655 0
M  V30 69 H 0.153319 0.170334 6.190369 0
M  V30 END ATOM
M  V30 BEGIN BOND
M  V30 1 1 1 2
M  V30 2 2 2 3
M  V30 3 1 3 4
M  V30 4 2 4 5
M  V30 5 1 5 6
M  V30 6 1 6 7
M  V30 7 2 7 8
M  V30 8 1 7 9
M  V30 9 2 9 10
M  V30 10 1 10 11
M  V30 11 2 11 12
M  V30 12 1 12 13
M  V30 13 1 13 14
M  V30 14 1 14 15
M  V30 15 1 15 16
M  V30 16 1 16 17
M  V30 17 1 17 18
M  V30 18 1 18 19
M  V30 19 2 13 20
M  V30 20 1 5 21
M  V30 21 2 21 22
M  V30 22 1 22 23
M  V30 23 1 23 24
M  V30 24 2 24 25
M  V30 25 1 24 26
M  V30 26 2 26 27
M  V30 27 1 27 28
M  V30 28 2 28 29
M  V30 29 1 29 30
M  V30 30 1 30 31
M  V30 31 1 31 32
M  V30 32 2 32 33
M  V30 33 1 33 34
M  V30 34 2 34 35
M  V30 35 1 35 36
M  V30 36 2 36 37
M  V30 37 1 29 38
M  V30 38 2 38 39
M  V30 39 1 22 2
M  V30 40 1 39 26
M  V30 41 1 20 9
M  V30 42 1 37 32
M  V30 43 1 19 14
M  V30 44 1 1 40
M  V30 45 1 1 41
M  V30 46 1 1 42
M  V30 47 1 3 43
M  V30 48 1 4 44
M  V30 49 1 6 45
M  V30 50 1 10 46
M  V30 51 1 11 47
M  V30 52 1 12 48
M  V30 53 1 15 49
M  V30 54 1 15 50
M  V30 55 1 16 51
M  V30 56 1 16 52
M  V30 57 1 18 53
M  V30 58 1 18 54
M  V30 59 1 19 55
M  V30 60 1 19 56
M  V30 61 1 20 57
M  V30 62 1 21 58
M  V30 63 1 23 59
M  V30 64 1 27 60
M  V30 65 1 28 61
M  V30 66 1 31 62
M  V30 67 1 31 63
M  V30 68 1 33 64
M  V30 69 1 34 65
M  V30 70 1 35 66
M  V30 71 1 36 67
M  V30 72 1 38 68
M  V30 73 1 39 69
M  V30 END BOND
M  V30 END CTAB
M  END
>  <Dataset>  (740) 
ChEMBL_Kinases

>  <Ligand_Instance>  (740) 
nan

>  <PDB_ID>  (740) 
nan

>  <Standardized_SMILES>  (740) 
Cc1ccc(NC(=O)c2cccc(N3CCOCC3)c2)cc1NC(=O)c1ccc(OCc2ccccn2)cc1

>  <Name>  (740) 
nan

>  <Pocket>  (740) 
nan

>  <ATP_Site>  (740) 
nan

>  <Peripheral>  (740) 
nan

>  <Num_H_Atoms_ProtBoundConf>  (740) 
nan

>  <Num_Resolved_Atoms>  (740) 
nan

>  <Num_Not_Resolved_Atoms>  (740) 
nan

$$$$
CHEMBL184725
     RDKit          3D

  0  0  0  0  0  0  0  0  0  0999 V3000
M  V30 BEGIN CTAB
M  V30 COUNTS 76 80 0 0 0
M  V30 BEGIN ATOM
M  V30 1 C 3.630641 -2.289225 6.071528 0
M  V30 2 C 2.328123 -2.606020 5.416780 0
M  V30 3 C 1.465737 -1.388259 5.192467 0
M  V30 4 N 2.078457 -0.385046 4.354557 0
M  V30 5 C 2.174438 -0.913555 3.008968 0
M  V30 6 C 2.965976 0.109736 2.220139 0
M  V30 7 C 2.037592 1.287493 2.010989 0
M  V30 8 O 1.602007 1.255260 0.685423 0
M  V30 9 C 1.945501 2.228409 -0.254914 0
M  V30 10 N 2.734172 3.208315 0.213953 0
M  V30 11 C 3.113767 4.190140 -0.632357 0
M  V30 12 C 2.658813 4.110574 -1.924040 0
M  V30 13 C 1.845939 3.114502 -2.437117 0
M  V30 14 N 1.440684 3.108089 -3.790519 0
M  V30 15 C 0.569156 2.219523 -4.458888 0
M  V30 16 C -0.109005 1.164333 -3.891791 0
M  V30 17 C -0.940215 0.291841 -4.518202 0
M  V30 18 N -1.645096 -0.769495 -3.948461 0
M  V30 19 C -1.754306 -1.210868 -2.618792 0
M  V30 20 O -1.117755 -0.554978 -1.756296 0
M  V30 21 C -2.540867 -2.356181 -2.176112 0
M  V30 22 C -3.231617 -3.233994 -2.985816 0
M  V30 23 C -3.961235 -4.288986 -2.534233 0
M  V30 24 N -4.002154 -4.476692 -1.197146 0
M  V30 25 C -3.367004 -3.680459 -0.336835 0
M  V30 26 N -3.488763 -3.984258 1.067764 0
M  V30 27 C -4.178465 -5.221634 1.408572 0
M  V30 28 C -4.275364 -5.283457 2.912288 0
M  V30 29 O -2.996977 -5.173014 3.456467 0
M  V30 30 C -2.466039 -3.914109 3.317322 0
M  V30 31 C -2.982878 -3.143926 2.135600 0
M  V30 32 C -2.641640 -2.628289 -0.820826 0
M  V30 33 C -1.094401 0.522530 -5.871765 0
M  V30 34 C -0.458488 1.550982 -6.526079 0
M  V30 35 C 0.369631 2.396783 -5.824954 0
M  V30 36 C 1.042832 3.499084 -6.565463 0
M  V30 37 N 1.528206 2.193781 -1.519337 0
M  V30 38 C 0.903259 1.305229 2.975948 0
M  V30 39 C 1.254286 0.780760 4.334333 0
M  V30 40 H 3.611335 -1.297596 6.585895 0
M  V30 41 H 3.867508 -3.089229 6.802189 0
M  V30 42 H 4.486904 -2.314653 5.336247 0
M  V30 43 H 2.522456 -3.166592 4.486636 0
M  V30 44 H 1.769533 -3.326766 6.079427 0
M  V30 45 H 0.499545 -1.747797 4.740925 0
M  V30 46 H 1.174036 -0.994248 6.188122 0
M  V30 47 H 2.666400 -1.884166 2.927500 0
M  V30 48 H 1.144587 -1.036819 2.649902 0
M  V30 49 H 3.417199 -0.271713 1.306570 0
M  V30 50 H 3.784420 0.458591 2.886373 0
M  V30 51 H 2.610942 2.246096 2.125767 0
M  V30 52 H 3.742355 5.002193 -0.317638 0
M  V30 53 H 2.981200 4.917171 -2.583454 0
M  V30 54 H 1.863698 3.892610 -4.369301 0
M  V30 55 H 0.050330 1.040391 -2.852094 0
M  V30 56 H -2.223878 -1.394687 -4.589274 0
M  V30 57 H -3.191085 -3.075704 -4.050945 0
M  V30 58 H -4.475328 -4.932869 -3.240176 0
M  V30 59 H -5.218278 -5.180423 1.016118 0
M  V30 60 H -3.609865 -6.107439 1.009008 0
M  V30 61 H -4.684677 -6.252118 3.274892 0
M  V30 62 H -4.904564 -4.456183 3.263317 0
M  V30 63 H -2.647815 -3.272747 4.228051 0
M  V30 64 H -1.351939 -3.985159 3.262544 0
M  V30 65 H -3.806189 -2.460539 2.483227 0
M  V30 66 H -2.165422 -2.468804 1.812032 0
M  V30 67 H -2.126499 -1.980982 -0.148637 0
M  V30 68 H -1.743661 -0.118381 -6.490766 0
M  V30 69 H -0.617403 1.684845 -7.586145 0
M  V30 70 H 0.699987 4.483127 -6.219545 0
M  V30 71 H 2.144202 3.353982 -6.397551 0
M  V30 72 H 0.897378 3.401969 -7.639039 0
M  V30 73 H 0.003261 0.795771 2.553696 0
M  V30 74 H 0.590343 2.378750 3.118171 0
M  V30 75 H 0.284255 0.580050 4.873732 0
M  V30 76 H 1.750384 1.565320 4.968514 0
M  V30 END ATOM
M  V30 BEGIN BOND
M  V30 1 1 1 2
M  V30 2 1 2 3
M  V30 3 1 3 4
M  V30 4 1 4 5
M  V30 5 1 5 6
M  V30 6 1 6 7
M  V30 7 1 7 8
M  V30 8 1 8 9
M  V30 9 2 9 10
M  V30 10 1 10 11
M  V30 11 2 11 12
M  V30 12 1 12 13
M  V30 13 1 13 14
M  V30 14 1 14 15
M  V30 15 2 15 16
M  V30 16 1 16 17
M  V30 17 1 17 18
M  V30 18 1 18 19
M  V30 19 2 19 20
M  V30 20 1 19 21
M  V30 21 2 21 22
M  V30 22 1 22 23
M  V30 23 2 23 24
M  V30 24 1 24 25
M  V30 25 1 25 26
M  V30 26 1 26 27
M  V30 27 1 27 28
M  V30 28 1 28 29
M  V30 29 1 29 30
M  V30 30 1 30 31
M  V30 31 2 25 32
M  V30 32 2 17 33
M  V30 33 1 33 34
M  V30 34 2 34 35
M  V30 35 1 35 36
M  V30 36 2 13 37
M  V30 37 1 7 38
M  V30 38 1 38 39
M  V30 39 1 39 4
M  V30 40 1 37 9
M  V30 41 1 35 15
M  V30 42 1 32 21
M  V30 43 1 31 26
M  V30 44 1 1 40
M  V30 45 1 1 41
M  V30 46 1 1 42
M  V30 47 1 2 43
M  V30 48 1 2 44
M  V30 49 1 3 45
M  V30 50 1 3 46
M  V30 51 1 5 47
M  V30 52 1 5 48
M  V30 53 1 6 49
M  V30 54 1 6 50
M  V30 55 1 7 51
M  V30 56 1 11 52
M  V30 57 1 12 53
M  V30 58 1 14 54
M  V30 59 1 16 55
M  V30 60 1 18 56
M  V30 61 1 22 57
M  V30 62 1 23 58
M  V30 63 1 27 59
M  V30 64 1 27 60
M  V30 65 1 28 61
M  V30 66 1 28 62
M  V30 67 1 30 63
M  V30 68 1 30 64
M  V30 69 1 31 65
M  V30 70 1 31 66
M  V30 71 1 32 67
M  V30 72 1 33 68
M  V30 73 1 34 69
M  V30 74 1 36 70
M  V30 75 1 36 71
M  V30 76 1 36 72
M  V30 77 1 38 73
M  V30 78 1 38 74
M  V30 79 1 39 75
M  V30 80 1 39 76
M  V30 END BOND
M  V30 END CTAB
M  END
>  <Dataset>  (741) 
ChEMBL_Kinases

>  <Ligand_Instance>  (741) 
nan

>  <PDB_ID>  (741) 
nan

>  <Standardized_SMILES>  (741) 
CCCN1CCC(Oc2nccc(Nc3cc(NC(=O)c4ccnc(N5CCOCC5)c4)ccc3C)n2)CC1

>  <Name>  (741) 
nan

>  <Pocket>  (741) 
nan

>  <ATP_Site>  (741) 
nan

>  <Peripheral>  (741) 
nan

>  <Num_H_Atoms_ProtBoundConf>  (741) 
nan

>  <Num_Resolved_Atoms>  (741) 
nan

>  <Num_Not_Resolved_Atoms>  (741) 
nan

$$$$
CHEMBL184733
     RDKit          3D

  0  0  0  0  0  0  0  0  0  0999 V3000
M  V30 BEGIN CTAB
M  V30 COUNTS 43 47 0 0 0
M  V30 BEGIN ATOM
M  V30 1 F 4.871383 -4.616673 1.610663 0
M  V30 2 C 3.623436 -4.096696 1.474584 0
M  V30 3 C 2.937604 -4.413493 0.326776 0
M  V30 4 C 1.664018 -3.922404 0.123047 0
M  V30 5 C 1.069515 -3.111501 1.066113 0
M  V30 6 C -0.230628 -2.480549 1.081968 0
M  V30 7 C -0.814552 -1.512712 0.257478 0
M  V30 8 C -0.118522 -0.929385 -0.886695 0
M  V30 9 C 0.260374 -1.489155 -2.089661 0
M  V30 10 C 0.926219 -0.683842 -2.993378 0
M  V30 11 N 1.200715 0.603432 -2.719366 0
M  V30 12 C 0.826934 1.151251 -1.534680 0
M  V30 13 O 1.173705 2.467425 -1.395419 0
M  V30 14 C 0.944473 3.292609 -0.329606 0
M  V30 15 C 1.460752 4.566762 -0.552331 0
M  V30 16 C 1.344547 5.575393 0.398864 0
M  V30 17 C 0.700285 5.289413 1.583617 0
M  V30 18 C 0.166270 4.023863 1.850071 0
M  V30 19 C 0.310522 3.063369 0.872418 0
M  V30 20 N 0.179504 0.361464 -0.661263 0
M  V30 21 N -2.069171 -1.251360 0.705808 0
M  V30 22 N -2.299780 -2.018549 1.783344 0
M  V30 23 C -1.196361 -2.783001 2.041444 0
M  V30 24 O -1.501753 -3.556119 3.172247 0
M  V30 25 C -2.511875 -2.858803 3.896820 0
M  V30 26 C -3.332385 -2.304542 2.765975 0
M  V30 27 C 1.782498 -2.798269 2.229749 0
M  V30 28 C 3.071117 -3.288415 2.448683 0
M  V30 29 H 3.297201 -5.041092 -0.490664 0
M  V30 30 H 1.043992 -4.098238 -0.715580 0
M  V30 31 H -0.028441 -2.527388 -2.165783 0
M  V30 32 H 1.190609 -1.197755 -3.918372 0
M  V30 33 H 1.984912 4.903281 -1.443512 0
M  V30 34 H 1.731485 6.576071 0.266134 0
M  V30 35 H 0.590238 6.057706 2.354514 0
M  V30 36 H -0.345204 3.762553 2.766303 0
M  V30 37 H -0.061589 2.054188 0.969563 0
M  V30 38 H -2.040789 -1.962823 4.393422 0
M  V30 39 H -3.062374 -3.495102 4.592000 0
M  V30 40 H -3.858637 -1.388323 3.067361 0
M  V30 41 H -3.995277 -3.058315 2.299991 0
M  V30 42 H 1.441819 -2.177212 3.050361 0
M  V30 43 H 3.648178 -3.066445 3.335782 0
M  V30 END ATOM
M  V30 BEGIN BOND
M  V30 1 1 1 2
M  V30 2 2 2 3
M  V30 3 1 3 4
M  V30 4 2 4 5
M  V30 5 1 5 6
M  V30 6 1 6 7
M  V30 7 1 7 8
M  V30 8 2 8 9
M  V30 9 1 9 10
M  V30 10 2 10 11
M  V30 11 1 11 12
M  V30 12 1 12 13
M  V30 13 1 13 14
M  V30 14 2 14 15
M  V30 15 1 15 16
M  V30 16 2 16 17
M  V30 17 1 17 18
M  V30 18 2 18 19
M  V30 19 2 12 20
M  V30 20 2 7 21
M  V30 21 1 21 22
M  V30 22 1 22 23
M  V30 23 1 23 24
M  V30 24 1 24 25
M  V30 25 1 25 26
M  V30 26 1 5 27
M  V30 27 2 27 28
M  V30 28 1 28 2
M  V30 29 2 23 6
M  V30 30 1 20 8
M  V30 31 1 26 22
M  V30 32 1 19 14
M  V30 33 1 3 29
M  V30 34 1 4 30
M  V30 35 1 9 31
M  V30 36 1 10 32
M  V30 37 1 15 33
M  V30 38 1 16 34
M  V30 39 1 17 35
M  V30 40 1 18 36
M  V30 41 1 19 37
M  V30 42 1 25 38
M  V30 43 1 25 39
M  V30 44 1 26 40
M  V30 45 1 26 41
M  V30 46 1 27 42
M  V30 47 1 28 43
M  V30 END BOND
M  V30 END CTAB
M  END
>  <Dataset>  (742) 
ChEMBL_Kinases

>  <Ligand_Instance>  (742) 
nan

>  <PDB_ID>  (742) 
nan

>  <Standardized_SMILES>  (742) 
Fc1ccc(-c2c(-c3ccnc(Oc4ccccc4)n3)nn3c2OCC3)cc1

>  <Name>  (742) 
nan

>  <Pocket>  (742) 
nan

>  <ATP_Site>  (742) 
nan

>  <Peripheral>  (742) 
nan

>  <Num_H_Atoms_ProtBoundConf>  (742) 
nan

>  <Num_Resolved_Atoms>  (742) 
nan

>  <Num_Not_Resolved_Atoms>  (742) 
nan

$$$$
CHEMBL184746
     RDKit          3D

  0  0  0  0  0  0  0  0  0  0999 V3000
M  V30 BEGIN CTAB
M  V30 COUNTS 35 38 0 0 0
M  V30 BEGIN ATOM
M  V30 1 N -0.622573 -5.274644 1.523014 0
M  V30 2 C -0.302957 -3.889506 1.402056 0
M  V30 3 N 0.656473 -3.235711 1.200772 0
M  V30 4 C 0.700029 -1.911104 1.131931 0
M  V30 5 C 1.993940 -1.263444 0.869879 0
M  V30 6 C 3.058225 -1.391613 1.734561 0
M  V30 7 C 4.297406 -0.808311 1.540203 0
M  V30 8 C 4.460949 -0.044366 0.388134 0
M  V30 9 C 3.425780 0.115313 -0.510149 0
M  V30 10 C 2.209043 -0.490335 -0.265303 0
M  V30 11 F 1.190078 -0.336709 -1.144463 0
M  V30 12 C -0.464222 -1.207209 1.307191 0
M  V30 13 C -0.763806 0.171706 1.297975 0
M  V30 14 C -0.246572 1.106338 2.200384 0
M  V30 15 C -0.619696 2.448401 2.090729 0
M  V30 16 N -1.459720 2.853057 1.141577 0
M  V30 17 C -1.965920 1.976732 0.269027 0
M  V30 18 C -2.844867 2.453434 -0.708676 0
M  V30 19 C -3.386108 1.557034 -1.629884 0
M  V30 20 C -3.050965 0.204887 -1.570702 0
M  V30 21 C -2.188793 -0.226778 -0.601977 0
M  V30 22 C -1.639079 0.639754 0.321711 0
M  V30 23 S -1.684185 -2.580482 1.588045 0
M  V30 24 H 0.118225 -5.815175 2.011652 0
M  V30 25 H -1.549086 -5.557667 1.108423 0
M  V30 26 H 2.890778 -2.001199 2.630335 0
M  V30 27 H 5.085973 -0.955076 2.266789 0
M  V30 28 H 5.436873 0.430420 0.209035 0
M  V30 29 H 3.604328 0.718447 -1.389234 0
M  V30 30 H 0.423678 0.760529 2.950968 0
M  V30 31 H -0.213502 3.165888 2.794370 0
M  V30 32 H -3.149119 3.485264 -0.814973 0
M  V30 33 H -4.076229 1.819105 -2.426930 0
M  V30 34 H -3.475962 -0.505243 -2.296479 0
M  V30 35 H -1.954253 -1.283190 -0.590701 0
M  V30 END ATOM
M  V30 BEGIN BOND
M  V30 1 1 1 2
M  V30 2 2 2 3
M  V30 3 1 3 4
M  V30 4 1 4 5
M  V30 5 2 5 6
M  V30 6 1 6 7
M  V30 7 2 7 8
M  V30 8 1 8 9
M  V30 9 2 9 10
M  V30 10 1 10 11
M  V30 11 2 4 12
M  V30 12 1 12 13
M  V30 13 2 13 14
M  V30 14 1 14 15
M  V30 15 2 15 16
M  V30 16 1 16 17
M  V30 17 2 17 18
M  V30 18 1 18 19
M  V30 19 2 19 20
M  V30 20 1 20 21
M  V30 21 2 21 22
M  V30 22 1 12 23
M  V30 23 1 23 2
M  V30 24 1 10 5
M  V30 25 1 22 13
M  V30 26 1 22 17
M  V30 27 1 1 24
M  V30 28 1 1 25
M  V30 29 1 6 26
M  V30 30 1 7 27
M  V30 31 1 8 28
M  V30 32 1 9 29
M  V30 33 1 14 30
M  V30 34 1 15 31
M  V30 35 1 18 32
M  V30 36 1 19 33
M  V30 37 1 20 34
M  V30 38 1 21 35
M  V30 END BOND
M  V30 END CTAB
M  END
>  <Dataset>  (743) 
ChEMBL_Kinases

>  <Ligand_Instance>  (743) 
nan

>  <PDB_ID>  (743) 
nan

>  <Standardized_SMILES>  (743) 
Nc1nc(-c2ccccc2F)c(-c2ccnc3ccccc23)s1

>  <Name>  (743) 
nan

>  <Pocket>  (743) 
nan

>  <ATP_Site>  (743) 
nan

>  <Peripheral>  (743) 
nan

>  <Num_H_Atoms_ProtBoundConf>  (743) 
nan

>  <Num_Resolved_Atoms>  (743) 
nan

>  <Num_Not_Resolved_Atoms>  (743) 
nan

$$$$
CHEMBL184826
     RDKit          3D

  0  0  0  0  0  0  0  0  0  0999 V3000
M  V30 BEGIN CTAB
M  V30 COUNTS 42 45 0 0 0
M  V30 BEGIN ATOM
M  V30 1 O 0.223999 -3.810540 3.723734 0
M  V30 2 C 0.905654 -3.314473 2.778072 0
M  V30 3 N 2.323950 -3.444409 2.830751 0
M  V30 4 C 2.772777 -2.790069 1.642066 0
M  V30 5 O 3.968244 -2.668746 1.287199 0
M  V30 6 C 1.635381 -2.272130 0.877175 0
M  V30 7 C 1.561708 -1.580228 -0.401521 0
M  V30 8 C 0.675779 -1.988422 -1.409847 0
M  V30 9 N 0.794380 -1.181820 -2.484343 0
M  V30 10 C 1.733161 -0.261048 -2.203895 0
M  V30 11 C 2.267000 0.815005 -2.919406 0
M  V30 12 C 3.242919 1.607891 -2.346959 0
M  V30 13 C 3.722087 1.365753 -1.056511 0
M  V30 14 C 3.186976 0.293144 -0.350729 0
M  V30 15 C 2.214566 -0.489652 -0.931217 0
M  V30 16 C 0.537838 -2.579411 1.546433 0
M  V30 17 N -0.876232 -2.357824 1.384238 0
M  V30 18 C -1.140421 -0.951756 1.422891 0
M  V30 19 C -2.596055 -0.562048 1.367065 0
M  V30 20 C -2.532620 0.954697 1.135244 0
M  V30 21 C -1.861564 1.625408 2.306529 0
M  V30 22 C -1.372098 0.600245 3.308003 0
M  V30 23 C -0.443432 -0.356484 2.616248 0
M  V30 24 H 2.934001 -3.903492 3.556150 0
M  V30 25 H -0.011019 -2.814405 -1.375353 0
M  V30 26 H 0.236995 -1.272166 -3.380371 0
M  V30 27 H 1.874873 0.969395 -3.919326 0
M  V30 28 H 3.630571 2.430012 -2.933656 0
M  V30 29 H 4.498929 2.043112 -0.668160 0
M  V30 30 H 3.543212 0.098836 0.628548 0
M  V30 31 H -1.539452 -3.158580 1.263445 0
M  V30 32 H -0.684834 -0.478830 0.502913 0
M  V30 33 H -3.052583 -0.994060 0.458563 0
M  V30 34 H -3.136470 -0.811113 2.281219 0
M  V30 35 H -3.498289 1.383855 0.846896 0
M  V30 36 H -1.831995 1.076902 0.256193 0
M  V30 37 H -0.947867 2.198785 2.008268 0
M  V30 38 H -2.549385 2.359670 2.808790 0
M  V30 39 H -0.755636 1.160888 4.061660 0
M  V30 40 H -2.183839 0.117622 3.878127 0
M  V30 41 H 0.446552 0.254755 2.302202 0
M  V30 42 H -0.052867 -1.106816 3.334383 0
M  V30 END ATOM
M  V30 BEGIN BOND
M  V30 1 2 1 2
M  V30 2 1 2 3
M  V30 3 1 3 4
M  V30 4 2 4 5
M  V30 5 1 4 6
M  V30 6 1 6 7
M  V30 7 2 7 8
M  V30 8 1 8 9
M  V30 9 1 9 10
M  V30 10 2 10 11
M  V30 11 1 11 12
M  V30 12 2 12 13
M  V30 13 1 13 14
M  V30 14 2 14 15
M  V30 15 2 6 16
M  V30 16 1 16 17
M  V30 17 1 17 18
M  V30 18 1 18 19
M  V30 19 1 19 20
M  V30 20 1 20 21
M  V30 21 1 21 22
M  V30 22 1 22 23
M  V30 23 1 16 2
M  V30 24 1 23 18
M  V30 25 1 15 7
M  V30 26 1 15 10
M  V30 27 1 3 24
M  V30 28 1 8 25
M  V30 29 1 9 26
M  V30 30 1 11 27
M  V30 31 1 12 28
M  V30 32 1 13 29
M  V30 33 1 14 30
M  V30 34 1 17 31
M  V30 35 1 18 32
M  V30 36 1 19 33
M  V30 37 1 19 34
M  V30 38 1 20 35
M  V30 39 1 20 36
M  V30 40 1 21 37
M  V30 41 1 21 38
M  V30 42 1 22 39
M  V30 43 1 22 40
M  V30 44 1 23 41
M  V30 45 1 23 42
M  V30 END BOND
M  V30 END CTAB
M  END
>  <Dataset>  (744) 
ChEMBL_Kinases

>  <Ligand_Instance>  (744) 
nan

>  <PDB_ID>  (744) 
nan

>  <Standardized_SMILES>  (744) 
O=C1NC(=O)C(c2c[nH]c3ccccc23)=C1NC1CCCCC1

>  <Name>  (744) 
nan

>  <Pocket>  (744) 
nan

>  <ATP_Site>  (744) 
nan

>  <Peripheral>  (744) 
nan

>  <Num_H_Atoms_ProtBoundConf>  (744) 
nan

>  <Num_Resolved_Atoms>  (744) 
nan

>  <Num_Not_Resolved_Atoms>  (744) 
nan

$$$$
CHEMBL184831
     RDKit          3D

  0  0  0  0  0  0  0  0  0  0999 V3000
M  V30 BEGIN CTAB
M  V30 COUNTS 39 40 0 0 0
M  V30 BEGIN ATOM
M  V30 1 C 0.918527 -3.111920 1.352922 0
M  V30 2 C -0.568002 -3.397026 1.266604 0
M  V30 3 C -0.777951 -4.797910 0.739874 0
M  V30 4 C -1.255212 -2.381046 0.391064 0
M  V30 5 N -2.655430 -2.642893 0.304893 0
M  V30 6 C -0.882131 -1.020728 0.788471 0
M  V30 7 C 0.205071 -0.355875 0.252754 0
M  V30 8 C 0.595469 0.922251 0.594015 0
M  V30 9 C 1.747640 1.583770 0.004182 0
M  V30 10 C 2.575262 1.028165 -0.948787 0
M  V30 11 C 3.661922 1.685899 -1.487701 0
M  V30 12 C 3.921182 2.966032 -1.039526 0
M  V30 13 C 3.121852 3.564365 -0.087440 0
M  V30 14 C 2.044165 2.864473 0.422587 0
M  V30 15 O 1.282925 3.527009 1.376913 0
M  V30 16 N -0.175766 1.520934 1.523547 0
M  V30 17 C -1.242893 0.914134 2.072873 0
M  V30 18 N -1.953478 1.680011 3.039319 0
M  V30 19 C -1.649120 -0.362661 1.745063 0
M  V30 20 C -2.798480 -0.953356 2.368998 0
M  V30 21 N -3.735371 -1.419023 2.861110 0
M  V30 22 H 1.122298 -2.232633 2.011372 0
M  V30 23 H 1.386326 -3.983265 1.882524 0
M  V30 24 H 1.408686 -3.059128 0.377349 0
M  V30 25 H -0.970696 -3.335468 2.301195 0
M  V30 26 H -0.064437 -5.486133 1.239194 0
M  V30 27 H -0.514043 -4.795318 -0.341366 0
M  V30 28 H -1.835187 -5.083930 0.905364 0
M  V30 29 H -0.838752 -2.530793 -0.646807 0
M  V30 30 H -3.020951 -3.365081 0.931263 0
M  V30 31 H -3.263113 -1.852691 0.072713 0
M  V30 32 H 0.746164 -0.912444 -0.469501 0
M  V30 33 H 2.358755 0.025045 -1.289209 0
M  V30 34 H 4.282406 1.208918 -2.233199 0
M  V30 35 H 4.784712 3.504276 -1.459791 0
M  V30 36 H 3.371249 4.574765 0.230185 0
M  V30 37 H 1.357984 3.299027 2.361433 0
M  V30 38 H -2.695961 2.112935 2.442656 0
M  V30 39 H -1.408654 1.456511 3.889004 0
M  V30 END ATOM
M  V30 BEGIN BOND
M  V30 1 1 1 2
M  V30 2 1 2 3
M  V30 3 1 2 4
M  V30 4 1 4 5
M  V30 5 1 4 6
M  V30 6 2 6 7
M  V30 7 1 7 8
M  V30 8 1 8 9
M  V30 9 2 9 10
M  V30 10 1 10 11
M  V30 11 2 11 12
M  V30 12 1 12 13
M  V30 13 2 13 14
M  V30 14 1 14 15
M  V30 15 2 8 16
M  V30 16 1 16 17
M  V30 17 1 17 18
M  V30 18 2 17 19
M  V30 19 1 19 20
M  V30 20 3 20 21
M  V30 21 1 19 6
M  V30 22 1 14 9
M  V30 23 1 1 22
M  V30 24 1 1 23
M  V30 25 1 1 24
M  V30 26 1 2 25
M  V30 27 1 3 26
M  V30 28 1 3 27
M  V30 29 1 3 28
M  V30 30 1 4 29
M  V30 31 1 5 30
M  V30 32 1 5 31
M  V30 33 1 7 32
M  V30 34 1 10 33
M  V30 35 1 11 34
M  V30 36 1 12 35
M  V30 37 1 13 36
M  V30 38 1 15 37
M  V30 39 1 18 38
M  V30 40 1 18 39
M  V30 END BOND
M  V30 END CTAB
M  END
>  <Dataset>  (745) 
ChEMBL_Kinases

>  <Ligand_Instance>  (745) 
nan

>  <PDB_ID>  (745) 
nan

>  <Standardized_SMILES>  (745) 
CC(C)C(N)c1cc(-c2ccccc2O)nc(N)c1C#N

>  <Name>  (745) 
nan

>  <Pocket>  (745) 
nan

>  <ATP_Site>  (745) 
nan

>  <Peripheral>  (745) 
nan

>  <Num_H_Atoms_ProtBoundConf>  (745) 
nan

>  <Num_Resolved_Atoms>  (745) 
nan

>  <Num_Not_Resolved_Atoms>  (745) 
nan

$$$$
CHEMBL185509
     RDKit          3D

  0  0  0  0  0  0  0  0  0  0999 V3000
M  V30 BEGIN CTAB
M  V30 COUNTS 62 64 0 0 0
M  V30 BEGIN ATOM
M  V30 1 C 0.443862 -3.236962 3.408049 0
M  V30 2 C 0.827817 -1.777989 3.599400 0
M  V30 3 C 2.289800 -1.720975 3.963283 0
M  V30 4 C 2.760977 -0.314522 4.179628 0
M  V30 5 C 2.562746 0.517571 2.945057 0
M  V30 6 C 3.327771 -0.055638 1.797868 0
M  V30 7 C 3.146324 0.799314 0.529081 0
M  V30 8 O 1.788906 0.824771 0.212434 0
M  V30 9 C 1.255221 1.507183 -0.880486 0
M  V30 10 C 2.122869 2.205464 -1.707267 0
M  V30 11 C 1.702154 2.914034 -2.814565 0
M  V30 12 C 0.341356 2.874322 -3.038004 0
M  V30 13 C -0.568435 2.201701 -2.256870 0
M  V30 14 O -1.933343 2.217444 -2.561018 0
M  V30 15 C -0.096102 1.507761 -1.160002 0
M  V30 16 C -1.026889 0.779868 -0.303640 0
M  V30 17 C -1.258886 -0.549264 -0.671410 0
M  V30 18 C -2.115376 -1.319424 0.065695 0
M  V30 19 C -2.399079 -2.744646 -0.282789 0
M  V30 20 C -3.575731 -2.837311 -1.224326 0
M  V30 21 C -3.145662 -2.389367 -2.582826 0
M  V30 22 N -1.971536 -2.971400 -3.097021 0
M  V30 23 C -1.022545 -3.549062 -2.246587 0
M  V30 24 C -1.193421 -3.476621 -0.779932 0
M  V30 25 C -2.728039 -0.726204 1.172347 0
M  V30 26 C -3.618723 -1.544615 1.930076 0
M  V30 27 N -4.331111 -2.206692 2.558648 0
M  V30 28 C -2.497029 0.591204 1.535477 0
M  V30 29 N -3.139773 1.160894 2.669756 0
M  V30 30 N -1.643905 1.301776 0.772628 0
M  V30 31 H 0.741666 -3.577519 2.404155 0
M  V30 32 H -0.653860 -3.321360 3.508349 0
M  V30 33 H 0.971934 -3.871473 4.168842 0
M  V30 34 H 0.251198 -1.295960 4.407389 0
M  V30 35 H 0.699151 -1.241428 2.626234 0
M  V30 36 H 2.866399 -2.252557 3.184606 0
M  V30 37 H 2.453305 -2.333319 4.894412 0
M  V30 38 H 3.865069 -0.322554 4.421408 0
M  V30 39 H 2.291642 0.149133 5.080630 0
M  V30 40 H 1.479937 0.618145 2.693839 0
M  V30 41 H 2.954715 1.560193 3.156157 0
M  V30 42 H 4.394225 -0.176139 2.065008 0
M  V30 43 H 2.926919 -1.087395 1.580035 0
M  V30 44 H 3.781951 0.322728 -0.225538 0
M  V30 45 H 3.602332 1.788364 0.743371 0
M  V30 46 H 3.179467 2.190652 -1.468059 0
M  V30 47 H 2.380360 3.458362 -3.458692 0
M  V30 48 H -0.070421 3.404208 -3.886119 0
M  V30 49 H -2.584668 2.291885 -1.789530 0
M  V30 50 H -0.777864 -0.985323 -1.525242 0
M  V30 51 H -2.729945 -3.226042 0.664580 0
M  V30 52 H -3.998173 -3.840950 -1.256973 0
M  V30 53 H -4.336291 -2.124432 -0.836748 0
M  V30 54 H -3.191279 -1.262650 -2.639290 0
M  V30 55 H -3.989976 -2.696104 -3.270562 0
M  V30 56 H -1.570389 -2.356662 -3.816886 0
M  V30 57 H 0.000118 -3.190211 -2.571269 0
M  V30 58 H -0.975548 -4.641713 -2.534273 0
M  V30 59 H -0.312334 -2.909781 -0.356115 0
M  V30 60 H -1.108617 -4.472334 -0.287826 0
M  V30 61 H -3.818381 1.955639 2.744080 0
M  V30 62 H -2.828041 0.641745 3.531051 0
M  V30 END ATOM
M  V30 BEGIN BOND
M  V30 1 1 1 2
M  V30 2 1 2 3
M  V30 3 1 3 4
M  V30 4 1 4 5
M  V30 5 1 5 6
M  V30 6 1 6 7
M  V30 7 1 7 8
M  V30 8 1 8 9
M  V30 9 2 9 10
M  V30 10 1 10 11
M  V30 11 2 11 12
M  V30 12 1 12 13
M  V30 13 1 13 14
M  V30 14 2 13 15
M  V30 15 1 15 16
M  V30 16 2 16 17
M  V30 17 1 17 18
M  V30 18 1 18 19
M  V30 19 1 19 20
M  V30 20 1 20 21
M  V30 21 1 21 22
M  V30 22 1 22 23
M  V30 23 1 23 24
M  V30 24 2 18 25
M  V30 25 1 25 26
M  V30 26 3 26 27
M  V30 27 1 25 28
M  V30 28 1 28 29
M  V30 29 2 28 30
M  V30 30 1 15 9
M  V30 31 1 30 16
M  V30 32 1 24 19
M  V30 33 1 1 31
M  V30 34 1 1 32
M  V30 35 1 1 33
M  V30 36 1 2 34
M  V30 37 1 2 35
M  V30 38 1 3 36
M  V30 39 1 3 37
M  V30 40 1 4 38
M  V30 41 1 4 39
M  V30 42 1 5 40
M  V30 43 1 5 41
M  V30 44 1 6 42
M  V30 45 1 6 43
M  V30 46 1 7 44
M  V30 47 1 7 45
M  V30 48 1 10 46
M  V30 49 1 11 47
M  V30 50 1 12 48
M  V30 51 1 14 49
M  V30 52 1 17 50
M  V30 53 1 19 51
M  V30 54 1 20 52
M  V30 55 1 20 53
M  V30 56 1 21 54
M  V30 57 1 21 55
M  V30 58 1 22 56
M  V30 59 1 23 57
M  V30 60 1 23 58
M  V30 61 1 24 59
M  V30 62 1 24 60
M  V30 63 1 29 61
M  V30 64 1 29 62
M  V30 END BOND
M  V30 END CTAB
M  END
>  <Dataset>  (746) 
ChEMBL_Kinases

>  <Ligand_Instance>  (746) 
nan

>  <PDB_ID>  (746) 
nan

>  <Standardized_SMILES>  (746) 
CCCCCCCOc1cccc(O)c1-c1cc(C2CCNCC2)c(C#N)c(N)n1

>  <Name>  (746) 
nan

>  <Pocket>  (746) 
nan

>  <ATP_Site>  (746) 
nan

>  <Peripheral>  (746) 
nan

>  <Num_H_Atoms_ProtBoundConf>  (746) 
nan

>  <Num_Resolved_Atoms>  (746) 
nan

>  <Num_Not_Resolved_Atoms>  (746) 
nan

$$$$
CHEMBL185086
     RDKit          3D

  0  0  0  0  0  0  0  0  0  0999 V3000
M  V30 BEGIN CTAB
M  V30 COUNTS 65 67 0 0 0
M  V30 BEGIN ATOM
M  V30 1 C 8.376963 3.173607 4.840333 0
M  V30 2 C 7.017067 2.562601 4.659040 0
M  V30 3 O 7.000347 1.324863 4.078315 0
M  V30 4 C 7.522671 1.214395 2.814493 0
M  V30 5 C 6.750588 2.068975 1.804167 0
M  V30 6 O 5.443822 1.719325 1.712717 0
M  V30 7 C 4.393032 2.114785 0.972203 0
M  V30 8 C 3.352055 1.320831 1.461685 0
M  V30 9 C 2.014666 1.337883 1.022007 0
M  V30 10 C 1.787888 2.260454 -0.000770 0
M  V30 11 C 0.482644 2.472837 -0.612899 0
M  V30 12 O 0.206574 3.325737 -1.496050 0
M  V30 13 N -0.718933 1.823747 -0.390777 0
M  V30 14 C -2.074380 1.568833 -0.554011 0
M  V30 15 C -2.590660 0.362825 -0.111483 0
M  V30 16 C -3.897253 0.024160 -0.228430 0
M  V30 17 N -4.286288 -1.246971 0.261514 0
M  V30 18 C -4.382639 -2.485455 -0.446569 0
M  V30 19 O -4.032456 -2.150918 -1.650177 0
M  V30 20 C -4.748721 -3.780480 -0.011012 0
M  V30 21 C -5.242734 -4.133521 1.232761 0
M  V30 22 C -5.512298 -5.456526 1.434933 0
M  V30 23 C -5.360008 -6.525056 0.550628 0
M  V30 24 C -4.854411 -6.075316 -0.690263 0
M  V30 25 N -4.633414 -7.101932 -1.684532 0
M  V30 26 C -4.148301 -6.708529 -2.998713 0
M  V30 27 C -4.838327 -8.525737 -1.522644 0
M  V30 28 C -4.566929 -4.780917 -0.950279 0
M  V30 29 C -4.724342 0.935615 -0.814327 0
M  V30 30 C -4.310970 2.163919 -1.284893 0
M  V30 31 C -2.948447 2.460742 -1.136707 0
M  V30 32 C -2.590856 3.812120 -1.638082 0
M  V30 33 C 2.765443 3.071826 -0.528155 0
M  V30 34 C 4.054395 2.997515 -0.045056 0
M  V30 35 H 8.531881 4.107990 4.225400 0
M  V30 36 H 9.170487 2.472926 4.523098 0
M  V30 37 H 8.564488 3.509092 5.906538 0
M  V30 38 H 6.594413 2.422564 5.699752 0
M  V30 39 H 6.317074 3.303701 4.179974 0
M  V30 40 H 7.522318 0.154237 2.460208 0
M  V30 41 H 8.572503 1.567383 2.830850 0
M  V30 42 H 7.281672 1.994007 0.839483 0
M  V30 43 H 6.890209 3.128015 2.189139 0
M  V30 44 H 3.360559 0.550957 2.261932 0
M  V30 45 H 1.214916 0.723217 1.406445 0
M  V30 46 H -0.332131 1.143863 0.347973 0
M  V30 47 H -1.943739 -0.389498 0.364650 0
M  V30 48 H -4.544687 -1.316451 1.300376 0
M  V30 49 H -5.371808 -3.338348 1.942526 0
M  V30 50 H -5.907147 -5.736490 2.417530 0
M  V30 51 H -5.607878 -7.521967 0.829884 0
M  V30 52 H -3.859944 -7.567979 -3.613429 0
M  V30 53 H -4.969978 -6.137669 -3.497143 0
M  V30 54 H -3.270354 -6.009408 -2.902528 0
M  V30 55 H -3.960678 -9.072522 -1.996699 0
M  V30 56 H -5.737838 -8.880960 -2.058123 0
M  V30 57 H -4.811015 -8.821121 -0.459559 0
M  V30 58 H -4.175737 -4.523856 -1.952253 0
M  V30 59 H -5.753241 0.695874 -0.921271 0
M  V30 60 H -5.028533 2.827798 -1.736133 0
M  V30 61 H -3.533354 4.412832 -1.846596 0
M  V30 62 H -2.058225 4.434413 -0.914766 0
M  V30 63 H -2.095201 3.787893 -2.616329 0
M  V30 64 H 2.616643 3.791134 -1.312054 0
M  V30 65 H 4.937473 3.534329 -0.343052 0
M  V30 END ATOM
M  V30 BEGIN BOND
M  V30 1 1 1 2
M  V30 2 1 2 3
M  V30 3 1 3 4
M  V30 4 1 4 5
M  V30 5 1 5 6
M  V30 6 1 6 7
M  V30 7 2 7 8
M  V30 8 1 8 9
M  V30 9 2 9 10
M  V30 10 1 10 11
M  V30 11 2 11 12
M  V30 12 1 11 13
M  V30 13 1 13 14
M  V30 14 2 14 15
M  V30 15 1 15 16
M  V30 16 1 16 17
M  V30 17 1 17 18
M  V30 18 2 18 19
M  V30 19 1 18 20
M  V30 20 2 20 21
M  V30 21 1 21 22
M  V30 22 2 22 23
M  V30 23 1 23 24
M  V30 24 1 24 25
M  V30 25 1 25 26
M  V30 26 1 25 27
M  V30 27 2 24 28
M  V30 28 2 16 29
M  V30 29 1 29 30
M  V30 30 2 30 31
M  V30 31 1 31 32
M  V30 32 1 10 33
M  V30 33 2 33 34
M  V30 34 1 34 7
M  V30 35 1 31 14
M  V30 36 1 28 20
M  V30 37 1 1 35
M  V30 38 1 1 36
M  V30 39 1 1 37
M  V30 40 1 2 38
M  V30 41 1 2 39
M  V30 42 1 4 40
M  V30 43 1 4 41
M  V30 44 1 5 42
M  V30 45 1 5 43
M  V30 46 1 8 44
M  V30 47 1 9 45
M  V30 48 1 13 46
M  V30 49 1 15 47
M  V30 50 1 17 48
M  V30 51 1 21 49
M  V30 52 1 22 50
M  V30 53 1 23 51
M  V30 54 1 26 52
M  V30 55 1 26 53
M  V30 56 1 26 54
M  V30 57 1 27 55
M  V30 58 1 27 56
M  V30 59 1 27 57
M  V30 60 1 28 58
M  V30 61 1 29 59
M  V30 62 1 30 60
M  V30 63 1 32 61
M  V30 64 1 32 62
M  V30 65 1 32 63
M  V30 66 1 33 64
M  V30 67 1 34 65
M  V30 END BOND
M  V30 END CTAB
M  END
>  <Dataset>  (747) 
ChEMBL_Kinases

>  <Ligand_Instance>  (747) 
nan

>  <PDB_ID>  (747) 
nan

>  <Standardized_SMILES>  (747) 
CCOCCOc1ccc(C(=O)Nc2cc(NC(=O)c3cccc(N(C)C)c3)ccc2C)cc1

>  <Name>  (747) 
nan

>  <Pocket>  (747) 
nan

>  <ATP_Site>  (747) 
nan

>  <Peripheral>  (747) 
nan

>  <Num_H_Atoms_ProtBoundConf>  (747) 
nan

>  <Num_Resolved_Atoms>  (747) 
nan

>  <Num_Not_Resolved_Atoms>  (747) 
nan

$$$$
CHEMBL185153
     RDKit          3D

  0  0  0  0  0  0  0  0  0  0999 V3000
M  V30 BEGIN CTAB
M  V30 COUNTS 43 45 0 0 0
M  V30 BEGIN ATOM
M  V30 1 C 0.193940 -4.246193 -1.693092 0
M  V30 2 N 0.407485 -3.162872 -0.787923 0
M  V30 3 C 0.510347 -3.558301 0.568274 0
M  V30 4 C -0.824072 -3.648008 1.222414 0
M  V30 5 C -1.820842 -2.748970 0.561095 0
M  V30 6 C -1.365451 -1.560012 -0.112056 0
M  V30 7 C -0.886755 -0.355806 0.505944 0
M  V30 8 C 0.423827 -0.008947 0.797487 0
M  V30 9 C 0.851752 1.146812 1.383899 0
M  V30 10 C 2.245125 1.460645 1.667532 0
M  V30 11 C 3.316397 0.641750 1.385292 0
M  V30 12 C 4.636531 0.937440 1.652861 0
M  V30 13 C 4.921650 2.159258 2.256731 0
M  V30 14 C 3.873931 3.004339 2.553467 0
M  V30 15 C 2.559116 2.663130 2.264935 0
M  V30 16 O 1.596248 3.590378 2.608749 0
M  V30 17 N -0.119399 2.043193 1.711522 0
M  V30 18 C -1.411446 1.815701 1.478064 0
M  V30 19 N -2.350859 2.816406 1.857085 0
M  V30 20 C -1.783322 0.624383 0.880280 0
M  V30 21 C -3.180856 0.433815 0.655055 0
M  V30 22 N -4.291734 0.270816 0.459651 0
M  V30 23 C -0.305383 -1.989723 -1.112732 0
M  V30 24 H -0.513745 -5.018404 -1.335781 0
M  V30 25 H 1.148537 -4.768860 -1.945834 0
M  V30 26 H -0.221633 -3.844767 -2.652918 0
M  V30 27 H 0.951875 -4.604172 0.547340 0
M  V30 28 H 1.260282 -3.000731 1.174090 0
M  V30 29 H -0.764499 -3.474580 2.334943 0
M  V30 30 H -1.144339 -4.729224 1.192228 0
M  V30 31 H -2.767283 -2.640254 1.170660 0
M  V30 32 H -2.244396 -3.403699 -0.270513 0
M  V30 33 H -2.229694 -1.223111 -0.773044 0
M  V30 34 H 1.190809 -0.722972 0.533073 0
M  V30 35 H 3.128276 -0.312749 0.917418 0
M  V30 36 H 5.434190 0.251328 1.406576 0
M  V30 37 H 5.957069 2.396102 2.468661 0
M  V30 38 H 4.115599 3.958976 3.026763 0
M  V30 39 H 1.136469 3.552788 3.511500 0
M  V30 40 H -2.535260 2.543260 2.845942 0
M  V30 41 H -2.826767 3.651949 1.409164 0
M  V30 42 H 0.451590 -1.169303 -1.295503 0
M  V30 43 H -0.748343 -2.150192 -2.140507 0
M  V30 END ATOM
M  V30 BEGIN BOND
M  V30 1 1 1 2
M  V30 2 1 2 3
M  V30 3 1 3 4
M  V30 4 1 4 5
M  V30 5 1 5 6
M  V30 6 1 6 7
M  V30 7 2 7 8
M  V30 8 1 8 9
M  V30 9 1 9 10
M  V30 10 2 10 11
M  V30 11 1 11 12
M  V30 12 2 12 13
M  V30 13 1 13 14
M  V30 14 2 14 15
M  V30 15 1 15 16
M  V30 16 2 9 17
M  V30 17 1 17 18
M  V30 18 1 18 19
M  V30 19 2 18 20
M  V30 20 1 20 21
M  V30 21 3 21 22
M  V30 22 1 6 23
M  V30 23 1 23 2
M  V30 24 1 20 7
M  V30 25 1 15 10
M  V30 26 1 1 24
M  V30 27 1 1 25
M  V30 28 1 1 26
M  V30 29 1 3 27
M  V30 30 1 3 28
M  V30 31 1 4 29
M  V30 32 1 4 30
M  V30 33 1 5 31
M  V30 34 1 5 32
M  V30 35 1 6 33
M  V30 36 1 8 34
M  V30 37 1 11 35
M  V30 38 1 12 36
M  V30 39 1 13 37
M  V30 40 1 14 38
M  V30 41 1 16 39
M  V30 42 1 19 40
M  V30 43 1 19 41
M  V30 44 1 23 42
M  V30 45 1 23 43
M  V30 END BOND
M  V30 END CTAB
M  END
>  <Dataset>  (748) 
ChEMBL_Kinases

>  <Ligand_Instance>  (748) 
nan

>  <PDB_ID>  (748) 
nan

>  <Standardized_SMILES>  (748) 
CN1CCCC(c2cc(-c3ccccc3O)nc(N)c2C#N)C1

>  <Name>  (748) 
nan

>  <Pocket>  (748) 
nan

>  <ATP_Site>  (748) 
nan

>  <Peripheral>  (748) 
nan

>  <Num_H_Atoms_ProtBoundConf>  (748) 
nan

>  <Num_Resolved_Atoms>  (748) 
nan

>  <Num_Not_Resolved_Atoms>  (748) 
nan

$$$$
CHEMBL185162
     RDKit          3D

  0  0  0  0  0  0  0  0  0  0999 V3000
M  V30 BEGIN CTAB
M  V30 COUNTS 51 54 0 0 0
M  V30 BEGIN ATOM
M  V30 1 C -0.922049 -5.740800 4.260872 0
M  V30 2 C -0.613519 -4.488359 3.555060 0
M  V30 3 C -0.491524 -3.293023 4.259743 0
M  V30 4 C -0.202985 -2.101902 3.626243 0
M  V30 5 C -0.036177 -2.127314 2.256275 0
M  V30 6 N 0.260155 -0.876359 1.645319 0
M  V30 7 C 1.546945 -0.364432 1.439000 0
M  V30 8 O 2.551380 -1.026966 1.806143 0
M  V30 9 C 1.805261 0.927559 0.806201 0
M  V30 10 C 3.129331 1.326006 0.656946 0
M  V30 11 C 3.428603 2.550349 0.059220 0
M  V30 12 N 2.431519 3.367488 -0.383868 0
M  V30 13 C 1.160233 2.957508 -0.226926 0
M  V30 14 N 0.181907 3.867399 -0.715504 0
M  V30 15 C 0.560580 5.109995 -1.319565 0
M  V30 16 C -0.282683 6.266193 -0.831648 0
M  V30 17 O -1.062846 5.882669 0.276632 0
M  V30 18 C -1.979670 4.945006 -0.191330 0
M  V30 19 C -1.259721 3.717428 -0.694066 0
M  V30 20 C 0.803455 1.760861 0.354913 0
M  V30 21 C -0.139212 -3.266615 1.478709 0
M  V30 22 C -0.429557 -4.413308 2.189078 0
M  V30 23 N -0.554828 -5.634436 1.474524 0
M  V30 24 C -0.405222 -5.781768 0.069980 0
M  V30 25 C -1.463614 -5.658631 -0.804802 0
M  V30 26 C -1.217214 -5.819765 -2.158265 0
M  V30 27 N 0.017596 -6.089390 -2.618266 0
M  V30 28 C 1.013120 -6.197840 -1.708755 0
M  V30 29 N 0.843759 -6.052761 -0.375053 0
M  V30 30 H -1.295310 -5.496725 5.276401 0
M  V30 31 H -1.691798 -6.350606 3.705768 0
M  V30 32 H 0.024105 -6.305431 4.398795 0
M  V30 33 H -0.635940 -3.343210 5.343976 0
M  V30 34 H -0.111506 -1.180243 4.189823 0
M  V30 35 H -0.583218 -0.339472 1.346739 0
M  V30 36 H 3.967568 0.713684 0.992381 0
M  V30 37 H 4.462160 2.898571 -0.075806 0
M  V30 38 H 1.641514 5.333039 -1.185888 0
M  V30 39 H 0.400217 4.986364 -2.425482 0
M  V30 40 H 0.381098 7.111812 -0.557794 0
M  V30 41 H -0.997805 6.609691 -1.615478 0
M  V30 42 H -2.644313 4.702552 0.679154 0
M  V30 43 H -2.676217 5.377621 -0.951323 0
M  V30 44 H -1.590489 2.835660 -0.130629 0
M  V30 45 H -1.588862 3.519336 -1.754667 0
M  V30 46 H -0.207312 1.461808 0.466358 0
M  V30 47 H -0.005770 -3.269394 0.407362 0
M  V30 48 H -0.768188 -6.548847 1.896502 0
M  V30 49 H -2.458009 -5.441548 -0.434906 0
M  V30 50 H -2.025974 -5.731043 -2.889448 0
M  V30 51 H 1.978729 -6.415117 -2.143987 0
M  V30 END ATOM
M  V30 BEGIN BOND
M  V30 1 1 1 2
M  V30 2 2 2 3
M  V30 3 1 3 4
M  V30 4 2 4 5
M  V30 5 1 5 6
M  V30 6 1 6 7
M  V30 7 2 7 8
M  V30 8 1 7 9
M  V30 9 2 9 10
M  V30 10 1 10 11
M  V30 11 2 11 12
M  V30 12 1 12 13
M  V30 13 1 13 14
M  V30 14 1 14 15
M  V30 15 1 15 16
M  V30 16 1 16 17
M  V30 17 1 17 18
M  V30 18 1 18 19
M  V30 19 2 13 20
M  V30 20 1 5 21
M  V30 21 2 21 22
M  V30 22 1 22 23
M  V30 23 1 23 24
M  V30 24 2 24 25
M  V30 25 1 25 26
M  V30 26 2 26 27
M  V30 27 1 27 28
M  V30 28 2 28 29
M  V30 29 1 22 2
M  V30 30 1 29 24
M  V30 31 1 20 9
M  V30 32 1 19 14
M  V30 33 1 1 30
M  V30 34 1 1 31
M  V30 35 1 1 32
M  V30 36 1 3 33
M  V30 37 1 4 34
M  V30 38 1 6 35
M  V30 39 1 10 36
M  V30 40 1 11 37
M  V30 41 1 15 38
M  V30 42 1 15 39
M  V30 43 1 16 40
M  V30 44 1 16 41
M  V30 45 1 18 42
M  V30 46 1 18 43
M  V30 47 1 19 44
M  V30 48 1 19 45
M  V30 49 1 20 46
M  V30 50 1 21 47
M  V30 51 1 23 48
M  V30 52 1 25 49
M  V30 53 1 26 50
M  V30 54 1 28 51
M  V30 END BOND
M  V30 END CTAB
M  END
>  <Dataset>  (749) 
ChEMBL_Kinases

>  <Ligand_Instance>  (749) 
nan

>  <PDB_ID>  (749) 
nan

>  <Standardized_SMILES>  (749) 
Cc1ccc(NC(=O)c2ccnc(N3CCOCC3)c2)cc1Nc1ccncn1

>  <Name>  (749) 
nan

>  <Pocket>  (749) 
nan

>  <ATP_Site>  (749) 
nan

>  <Peripheral>  (749) 
nan

>  <Num_H_Atoms_ProtBoundConf>  (749) 
nan

>  <Num_Resolved_Atoms>  (749) 
nan

>  <Num_Not_Resolved_Atoms>  (749) 
nan

$$$$
CHEMBL185238
     RDKit          3D

  0  0  0  0  0  0  0  0  0  0999 V3000
M  V30 BEGIN CTAB
M  V30 COUNTS 35 38 0 0 0
M  V30 BEGIN ATOM
M  V30 1 C -0.835486 -3.530183 1.982248 0
M  V30 2 C 0.477329 -2.821319 1.941078 0
M  V30 3 C 1.271639 -2.835845 3.067491 0
M  V30 4 C 2.504064 -2.191338 3.083220 0
M  V30 5 C 2.899846 -1.535538 1.923021 0
M  V30 6 C 2.087021 -1.533706 0.804264 0
M  V30 7 C 2.590422 -0.819212 -0.360798 0
M  V30 8 N 3.657623 -0.913929 -1.176151 0
M  V30 9 N 3.593847 0.042390 -2.104565 0
M  V30 10 C 2.469408 0.782516 -1.903543 0
M  V30 11 C 1.811349 0.246732 -0.790144 0
M  V30 12 C 0.559765 0.897907 -0.389475 0
M  V30 13 C 0.433718 2.212277 0.012570 0
M  V30 14 C -0.803067 2.714077 0.367076 0
M  V30 15 C -1.883211 1.859123 0.302069 0
M  V30 16 N -3.138327 2.280324 0.636336 0
M  V30 17 C -4.184374 1.405230 0.559749 0
M  V30 18 C -4.088513 0.090577 0.162839 0
M  V30 19 C -2.818897 -0.351777 -0.180009 0
M  V30 20 C -1.770960 0.543523 -0.097954 0
M  V30 21 N -0.537539 0.113554 -0.431082 0
M  V30 22 N 0.886470 -2.177960 0.831467 0
M  V30 23 H -1.314271 -3.547898 0.998355 0
M  V30 24 H -1.506688 -3.024681 2.734628 0
M  V30 25 H -0.686578 -4.550714 2.345588 0
M  V30 26 H 1.001376 -3.330180 3.979712 0
M  V30 27 H 3.167969 -2.176447 3.955154 0
M  V30 28 H 3.854954 -1.037756 1.938929 0
M  V30 29 H 4.348838 0.114797 -2.824871 0
M  V30 30 H 2.239568 1.618973 -2.566864 0
M  V30 31 H 1.335724 2.805935 0.031777 0
M  V30 32 H -0.914991 3.740595 0.683700 0
M  V30 33 H -5.106187 1.913135 0.862691 0
M  V30 34 H -4.993220 -0.502225 0.144155 0
M  V30 35 H -2.714460 -1.372410 -0.493369 0
M  V30 END ATOM
M  V30 BEGIN BOND
M  V30 1 1 1 2
M  V30 2 2 2 3
M  V30 3 1 3 4
M  V30 4 2 4 5
M  V30 5 1 5 6
M  V30 6 1 6 7
M  V30 7 2 7 8
M  V30 8 1 8 9
M  V30 9 1 9 10
M  V30 10 2 10 11
M  V30 11 1 11 12
M  V30 12 2 12 13
M  V30 13 1 13 14
M  V30 14 2 14 15
M  V30 15 1 15 16
M  V30 16 2 16 17
M  V30 17 1 17 18
M  V30 18 2 18 19
M  V30 19 1 19 20
M  V30 20 2 20 21
M  V30 21 2 6 22
M  V30 22 1 22 2
M  V30 23 1 11 7
M  V30 24 1 21 12
M  V30 25 1 20 15
M  V30 26 1 1 23
M  V30 27 1 1 24
M  V30 28 1 1 25
M  V30 29 1 3 26
M  V30 30 1 4 27
M  V30 31 1 5 28
M  V30 32 1 9 29
M  V30 33 1 10 30
M  V30 34 1 13 31
M  V30 35 1 14 32
M  V30 36 1 17 33
M  V30 37 1 18 34
M  V30 38 1 19 35
M  V30 END BOND
M  V30 END CTAB
M  END
>  <Dataset>  (750) 
ChEMBL_Kinases

>  <Ligand_Instance>  (750) 
nan

>  <PDB_ID>  (750) 
nan

>  <Standardized_SMILES>  (750) 
Cc1cccc(-c2n[nH]cc2-c2ccc3ncccc3n2)n1

>  <Name>  (750) 
GW786460X

>  <Pocket>  (750) 
nan

>  <ATP_Site>  (750) 
nan

>  <Peripheral>  (750) 
nan

>  <Num_H_Atoms_ProtBoundConf>  (750) 
nan

>  <Num_Resolved_Atoms>  (750) 
nan

>  <Num_Not_Resolved_Atoms>  (750) 
nan

$$$$
CHEMBL185315
     RDKit          3D

  0  0  0  0  0  0  0  0  0  0999 V3000
M  V30 BEGIN CTAB
M  V30 COUNTS 70 74 0 0 0
M  V30 BEGIN ATOM
M  V30 1 C 5.196641 -1.869098 3.962894 0
M  V30 2 C 4.545922 -1.575034 2.640907 0
M  V30 3 C 5.211046 -0.773723 1.748779 0
M  V30 4 C 4.634545 -0.487392 0.533408 0
M  V30 5 C 3.402542 -1.018314 0.252472 0
M  V30 6 N 2.579590 -0.859318 -0.923412 0
M  V30 7 C 1.779863 0.289496 -0.577753 0
M  V30 8 O 2.073649 0.738824 0.582367 0
M  V30 9 C 0.739583 0.944675 -1.364612 0
M  V30 10 C 0.202188 2.058607 -0.762916 0
M  V30 11 C -0.811392 2.747072 -1.438223 0
M  V30 12 N -1.202798 2.276834 -2.641707 0
M  V30 13 C -0.649560 1.186379 -3.188566 0
M  V30 14 N -1.187557 0.828312 -4.452681 0
M  V30 15 C -2.226212 1.622433 -5.087259 0
M  V30 16 C -3.464583 0.779079 -5.253217 0
M  V30 17 O -3.116179 -0.230849 -6.171994 0
M  V30 18 C -2.163633 -1.058249 -5.534210 0
M  V30 19 C -0.866893 -0.295793 -5.308586 0
M  V30 20 C 0.337240 0.481632 -2.576166 0
M  V30 21 C 2.744114 -1.830578 1.171522 0
M  V30 22 C 3.290380 -2.139506 2.401073 0
M  V30 23 N 2.628389 -2.972203 3.354221 0
M  V30 24 C 1.378911 -3.525101 2.980141 0
M  V30 25 C 1.427657 -4.839586 2.635442 0
M  V30 26 C 0.263495 -5.497632 2.231190 0
M  V30 27 N -0.873398 -4.777380 2.203050 0
M  V30 28 C -0.935017 -3.475912 2.541195 0
M  V30 29 O -2.204590 -2.943239 2.435057 0
M  V30 30 C -2.362625 -1.587676 2.744064 0
M  V30 31 C -3.394979 -1.256579 3.737781 0
M  V30 32 C -3.542295 0.237655 3.841483 0
M  V30 33 N -2.446602 0.948302 3.243362 0
M  V30 34 C -2.598017 2.372129 3.393410 0
M  V30 35 C -2.302349 0.656891 1.828359 0
M  V30 36 C -2.673106 -0.765556 1.482827 0
M  V30 37 N 0.199654 -2.857389 2.929815 0
M  V30 38 H 5.427036 -2.960630 4.051460 0
M  V30 39 H 6.152689 -1.345571 4.048839 0
M  V30 40 H 4.526750 -1.549904 4.793217 0
M  V30 41 H 6.172027 -0.338427 1.925403 0
M  V30 42 H 5.020613 0.121025 -0.272931 0
M  V30 43 H 2.376779 -1.254700 -1.865388 0
M  V30 44 H 0.475926 2.485174 0.203419 0
M  V30 45 H -1.284094 3.631816 -1.027981 0
M  V30 46 H -1.844739 1.925791 -6.079091 0
M  V30 47 H -2.416457 2.553251 -4.514429 0
M  V30 48 H -4.301352 1.389613 -5.610106 0
M  V30 49 H -3.696310 0.280599 -4.275617 0
M  V30 50 H -2.610260 -1.323393 -4.550783 0
M  V30 51 H -1.994627 -1.973830 -6.127062 0
M  V30 52 H -0.151505 -0.998252 -4.865227 0
M  V30 53 H -0.551914 0.097369 -6.300256 0
M  V30 54 H 0.769237 -0.381582 -3.019887 0
M  V30 55 H 1.772233 -2.285571 1.021485 0
M  V30 56 H 3.114747 -3.119195 4.269620 0
M  V30 57 H 2.303161 -5.473624 2.635233 0
M  V30 58 H 0.254933 -6.549412 1.946766 0
M  V30 59 H -1.381053 -1.197682 3.076692 0
M  V30 60 H -4.385066 -1.617168 3.322560 0
M  V30 61 H -3.286617 -1.756008 4.718394 0
M  V30 62 H -4.517183 0.625789 3.476490 0
M  V30 63 H -3.490082 0.481449 4.943224 0
M  V30 64 H -2.789679 2.825822 2.419504 0
M  V30 65 H -1.639415 2.784291 3.761246 0
M  V30 66 H -3.360242 2.627556 4.149069 0
M  V30 67 H -2.937674 1.400100 1.307282 0
M  V30 68 H -1.238390 0.783971 1.570000 0
M  V30 69 H -2.060156 -1.174812 0.654203 0
M  V30 70 H -3.761173 -0.880390 1.239640 0
M  V30 END ATOM
M  V30 BEGIN BOND
M  V30 1 1 1 2
M  V30 2 2 2 3
M  V30 3 1 3 4
M  V30 4 2 4 5
M  V30 5 1 5 6
M  V30 6 1 6 7
M  V30 7 2 7 8
M  V30 8 1 7 9
M  V30 9 2 9 10
M  V30 10 1 10 11
M  V30 11 2 11 12
M  V30 12 1 12 13
M  V30 13 1 13 14
M  V30 14 1 14 15
M  V30 15 1 15 16
M  V30 16 1 16 17
M  V30 17 1 17 18
M  V30 18 1 18 19
M  V30 19 2 13 20
M  V30 20 1 5 21
M  V30 21 2 21 22
M  V30 22 1 22 23
M  V30 23 1 23 24
M  V30 24 2 24 25
M  V30 25 1 25 26
M  V30 26 2 26 27
M  V30 27 1 27 28
M  V30 28 1 28 29
M  V30 29 1 29 30
M  V30 30 1 30 31
M  V30 31 1 31 32
M  V30 32 1 32 33
M  V30 33 1 33 34
M  V30 34 1 33 35
M  V30 35 1 35 36
M  V30 36 2 28 37
M  V30 37 1 22 2
M  V30 38 1 37 24
M  V30 39 1 20 9
M  V30 40 1 36 30
M  V30 41 1 19 14
M  V30 42 1 1 38
M  V30 43 1 1 39
M  V30 44 1 1 40
M  V30 45 1 3 41
M  V30 46 1 4 42
M  V30 47 1 6 43
M  V30 48 1 10 44
M  V30 49 1 11 45
M  V30 50 1 15 46
M  V30 51 1 15 47
M  V30 52 1 16 48
M  V30 53 1 16 49
M  V30 54 1 18 50
M  V30 55 1 18 51
M  V30 56 1 19 52
M  V30 57 1 19 53
M  V30 58 1 20 54
M  V30 59 1 21 55
M  V30 60 1 23 56
M  V30 61 1 25 57
M  V30 62 1 26 58
M  V30 63 1 30 59
M  V30 64 1 31 60
M  V30 65 1 31 61
M  V30 66 1 32 62
M  V30 67 1 32 63
M  V30 68 1 34 64
M  V30 69 1 34 65
M  V30 70 1 34 66
M  V30 71 1 35 67
M  V30 72 1 35 68
M  V30 73 1 36 69
M  V30 74 1 36 70
M  V30 END BOND
M  V30 END CTAB
M  END
>  <Dataset>  (751) 
ChEMBL_Kinases

>  <Ligand_Instance>  (751) 
nan

>  <PDB_ID>  (751) 
nan

>  <Standardized_SMILES>  (751) 
Cc1ccc(NC(=O)c2ccnc(N3CCOCC3)c2)cc1Nc1ccnc(OC2CCN(C)CC2)n1

>  <Name>  (751) 
nan

>  <Pocket>  (751) 
nan

>  <ATP_Site>  (751) 
nan

>  <Peripheral>  (751) 
nan

>  <Num_H_Atoms_ProtBoundConf>  (751) 
nan

>  <Num_Resolved_Atoms>  (751) 
nan

>  <Num_Not_Resolved_Atoms>  (751) 
nan

$$$$
CHEMBL185327
     RDKit          3D

  0  0  0  0  0  0  0  0  0  0999 V3000
M  V30 BEGIN CTAB
M  V30 COUNTS 50 53 0 0 0
M  V30 BEGIN ATOM
M  V30 1 C 1.507661 -4.803549 3.415810 0
M  V30 2 O 1.104032 -4.557396 2.088772 0
M  V30 3 C 1.596400 -3.477076 1.364618 0
M  V30 4 C 2.503969 -2.589065 1.901957 0
M  V30 5 C 3.017555 -1.498861 1.206247 0
M  V30 6 N 3.887811 -0.646097 1.757633 0
M  V30 7 C 4.347265 0.399657 1.058641 0
M  V30 8 N 3.947229 0.616120 -0.207776 0
M  V30 9 C 3.071420 -0.212092 -0.815867 0
M  V30 10 N 2.558545 -0.087732 -2.135475 0
M  V30 11 C 1.204092 0.330993 -2.220297 0
M  V30 12 C 0.417742 0.610207 -1.101395 0
M  V30 13 C -0.914120 0.988728 -1.121492 0
M  V30 14 N -1.509412 1.210925 0.147074 0
M  V30 15 C -1.752378 2.260822 1.052492 0
M  V30 16 O -1.345868 3.393423 0.689276 0
M  V30 17 C -2.435121 1.984604 2.311651 0
M  V30 18 C -2.878322 0.745384 2.721839 0
M  V30 19 C -3.511147 0.541635 3.928440 0
M  V30 20 C -3.684997 1.663388 4.727775 0
M  V30 21 C -3.248345 2.934942 4.343725 0
M  V30 22 C -2.611304 3.091419 3.109014 0
M  V30 23 C -1.519614 1.102047 -2.356916 0
M  V30 24 C -0.782576 0.837449 -3.497731 0
M  V30 25 C 0.537983 0.464243 -3.419445 0
M  V30 26 Cl 1.404834 0.145764 -4.904797 0
M  V30 27 C 2.584035 -1.300673 -0.107516 0
M  V30 28 C 1.678749 -2.202826 -0.619118 0
M  V30 29 C 1.164063 -3.282787 0.058088 0
M  V30 30 O 0.259792 -4.188858 -0.444592 0
M  V30 31 C -0.288252 -4.170912 -1.742577 0
M  V30 32 H 0.819181 -5.516453 3.913558 0
M  V30 33 H 1.468115 -3.831604 3.968652 0
M  V30 34 H 2.573667 -5.125365 3.440512 0
M  V30 35 H 2.857045 -2.724325 2.931165 0
M  V30 36 H 5.065449 1.097708 1.520671 0
M  V30 37 H 3.049656 -0.265090 -3.013651 0
M  V30 38 H 0.929132 0.518221 -0.134732 0
M  V30 39 H -1.794479 0.213692 0.306620 0
M  V30 40 H -2.722983 -0.100003 2.068829 0
M  V30 41 H -3.849850 -0.428090 4.237508 0
M  V30 42 H -4.165319 1.622199 5.690942 0
M  V30 43 H -3.396525 3.804221 4.991562 0
M  V30 44 H -2.288190 4.083247 2.843231 0
M  V30 45 H -2.558393 1.397039 -2.328648 0
M  V30 46 H -1.317700 0.943500 -4.448442 0
M  V30 47 H 1.315097 -2.084115 -1.649339 0
M  V30 48 H -0.342120 -3.134316 -2.165998 0
M  V30 49 H -1.329312 -4.608611 -1.730096 0
M  V30 50 H 0.277330 -4.807120 -2.461137 0
M  V30 END ATOM
M  V30 BEGIN BOND
M  V30 1 1 1 2
M  V30 2 1 2 3
M  V30 3 2 3 4
M  V30 4 1 4 5
M  V30 5 2 5 6
M  V30 6 1 6 7
M  V30 7 2 7 8
M  V30 8 1 8 9
M  V30 9 1 9 10
M  V30 10 1 10 11
M  V30 11 2 11 12
M  V30 12 1 12 13
M  V30 13 1 13 14
M  V30 14 1 14 15
M  V30 15 2 15 16
M  V30 16 1 15 17
M  V30 17 2 17 18
M  V30 18 1 18 19
M  V30 19 2 19 20
M  V30 20 1 20 21
M  V30 21 2 21 22
M  V30 22 2 13 23
M  V30 23 1 23 24
M  V30 24 2 24 25
M  V30 25 1 25 26
M  V30 26 2 9 27
M  V30 27 1 27 28
M  V30 28 2 28 29
M  V30 29 1 29 30
M  V30 30 1 30 31
M  V30 31 1 29 3
M  V30 32 1 27 5
M  V30 33 1 25 11
M  V30 34 1 22 17
M  V30 35 1 1 32
M  V30 36 1 1 33
M  V30 37 1 1 34
M  V30 38 1 4 35
M  V30 39 1 7 36
M  V30 40 1 10 37
M  V30 41 1 12 38
M  V30 42 1 14 39
M  V30 43 1 18 40
M  V30 44 1 19 41
M  V30 45 1 20 42
M  V30 46 1 21 43
M  V30 47 1 22 44
M  V30 48 1 23 45
M  V30 49 1 24 46
M  V30 50 1 28 47
M  V30 51 1 31 48
M  V30 52 1 31 49
M  V30 53 1 31 50
M  V30 END BOND
M  V30 END CTAB
M  END
>  <Dataset>  (752) 
ChEMBL_Kinases

>  <Ligand_Instance>  (752) 
nan

>  <PDB_ID>  (752) 
nan

>  <Standardized_SMILES>  (752) 
COc1cc2ncnc(Nc3cc(NC(=O)c4ccccc4)ccc3Cl)c2cc1OC

>  <Name>  (752) 
nan

>  <Pocket>  (752) 
nan

>  <ATP_Site>  (752) 
nan

>  <Peripheral>  (752) 
nan

>  <Num_H_Atoms_ProtBoundConf>  (752) 
nan

>  <Num_Resolved_Atoms>  (752) 
nan

>  <Num_Not_Resolved_Atoms>  (752) 
nan

$$$$
CHEMBL185328
     RDKit          3D

  0  0  0  0  0  0  0  0  0  0999 V3000
M  V30 BEGIN CTAB
M  V30 COUNTS 51 54 0 0 0
M  V30 BEGIN ATOM
M  V30 1 C 0.102507 -6.070364 1.158458 0
M  V30 2 C 0.444015 -4.675915 0.735027 0
M  V30 3 C 1.414828 -4.007662 1.480762 0
M  V30 4 C 1.744806 -2.712431 1.102497 0
M  V30 5 C 1.119753 -2.112332 0.012945 0
M  V30 6 N 1.605413 -0.784393 -0.201551 0
M  V30 7 C 0.827766 0.141658 0.527528 0
M  V30 8 O -0.106805 -0.414478 1.192810 0
M  V30 9 C 1.052582 1.586847 0.533232 0
M  V30 10 C 2.063785 2.192034 -0.186452 0
M  V30 11 C 2.263645 3.557218 -0.171127 0
M  V30 12 N 1.407138 4.294203 0.596519 0
M  V30 13 C 0.422767 3.700303 1.296494 0
M  V30 14 N -0.395001 4.585991 2.052530 0
M  V30 15 C -0.136527 6.016444 2.034349 0
M  V30 16 C -0.054254 6.422510 3.504500 0
M  V30 17 O 0.031797 5.335843 4.360083 0
M  V30 18 C -1.050563 4.482618 4.319285 0
M  V30 19 C -1.520993 4.208624 2.887363 0
M  V30 20 C 0.193303 2.345709 1.305839 0
M  V30 21 C 0.165023 -2.796456 -0.704504 0
M  V30 22 C -0.173242 -4.082130 -0.341629 0
M  V30 23 N -1.154982 -4.760243 -1.094572 0
M  V30 24 C -1.131449 -5.965028 -1.847472 0
M  V30 25 C -2.247100 -6.427070 -2.509333 0
M  V30 26 C -2.110979 -7.599670 -3.204282 0
M  V30 27 N -0.963732 -8.334025 -3.287087 0
M  V30 28 C 0.109949 -7.831263 -2.613455 0
M  V30 29 Cl 1.642072 -8.686025 -2.644498 0
M  V30 30 N 0.018887 -6.681045 -1.917679 0
M  V30 31 H 0.886843 -6.791399 0.804919 0
M  V30 32 H -0.850825 -6.416817 0.761416 0
M  V30 33 H 0.135372 -6.122462 2.259436 0
M  V30 34 H 1.876030 -4.506727 2.317951 0
M  V30 35 H 2.510576 -2.257443 1.733369 0
M  V30 36 H 2.402896 -0.423789 -0.783664 0
M  V30 37 H 2.728834 1.590010 -0.786258 0
M  V30 38 H 3.069266 3.989763 -0.750785 0
M  V30 39 H -1.044437 6.556551 1.641417 0
M  V30 40 H 0.773069 6.260601 1.473583 0
M  V30 41 H -0.862938 7.079867 3.826555 0
M  V30 42 H 0.924158 6.963184 3.620928 0
M  V30 43 H -1.900728 4.819812 4.947446 0
M  V30 44 H -0.723834 3.500560 4.720312 0
M  V30 45 H -2.351563 4.951144 2.727367 0
M  V30 46 H -1.893730 3.200427 2.733594 0
M  V30 47 H -0.596735 1.888813 1.870242 0
M  V30 48 H -0.249206 -2.243895 -1.518115 0
M  V30 49 H -2.050251 -4.217267 -1.047918 0
M  V30 50 H -3.161459 -5.883749 -2.469846 0
M  V30 51 H -2.958043 -7.993359 -3.733870 0
M  V30 END ATOM
M  V30 BEGIN BOND
M  V30 1 1 1 2
M  V30 2 2 2 3
M  V30 3 1 3 4
M  V30 4 2 4 5
M  V30 5 1 5 6
M  V30 6 1 6 7
M  V30 7 2 7 8
M  V30 8 1 7 9
M  V30 9 2 9 10
M  V30 10 1 10 11
M  V30 11 2 11 12
M  V30 12 1 12 13
M  V30 13 1 13 14
M  V30 14 1 14 15
M  V30 15 1 15 16
M  V30 16 1 16 17
M  V30 17 1 17 18
M  V30 18 1 18 19
M  V30 19 2 13 20
M  V30 20 1 5 21
M  V30 21 2 21 22
M  V30 22 1 22 23
M  V30 23 1 23 24
M  V30 24 2 24 25
M  V30 25 1 25 26
M  V30 26 2 26 27
M  V30 27 1 27 28
M  V30 28 1 28 29
M  V30 29 2 28 30
M  V30 30 1 22 2
M  V30 31 1 30 24
M  V30 32 1 20 9
M  V30 33 1 19 14
M  V30 34 1 1 31
M  V30 35 1 1 32
M  V30 36 1 1 33
M  V30 37 1 3 34
M  V30 38 1 4 35
M  V30 39 1 6 36
M  V30 40 1 10 37
M  V30 41 1 11 38
M  V30 42 1 15 39
M  V30 43 1 15 40
M  V30 44 1 16 41
M  V30 45 1 16 42
M  V30 46 1 18 43
M  V30 47 1 18 44
M  V30 48 1 19 45
M  V30 49 1 19 46
M  V30 50 1 20 47
M  V30 51 1 21 48
M  V30 52 1 23 49
M  V30 53 1 25 50
M  V30 54 1 26 51
M  V30 END BOND
M  V30 END CTAB
M  END
>  <Dataset>  (753) 
ChEMBL_Kinases

>  <Ligand_Instance>  (753) 
nan

>  <PDB_ID>  (753) 
nan

>  <Standardized_SMILES>  (753) 
Cc1ccc(NC(=O)c2ccnc(N3CCOCC3)c2)cc1Nc1ccnc(Cl)n1

>  <Name>  (753) 
nan

>  <Pocket>  (753) 
nan

>  <ATP_Site>  (753) 
nan

>  <Peripheral>  (753) 
nan

>  <Num_H_Atoms_ProtBoundConf>  (753) 
nan

>  <Num_Resolved_Atoms>  (753) 
nan

>  <Num_Not_Resolved_Atoms>  (753) 
nan

$$$$
CHEMBL185448
     RDKit          3D

  0  0  0  0  0  0  0  0  0  0999 V3000
M  V30 BEGIN CTAB
M  V30 COUNTS 58 60 0 0 0
M  V30 BEGIN ATOM
M  V30 1 C 6.316479 -5.220209 3.743301 0
M  V30 2 C 7.551801 -4.491478 3.261239 0
M  V30 3 O 7.308043 -3.090561 3.307340 0
M  V30 4 C 6.304181 -2.481671 2.593853 0
M  V30 5 C 6.208615 -1.095636 2.761057 0
M  V30 6 C 5.220628 -0.375306 2.080063 0
M  V30 7 C 4.318381 -0.985254 1.233727 0
M  V30 8 C 3.329589 -0.139869 0.575448 0
M  V30 9 O 3.362532 1.092395 0.826660 0
M  V30 10 N 2.388394 -0.715897 -0.302214 0
M  V30 11 C 1.334785 -0.128064 -1.060211 0
M  V30 12 C 0.041516 0.023956 -0.589561 0
M  V30 13 C -0.951229 0.592109 -1.338237 0
M  V30 14 N -2.275363 0.738862 -0.838672 0
M  V30 15 C -2.915534 1.765083 -0.124415 0
M  V30 16 O -2.309538 2.805084 0.195020 0
M  V30 17 C -4.314381 1.627251 0.258182 0
M  V30 18 C -4.868810 2.695840 0.963238 0
M  V30 19 C -6.209140 2.596384 1.346170 0
M  V30 20 C -7.021231 1.513154 1.074297 0
M  V30 21 C -6.438109 0.476093 0.375728 0
M  V30 22 N -7.217774 -0.669856 0.062863 0
M  V30 23 C -8.605004 -0.721042 0.484907 0
M  V30 24 C -6.616448 -1.773711 -0.674026 0
M  V30 25 C -5.111465 0.539795 -0.020427 0
M  V30 26 C -0.638140 1.031399 -2.622583 0
M  V30 27 C 0.627706 0.916809 -3.167302 0
M  V30 28 C 1.587647 0.325921 -2.341373 0
M  V30 29 C 2.983989 0.167584 -2.864270 0
M  V30 30 C 4.428186 -2.334336 1.084595 0
M  V30 31 C 5.387477 -3.058728 1.741383 0
M  V30 32 H 6.000567 -6.001598 3.030796 0
M  V30 33 H 6.522553 -5.751664 4.713278 0
M  V30 34 H 5.471426 -4.538483 3.988203 0
M  V30 35 H 7.754386 -4.701648 2.175395 0
M  V30 36 H 8.455824 -4.766907 3.806252 0
M  V30 37 H 6.904855 -0.559351 3.425467 0
M  V30 38 H 5.218661 0.697131 2.268415 0
M  V30 39 H 2.329861 -1.731269 -0.534585 0
M  V30 40 H -0.195383 -0.318740 0.407194 0
M  V30 41 H -2.724893 -0.154600 -1.136285 0
M  V30 42 H -4.320936 3.585996 1.225093 0
M  V30 43 H -6.620213 3.445305 1.896521 0
M  V30 44 H -8.049206 1.526982 1.412242 0
M  V30 45 H -9.022100 -1.747703 0.384847 0
M  V30 46 H -8.711509 -0.396462 1.543558 0
M  V30 47 H -9.192752 -0.048187 -0.177925 0
M  V30 48 H -7.303942 -2.636653 -0.704882 0
M  V30 49 H -6.396074 -1.440896 -1.709510 0
M  V30 50 H -5.627570 -2.051137 -0.220539 0
M  V30 51 H -4.671914 -0.282940 -0.567265 0
M  V30 52 H -1.426007 1.490290 -3.237191 0
M  V30 53 H 0.866859 1.256704 -4.158282 0
M  V30 54 H 3.664881 0.904953 -2.358319 0
M  V30 55 H 3.024526 0.397522 -3.933193 0
M  V30 56 H 3.368307 -0.869003 -2.732121 0
M  V30 57 H 3.735914 -2.841447 0.427712 0
M  V30 58 H 5.480704 -4.130148 1.626610 0
M  V30 END ATOM
M  V30 BEGIN BOND
M  V30 1 1 1 2
M  V30 2 1 2 3
M  V30 3 1 3 4
M  V30 4 2 4 5
M  V30 5 1 5 6
M  V30 6 2 6 7
M  V30 7 1 7 8
M  V30 8 2 8 9
M  V30 9 1 8 10
M  V30 10 1 10 11
M  V30 11 2 11 12
M  V30 12 1 12 13
M  V30 13 1 13 14
M  V30 14 1 14 15
M  V30 15 2 15 16
M  V30 16 1 15 17
M  V30 17 2 17 18
M  V30 18 1 18 19
M  V30 19 2 19 20
M  V30 20 1 20 21
M  V30 21 1 21 22
M  V30 22 1 22 23
M  V30 23 1 22 24
M  V30 24 2 21 25
M  V30 25 2 13 26
M  V30 26 1 26 27
M  V30 27 2 27 28
M  V30 28 1 28 29
M  V30 29 1 7 30
M  V30 30 2 30 31
M  V30 31 1 31 4
M  V30 32 1 28 11
M  V30 33 1 25 17
M  V30 34 1 1 32
M  V30 35 1 1 33
M  V30 36 1 1 34
M  V30 37 1 2 35
M  V30 38 1 2 36
M  V30 39 1 5 37
M  V30 40 1 6 38
M  V30 41 1 10 39
M  V30 42 1 12 40
M  V30 43 1 14 41
M  V30 44 1 18 42
M  V30 45 1 19 43
M  V30 46 1 20 44
M  V30 47 1 23 45
M  V30 48 1 23 46
M  V30 49 1 23 47
M  V30 50 1 24 48
M  V30 51 1 24 49
M  V30 52 1 24 50
M  V30 53 1 25 51
M  V30 54 1 26 52
M  V30 55 1 27 53
M  V30 56 1 29 54
M  V30 57 1 29 55
M  V30 58 1 29 56
M  V30 59 1 30 57
M  V30 60 1 31 58
M  V30 END BOND
M  V30 END CTAB
M  END
>  <Dataset>  (754) 
ChEMBL_Kinases

>  <Ligand_Instance>  (754) 
nan

>  <PDB_ID>  (754) 
nan

>  <Standardized_SMILES>  (754) 
CCOc1ccc(C(=O)Nc2cc(NC(=O)c3cccc(N(C)C)c3)ccc2C)cc1

>  <Name>  (754) 
nan

>  <Pocket>  (754) 
nan

>  <ATP_Site>  (754) 
nan

>  <Peripheral>  (754) 
nan

>  <Num_H_Atoms_ProtBoundConf>  (754) 
nan

>  <Num_Resolved_Atoms>  (754) 
nan

>  <Num_Not_Resolved_Atoms>  (754) 
nan

$$$$
CHEMBL184832
     RDKit          3D

  0  0  0  0  0  0  0  0  0  0999 V3000
M  V30 BEGIN CTAB
M  V30 COUNTS 33 34 0 0 0
M  V30 BEGIN ATOM
M  V30 1 N -3.165093 -4.013278 1.195386 0
M  V30 2 C -2.487567 -3.093003 0.997229 0
M  V30 3 C -1.643682 -1.977077 0.738007 0
M  V30 4 C -0.571723 -1.614125 1.561250 0
M  V30 5 C -0.309920 -2.442856 2.768967 0
M  V30 6 C 0.356875 -3.723417 2.272915 0
M  V30 7 N 0.649955 -4.594768 3.366651 0
M  V30 8 C 0.164517 -0.520846 1.203236 0
M  V30 9 C -0.057642 0.263603 0.092161 0
M  V30 10 C 0.755765 1.424440 -0.251702 0
M  V30 11 C 1.827325 1.850600 0.504172 0
M  V30 12 C 2.588309 2.951609 0.167081 0
M  V30 13 C 2.268377 3.659555 -0.972607 0
M  V30 14 C 1.185507 3.241778 -1.750519 0
M  V30 15 C 0.422513 2.125669 -1.399361 0
M  V30 16 O -0.644114 1.706516 -2.159013 0
M  V30 17 N -1.099710 -0.127779 -0.665830 0
M  V30 18 C -1.872578 -1.191724 -0.381507 0
M  V30 19 N -2.957416 -1.542341 -1.232925 0
M  V30 20 H 0.461566 -1.928116 3.384390 0
M  V30 21 H -1.221649 -2.678500 3.317211 0
M  V30 22 H -0.286013 -4.216720 1.492507 0
M  V30 23 H 1.283033 -3.445924 1.746245 0
M  V30 24 H 0.021043 -5.425264 3.365251 0
M  V30 25 H 1.639193 -4.888860 3.319970 0
M  V30 26 H 0.969658 -0.294164 1.870423 0
M  V30 27 H 2.104851 1.320629 1.402419 0
M  V30 28 H 3.423214 3.260588 0.781055 0
M  V30 29 H 2.827170 4.539304 -1.296893 0
M  V30 30 H 0.952202 3.812377 -2.641224 0
M  V30 31 H -0.834756 2.198283 -3.024040 0
M  V30 32 H -3.901507 -1.204099 -1.530462 0
M  V30 33 H -2.906722 -2.414160 -1.805333 0
M  V30 END ATOM
M  V30 BEGIN BOND
M  V30 1 3 1 2
M  V30 2 1 2 3
M  V30 3 2 3 4
M  V30 4 1 4 5
M  V30 5 1 5 6
M  V30 6 1 6 7
M  V30 7 1 4 8
M  V30 8 2 8 9
M  V30 9 1 9 10
M  V30 10 2 10 11
M  V30 11 1 11 12
M  V30 12 2 12 13
M  V30 13 1 13 14
M  V30 14 2 14 15
M  V30 15 1 15 16
M  V30 16 1 9 17
M  V30 17 2 17 18
M  V30 18 1 18 19
M  V30 19 1 18 3
M  V30 20 1 15 10
M  V30 21 1 5 20
M  V30 22 1 5 21
M  V30 23 1 6 22
M  V30 24 1 6 23
M  V30 25 1 7 24
M  V30 26 1 7 25
M  V30 27 1 8 26
M  V30 28 1 11 27
M  V30 29 1 12 28
M  V30 30 1 13 29
M  V30 31 1 14 30
M  V30 32 1 16 31
M  V30 33 1 19 32
M  V30 34 1 19 33
M  V30 END BOND
M  V30 END CTAB
M  END
>  <Dataset>  (755) 
ChEMBL_Kinases

>  <Ligand_Instance>  (755) 
nan

>  <PDB_ID>  (755) 
nan

>  <Standardized_SMILES>  (755) 
N#Cc1c(CCN)cc(-c2ccccc2O)nc1N

>  <Name>  (755) 
nan

>  <Pocket>  (755) 
nan

>  <ATP_Site>  (755) 
nan

>  <Peripheral>  (755) 
nan

>  <Num_H_Atoms_ProtBoundConf>  (755) 
nan

>  <Num_Resolved_Atoms>  (755) 
nan

>  <Num_Not_Resolved_Atoms>  (755) 
nan

$$$$
CHEMBL180452
     RDKit          3D

  0  0  0  0  0  0  0  0  0  0999 V3000
M  V30 BEGIN CTAB
M  V30 COUNTS 50 52 0 0 0
M  V30 BEGIN ATOM
M  V30 1 C 1.376967 -3.402814 2.886473 0
M  V30 2 C 2.173603 -3.275031 1.618376 0
M  V30 3 C 1.666644 -4.389860 0.693937 0
M  V30 4 O 1.964289 -2.073050 0.938840 0
M  V30 5 C 2.914089 -1.179608 0.524703 0
M  V30 6 C 4.279921 -1.279380 0.692055 0
M  V30 7 C 5.140537 -0.300902 0.223726 0
M  V30 8 C 4.648619 0.809646 -0.428655 0
M  V30 9 C 3.278883 0.932059 -0.608802 0
M  V30 10 O 2.798319 2.059281 -1.269437 0
M  V30 11 C 2.427124 -0.048357 -0.138678 0
M  V30 12 C 1.012467 0.147901 -0.363188 0
M  V30 13 C 0.096071 0.798489 0.474230 0
M  V30 14 C -1.263089 0.913939 0.121209 0
M  V30 15 C -1.915205 1.599540 1.217374 0
M  V30 16 C -1.712725 0.737149 2.478907 0
M  V30 17 C -2.247573 -0.641185 2.201264 0
M  V30 18 C -3.631810 -0.601509 1.620618 0
M  V30 19 N -4.147083 0.660110 1.339153 0
M  V30 20 C -3.392137 1.804892 1.160024 0
M  V30 21 C -1.580072 0.345248 -1.082053 0
M  V30 22 C -2.952118 0.499630 -1.448105 0
M  V30 23 N -4.057090 0.622375 -1.763780 0
M  V30 24 C -0.698049 -0.295713 -1.914557 0
M  V30 25 N -1.232906 -0.819412 -3.122012 0
M  V30 26 N 0.581947 -0.374000 -1.523676 0
M  V30 27 H 1.242037 -4.490257 3.084477 0
M  V30 28 H 1.825327 -2.904943 3.745607 0
M  V30 29 H 0.350546 -2.999471 2.769332 0
M  V30 30 H 3.234510 -3.492896 1.825698 0
M  V30 31 H 1.903728 -4.142471 -0.359809 0
M  V30 32 H 2.064462 -5.367142 0.998901 0
M  V30 33 H 0.560133 -4.351338 0.765604 0
M  V30 34 H 4.637523 -2.149703 1.201021 0
M  V30 35 H 6.204179 -0.419329 0.376497 0
M  V30 36 H 5.385209 1.537131 -0.768884 0
M  V30 37 H 2.916868 2.057759 -2.288054 0
M  V30 38 H 0.651993 1.142947 1.353859 0
M  V30 39 H -1.391419 2.579524 1.470455 0
M  V30 40 H -0.688773 0.749441 2.839477 0
M  V30 41 H -2.354786 1.197595 3.257811 0
M  V30 42 H -2.204782 -1.273315 3.106886 0
M  V30 43 H -1.581349 -1.107986 1.448772 0
M  V30 44 H -3.726306 -1.264420 0.715826 0
M  V30 45 H -4.309866 -1.094855 2.357331 0
M  V30 46 H -5.148626 0.845324 1.513116 0
M  V30 47 H -3.684191 2.521521 2.017536 0
M  V30 48 H -3.713129 2.399902 0.274538 0
M  V30 49 H -1.489068 -1.830613 -3.236797 0
M  V30 50 H -1.312319 -0.033279 -3.827880 0
M  V30 END ATOM
M  V30 BEGIN BOND
M  V30 1 1 1 2
M  V30 2 1 2 3
M  V30 3 1 2 4
M  V30 4 1 4 5
M  V30 5 2 5 6
M  V30 6 1 6 7
M  V30 7 2 7 8
M  V30 8 1 8 9
M  V30 9 1 9 10
M  V30 10 2 9 11
M  V30 11 1 11 12
M  V30 12 2 12 13
M  V30 13 1 13 14
M  V30 14 1 14 15
M  V30 15 1 15 16
M  V30 16 1 16 17
M  V30 17 1 17 18
M  V30 18 1 18 19
M  V30 19 1 19 20
M  V30 20 2 14 21
M  V30 21 1 21 22
M  V30 22 3 22 23
M  V30 23 1 21 24
M  V30 24 1 24 25
M  V30 25 2 24 26
M  V30 26 1 11 5
M  V30 27 1 26 12
M  V30 28 1 20 15
M  V30 29 1 1 27
M  V30 30 1 1 28
M  V30 31 1 1 29
M  V30 32 1 2 30
M  V30 33 1 3 31
M  V30 34 1 3 32
M  V30 35 1 3 33
M  V30 36 1 6 34
M  V30 37 1 7 35
M  V30 38 1 8 36
M  V30 39 1 10 37
M  V30 40 1 13 38
M  V30 41 1 15 39
M  V30 42 1 16 40
M  V30 43 1 16 41
M  V30 44 1 17 42
M  V30 45 1 17 43
M  V30 46 1 18 44
M  V30 47 1 18 45
M  V30 48 1 19 46
M  V30 49 1 20 47
M  V30 50 1 20 48
M  V30 51 1 25 49
M  V30 52 1 25 50
M  V30 END BOND
M  V30 END CTAB
M  END
>  <Dataset>  (756) 
ChEMBL_Kinases

>  <Ligand_Instance>  (756) 
nan

>  <PDB_ID>  (756) 
nan

>  <Standardized_SMILES>  (756) 
CC(C)Oc1cccc(O)c1-c1cc(C2CCCNC2)c(C#N)c(N)n1

>  <Name>  (756) 
nan

>  <Pocket>  (756) 
nan

>  <ATP_Site>  (756) 
nan

>  <Peripheral>  (756) 
nan

>  <Num_H_Atoms_ProtBoundConf>  (756) 
nan

>  <Num_Resolved_Atoms>  (756) 
nan

>  <Num_Not_Resolved_Atoms>  (756) 
nan

$$$$
CHEMBL1803078
     RDKit          3D

  0  0  0  0  0  0  0  0  0  0999 V3000
M  V30 BEGIN CTAB
M  V30 COUNTS 35 36 0 0 0
M  V30 BEGIN ATOM
M  V30 1 C -2.777093 -1.777297 0.150120 0
M  V30 2 C -1.807938 -1.798034 1.303342 0
M  V30 3 C -0.836393 -2.896204 1.198706 0
M  V30 4 N 0.016018 -2.935598 0.055712 0
M  V30 5 C 1.009553 -1.924480 -0.106099 0
M  V30 6 N 0.839462 -0.707168 0.291450 0
M  V30 7 C 1.959081 0.108974 0.022947 0
M  V30 8 C 2.017659 1.392550 0.334736 0
M  V30 9 C 0.865899 2.041648 0.999990 0
M  V30 10 C -0.411373 1.715131 0.540343 0
M  V30 11 C -1.568957 2.245287 1.090312 0
M  V30 12 C -1.438141 3.144142 2.150645 0
M  V30 13 Br -2.998055 3.901807 2.941920 0
M  V30 14 C -0.181620 3.454005 2.589327 0
M  V30 15 C 0.996273 2.940654 2.059554 0
M  V30 16 C 2.924801 -0.769113 -0.629109 0
M  V30 17 O 4.051701 -0.425255 -1.025845 0
M  V30 18 N 2.306476 -2.048768 -0.701982 0
M  V30 19 C 2.860755 -3.265285 -1.268531 0
M  V30 20 H -3.527430 -0.989987 0.355612 0
M  V30 21 H -3.300412 -2.758869 0.157222 0
M  V30 22 H -2.295221 -1.679448 -0.834498 0
M  V30 23 H -1.383751 -0.812827 1.563536 0
M  V30 24 H -2.459858 -2.040378 2.195181 0
M  V30 25 H -1.418422 -3.860360 1.199298 0
M  V30 26 H -0.207617 -2.935795 2.111491 0
M  V30 27 H -0.002344 -3.664039 -0.723902 0
M  V30 28 H 2.956617 1.903810 0.066292 0
M  V30 29 H -0.629028 1.040256 -0.267990 0
M  V30 30 H -2.567040 2.005392 0.747578 0
M  V30 31 H -0.119914 4.145291 3.405375 0
M  V30 32 H 1.988247 3.179153 2.399815 0
M  V30 33 H 3.271516 -3.946027 -0.495481 0
M  V30 34 H 2.084350 -3.821781 -1.867931 0
M  V30 35 H 3.676363 -3.032841 -1.979843 0
M  V30 END ATOM
M  V30 BEGIN BOND
M  V30 1 1 1 2
M  V30 2 1 2 3
M  V30 3 1 3 4
M  V30 4 1 4 5
M  V30 5 2 5 6
M  V30 6 1 6 7
M  V30 7 2 7 8
M  V30 8 1 8 9
M  V30 9 2 9 10
M  V30 10 1 10 11
M  V30 11 2 11 12
M  V30 12 1 12 13
M  V30 13 1 12 14
M  V30 14 2 14 15
M  V30 15 1 7 16
M  V30 16 2 16 17
M  V30 17 1 16 18
M  V30 18 1 18 19
M  V30 19 1 18 5
M  V30 20 1 15 9
M  V30 21 1 1 20
M  V30 22 1 1 21
M  V30 23 1 1 22
M  V30 24 1 2 23
M  V30 25 1 2 24
M  V30 26 1 3 25
M  V30 27 1 3 26
M  V30 28 1 4 27
M  V30 29 1 8 28
M  V30 30 1 10 29
M  V30 31 1 11 30
M  V30 32 1 14 31
M  V30 33 1 15 32
M  V30 34 1 19 33
M  V30 35 1 19 34
M  V30 36 1 19 35
M  V30 END BOND
M  V30 END CTAB
M  END
>  <Dataset>  (757) 
ChEMBL_Kinases

>  <Ligand_Instance>  (757) 
nan

>  <PDB_ID>  (757) 
nan

>  <Standardized_SMILES>  (757) 
CCCNC1=N/C(=C\c2ccc(Br)cc2)C(=O)N1C

>  <Name>  (757) 
nan

>  <Pocket>  (757) 
nan

>  <ATP_Site>  (757) 
nan

>  <Peripheral>  (757) 
nan

>  <Num_H_Atoms_ProtBoundConf>  (757) 
nan

>  <Num_Resolved_Atoms>  (757) 
nan

>  <Num_Not_Resolved_Atoms>  (757) 
nan

$$$$
CHEMBL1802970
     RDKit          3D

  0  0  0  0  0  0  0  0  0  0999 V3000
M  V30 BEGIN CTAB
M  V30 COUNTS 41 44 0 0 0
M  V30 BEGIN ATOM
M  V30 1 C 2.277943 -5.140615 2.101031 0
M  V30 2 C 1.024017 -4.751606 1.431556 0
M  V30 3 O 0.077156 -5.601069 1.455870 0
M  V30 4 C 0.847080 -3.469879 0.768969 0
M  V30 5 C 1.853781 -2.518203 0.720422 0
M  V30 6 C 1.610175 -1.308845 0.063606 0
M  V30 7 C 0.393420 -1.038690 -0.536737 0
M  V30 8 C 0.431673 0.287071 -1.141090 0
M  V30 9 C 0.271646 0.355615 -2.525856 0
M  V30 10 N 0.305894 1.563519 -3.143364 0
M  V30 11 C 0.496437 2.695297 -2.401165 0
M  V30 12 N 0.541971 3.999986 -3.004800 0
M  V30 13 N 0.650782 2.617728 -1.056057 0
M  V30 14 C 0.623910 1.436990 -0.398324 0
M  V30 15 C 0.785543 1.349176 1.048254 0
M  V30 16 C 1.842681 1.622007 1.899476 0
M  V30 17 N 1.465194 1.374270 3.171554 0
M  V30 18 C 0.169494 0.941957 3.159801 0
M  V30 19 C -0.660071 0.566549 4.205635 0
M  V30 20 C -1.975683 0.152430 3.957407 0
M  V30 21 Br -3.176246 -0.380123 5.344921 0
M  V30 22 C -2.420844 0.129127 2.639426 0
M  V30 23 C -1.591460 0.504361 1.592691 0
M  V30 24 C -0.288356 0.914925 1.837028 0
M  V30 25 C -0.601643 -1.991867 -0.482753 0
M  V30 26 C -0.353960 -3.178690 0.164653 0
M  V30 27 H 3.193518 -4.754721 1.571932 0
M  V30 28 H 2.374518 -6.261257 2.142287 0
M  V30 29 H 2.325993 -4.758264 3.137145 0
M  V30 30 H 2.771803 -2.796240 1.211658 0
M  V30 31 H 2.495406 -0.678942 0.116089 0
M  V30 32 H 0.118298 -0.511287 -3.148949 0
M  V30 33 H -0.357807 4.536398 -3.160775 0
M  V30 34 H -0.506975 4.148265 -2.967823 0
M  V30 35 H 2.788669 1.978498 1.475405 0
M  V30 36 H 2.112667 1.514149 3.973182 0
M  V30 37 H -0.315682 0.582900 5.247399 0
M  V30 38 H -3.425308 -0.178085 2.355303 0
M  V30 39 H -1.943205 0.484527 0.556415 0
M  V30 40 H -1.496057 -1.654669 -0.988059 0
M  V30 41 H -1.183540 -3.878742 0.161718 0
M  V30 END ATOM
M  V30 BEGIN BOND
M  V30 1 1 1 2
M  V30 2 2 2 3
M  V30 3 1 2 4
M  V30 4 2 4 5
M  V30 5 1 5 6
M  V30 6 2 6 7
M  V30 7 1 7 8
M  V30 8 2 8 9
M  V30 9 1 9 10
M  V30 10 2 10 11
M  V30 11 1 11 12
M  V30 12 1 11 13
M  V30 13 2 13 14
M  V30 14 1 14 15
M  V30 15 2 15 16
M  V30 16 1 16 17
M  V30 17 1 17 18
M  V30 18 2 18 19
M  V30 19 1 19 20
M  V30 20 1 20 21
M  V30 21 2 20 22
M  V30 22 1 22 23
M  V30 23 2 23 24
M  V30 24 1 7 25
M  V30 25 2 25 26
M  V30 26 1 26 4
M  V30 27 1 14 8
M  V30 28 1 24 15
M  V30 29 1 24 18
M  V30 30 1 1 27
M  V30 31 1 1 28
M  V30 32 1 1 29
M  V30 33 1 5 30
M  V30 34 1 6 31
M  V30 35 1 9 32
M  V30 36 1 12 33
M  V30 37 1 12 34
M  V30 38 1 16 35
M  V30 39 1 17 36
M  V30 40 1 19 37
M  V30 41 1 22 38
M  V30 42 1 23 39
M  V30 43 1 25 40
M  V30 44 1 26 41
M  V30 END BOND
M  V30 END CTAB
M  END
>  <Dataset>  (758) 
ChEMBL_Kinases

>  <Ligand_Instance>  (758) 
nan

>  <PDB_ID>  (758) 
nan

>  <Standardized_SMILES>  (758) 
CC(=O)c1ccc(-c2cnc(N)nc2-c2c[nH]c3cc(Br)ccc23)cc1

>  <Name>  (758) 
nan

>  <Pocket>  (758) 
nan

>  <ATP_Site>  (758) 
nan

>  <Peripheral>  (758) 
nan

>  <Num_H_Atoms_ProtBoundConf>  (758) 
nan

>  <Num_Resolved_Atoms>  (758) 
nan

>  <Num_Not_Resolved_Atoms>  (758) 
nan

$$$$
CHEMBL1802870
     RDKit          3D

  0  0  0  0  0  0  0  0  0  0999 V3000
M  V30 BEGIN CTAB
M  V30 COUNTS 40 42 0 0 0
M  V30 BEGIN ATOM
M  V30 1 C -0.674194 -6.560356 4.615653 0
M  V30 2 C -0.044103 -5.818405 3.928237 0
M  V30 3 C 0.724618 -4.900506 3.076085 0
M  V30 4 O 1.086280 -3.768923 3.550382 0
M  V30 5 N 1.140091 -5.104559 1.739444 0
M  V30 6 C 1.833053 -3.859754 1.487769 0
M  V30 7 C 3.176909 -3.791288 1.774808 0
M  V30 8 C 3.760489 -2.576914 1.528788 0
M  V30 9 C 3.090664 -1.480326 1.032056 0
M  V30 10 C 1.749277 -1.650216 0.776364 0
M  V30 11 C 1.030114 -2.829219 0.979731 0
M  V30 12 C 1.185053 -0.403971 0.266686 0
M  V30 13 C 0.019975 0.026731 -0.095061 0
M  V30 14 C -0.473424 1.291661 -0.601266 0
M  V30 15 N -1.497670 1.912845 0.061134 0
M  V30 16 C -1.892771 3.056881 -0.521666 0
M  V30 17 C -2.986781 3.954010 -0.039077 0
M  V30 18 C -3.599640 3.364950 1.227723 0
M  V30 19 N -1.102400 3.185137 -1.597647 0
M  V30 20 C -0.254170 2.146669 -1.662236 0
M  V30 21 C 0.744333 1.891016 -2.714764 0
M  V30 22 C 2.313464 0.547198 0.236855 0
M  V30 23 O 2.400023 1.749981 -0.105097 0
M  V30 24 N 3.458655 -0.148158 0.710714 0
M  V30 25 H -1.230446 -7.224507 5.208427 0
M  V30 26 H 0.853052 -6.015600 1.335448 0
M  V30 27 H 3.680724 -4.663792 2.162813 0
M  V30 28 H 4.828066 -2.459835 1.736375 0
M  V30 29 H -0.006480 -2.927299 0.771646 0
M  V30 30 H -0.763480 -0.749273 0.004298 0
M  V30 31 H -1.972818 1.565881 0.951736 0
M  V30 32 H -3.771323 3.957621 -0.808031 0
M  V30 33 H -2.635923 4.967313 0.239234 0
M  V30 34 H -2.950786 3.527319 2.109559 0
M  V30 35 H -3.872615 2.296567 1.077550 0
M  V30 36 H -4.544978 3.888571 1.450929 0
M  V30 37 H 1.471043 2.738026 -2.779500 0
M  V30 38 H 0.186615 1.827954 -3.673384 0
M  V30 39 H 1.299110 0.954738 -2.554355 0
M  V30 40 H 4.445874 0.233387 0.817468 0
M  V30 END ATOM
M  V30 BEGIN BOND
M  V30 1 3 1 2
M  V30 2 1 2 3
M  V30 3 2 3 4
M  V30 4 1 3 5
M  V30 5 1 5 6
M  V30 6 2 6 7
M  V30 7 1 7 8
M  V30 8 2 8 9
M  V30 9 1 9 10
M  V30 10 2 10 11
M  V30 11 1 10 12
M  V30 12 2 12 13
M  V30 13 1 13 14
M  V30 14 1 14 15
M  V30 15 1 15 16
M  V30 16 1 16 17
M  V30 17 1 17 18
M  V30 18 2 16 19
M  V30 19 1 19 20
M  V30 20 1 20 21
M  V30 21 1 12 22
M  V30 22 2 22 23
M  V30 23 1 22 24
M  V30 24 1 11 6
M  V30 25 2 20 14
M  V30 26 1 24 9
M  V30 27 1 1 25
M  V30 28 1 5 26
M  V30 29 1 7 27
M  V30 30 1 8 28
M  V30 31 1 11 29
M  V30 32 1 13 30
M  V30 33 1 15 31
M  V30 34 1 17 32
M  V30 35 1 17 33
M  V30 36 1 18 34
M  V30 37 1 18 35
M  V30 38 1 18 36
M  V30 39 1 21 37
M  V30 40 1 21 38
M  V30 41 1 21 39
M  V30 42 1 24 40
M  V30 END BOND
M  V30 END CTAB
M  END
>  <Dataset>  (759) 
ChEMBL_Kinases

>  <Ligand_Instance>  (759) 
nan

>  <PDB_ID>  (759) 
nan

>  <Standardized_SMILES>  (759) 
C#CC(=O)Nc1ccc2c(c1)/C(=C/c1[nH]c(CC)nc1C)C(=O)N2

>  <Name>  (759) 
nan

>  <Pocket>  (759) 
nan

>  <ATP_Site>  (759) 
nan

>  <Peripheral>  (759) 
nan

>  <Num_H_Atoms_ProtBoundConf>  (759) 
nan

>  <Num_Resolved_Atoms>  (759) 
nan

>  <Num_Not_Resolved_Atoms>  (759) 
nan

$$$$
CHEMBL1802869
     RDKit          3D

  0  0  0  0  0  0  0  0  0  0999 V3000
M  V30 BEGIN CTAB
M  V30 COUNTS 34 36 0 0 0
M  V30 BEGIN ATOM
M  V30 1 C 3.072221 -6.889678 1.831566 0
M  V30 2 C 2.614415 -6.107357 1.031799 0
M  V30 3 C 2.072234 -5.162476 0.099399 0
M  V30 4 O 2.098659 -5.497675 -1.095155 0
M  V30 5 N 1.526108 -3.905994 0.462723 0
M  V30 6 C 0.972123 -2.909884 -0.374523 0
M  V30 7 C 0.748668 -2.961905 -1.699632 0
M  V30 8 C 0.215501 -1.950372 -2.471977 0
M  V30 9 C -0.130677 -0.760088 -1.854283 0
M  V30 10 C 0.090375 -0.682682 -0.491198 0
M  V30 11 C 0.625438 -1.721552 0.236706 0
M  V30 12 C -0.342857 0.647731 -0.072478 0
M  V30 13 C -0.332054 1.170060 1.139180 0
M  V30 14 C -0.747288 2.481670 1.598132 0
M  V30 15 N -0.587689 3.768454 1.243424 0
M  V30 16 C -1.251173 4.597693 2.054463 0
M  V30 17 N -1.873816 3.854119 2.980086 0
M  V30 18 C -1.583041 2.585186 2.723279 0
M  V30 19 C -2.170739 1.559986 3.638543 0
M  V30 20 C -0.831725 1.371311 -1.211050 0
M  V30 21 O -1.285131 2.514234 -1.272377 0
M  V30 22 N -0.688150 0.469145 -2.314669 0
M  V30 23 H 3.486209 -7.588938 2.531880 0
M  V30 24 H 1.573826 -3.771882 1.508386 0
M  V30 25 H 0.999831 -3.866590 -2.233614 0
M  V30 26 H 0.058883 -2.054012 -3.531466 0
M  V30 27 H 0.767230 -1.573709 1.313860 0
M  V30 28 H 0.061408 0.487289 1.916740 0
M  V30 29 H -0.002860 4.051265 0.443210 0
M  V30 30 H -1.240341 5.691429 1.924261 0
M  V30 31 H -3.266946 1.561829 3.588148 0
M  V30 32 H -1.906600 1.790833 4.703003 0
M  V30 33 H -1.782798 0.549796 3.406754 0
M  V30 34 H -0.960847 0.709279 -3.294879 0
M  V30 END ATOM
M  V30 BEGIN BOND
M  V30 1 3 1 2
M  V30 2 1 2 3
M  V30 3 2 3 4
M  V30 4 1 3 5
M  V30 5 1 5 6
M  V30 6 2 6 7
M  V30 7 1 7 8
M  V30 8 2 8 9
M  V30 9 1 9 10
M  V30 10 2 10 11
M  V30 11 1 10 12
M  V30 12 2 12 13
M  V30 13 1 13 14
M  V30 14 1 14 15
M  V30 15 1 15 16
M  V30 16 2 16 17
M  V30 17 1 17 18
M  V30 18 1 18 19
M  V30 19 1 12 20
M  V30 20 2 20 21
M  V30 21 1 20 22
M  V30 22 1 11 6
M  V30 23 2 18 14
M  V30 24 1 22 9
M  V30 25 1 1 23
M  V30 26 1 5 24
M  V30 27 1 7 25
M  V30 28 1 8 26
M  V30 29 1 11 27
M  V30 30 1 13 28
M  V30 31 1 15 29
M  V30 32 1 16 30
M  V30 33 1 19 31
M  V30 34 1 19 32
M  V30 35 1 19 33
M  V30 36 1 22 34
M  V30 END BOND
M  V30 END CTAB
M  END
>  <Dataset>  (760) 
ChEMBL_Kinases

>  <Ligand_Instance>  (760) 
nan

>  <PDB_ID>  (760) 
nan

>  <Standardized_SMILES>  (760) 
C#CC(=O)Nc1ccc2c(c1)/C(=C/c1[nH]cnc1C)C(=O)N2

>  <Name>  (760) 
nan

>  <Pocket>  (760) 
nan

>  <ATP_Site>  (760) 
nan

>  <Peripheral>  (760) 
nan

>  <Num_H_Atoms_ProtBoundConf>  (760) 
nan

>  <Num_Resolved_Atoms>  (760) 
nan

>  <Num_Not_Resolved_Atoms>  (760) 
nan

$$$$
CHEMBL1802787
     RDKit          3D

  0  0  0  0  0  0  0  0  0  0999 V3000
M  V30 BEGIN CTAB
M  V30 COUNTS 26 28 0 0 0
M  V30 BEGIN ATOM
M  V30 1 O 0.336616 -5.482355 2.929174 0
M  V30 2 C 0.334957 -4.391458 2.297830 0
M  V30 3 N 1.442805 -3.475397 2.360621 0
M  V30 4 C 1.122314 -2.358022 1.543606 0
M  V30 5 O 1.853219 -1.357598 1.352088 0
M  V30 6 C -0.183610 -2.636181 1.007234 0
M  V30 7 C -0.789640 -1.773450 0.214085 0
M  V30 8 C -0.427082 -0.472125 -0.300779 0
M  V30 9 C -0.385150 -0.181871 -1.664192 0
M  V30 10 N -0.065179 1.112651 -1.837636 0
M  V30 11 C 0.112570 1.719344 -0.649051 0
M  V30 12 C 0.429264 3.016440 -0.303437 0
M  V30 13 C 0.533013 3.386186 1.016895 0
M  V30 14 C 0.305171 2.398472 1.945599 0
M  V30 15 C -0.009706 1.104740 1.607958 0
M  V30 16 C -0.113535 0.732877 0.285959 0
M  V30 17 N -0.697913 -3.881999 1.451464 0
M  V30 18 H 2.341481 -3.553250 2.885590 0
M  V30 19 H -1.782750 -2.082776 -0.147041 0
M  V30 20 H -0.570013 -0.846290 -2.486769 0
M  V30 21 H 0.037849 1.602516 -2.762160 0
M  V30 22 H 0.607904 3.792237 -1.042743 0
M  V30 23 H 0.771371 4.355296 1.406466 0
M  V30 24 H 0.356943 2.564425 3.015103 0
M  V30 25 H -0.190523 0.317205 2.352533 0
M  V30 26 H -1.594417 -4.346546 1.239747 0
M  V30 END ATOM
M  V30 BEGIN BOND
M  V30 1 2 1 2
M  V30 2 1 2 3
M  V30 3 1 3 4
M  V30 4 2 4 5
M  V30 5 1 4 6
M  V30 6 2 6 7
M  V30 7 1 7 8
M  V30 8 2 8 9
M  V30 9 1 9 10
M  V30 10 1 10 11
M  V30 11 2 11 12
M  V30 12 1 12 13
M  V30 13 2 13 14
M  V30 14 1 14 15
M  V30 15 2 15 16
M  V30 16 1 6 17
M  V30 17 1 17 2
M  V30 18 1 16 8
M  V30 19 1 16 11
M  V30 20 1 3 18
M  V30 21 1 7 19
M  V30 22 1 9 20
M  V30 23 1 10 21
M  V30 24 1 12 22
M  V30 25 1 13 23
M  V30 26 1 14 24
M  V30 27 1 15 25
M  V30 28 1 17 26
M  V30 END BOND
M  V30 END CTAB
M  END
>  <Dataset>  (761) 
ChEMBL_Kinases

>  <Ligand_Instance>  (761) 
nan

>  <PDB_ID>  (761) 
nan

>  <Standardized_SMILES>  (761) 
O=C1NC(=O)/C(=C\c2c[nH]c3ccccc23)N1

>  <Name>  (761) 
nan

>  <Pocket>  (761) 
nan

>  <ATP_Site>  (761) 
nan

>  <Peripheral>  (761) 
nan

>  <Num_H_Atoms_ProtBoundConf>  (761) 
nan

>  <Num_Resolved_Atoms>  (761) 
nan

>  <Num_Not_Resolved_Atoms>  (761) 
nan

$$$$
CHEMBL1802783
     RDKit          3D

  0  0  0  0  0  0  0  0  0  0999 V3000
M  V30 BEGIN CTAB
M  V30 COUNTS 42 44 0 0 0
M  V30 BEGIN ATOM
M  V30 1 C -0.213174 -5.261229 1.171075 0
M  V30 2 O 0.253822 -4.059983 0.601897 0
M  V30 3 C 1.636980 -4.123691 0.556664 0
M  V30 4 C 2.243774 -2.873334 -0.042319 0
M  V30 5 C 1.696615 -2.748472 -1.447358 0
M  V30 6 N 2.201051 -1.581088 -2.145586 0
M  V30 7 C 1.962669 -0.273773 -1.638006 0
M  V30 8 N 2.435216 0.830322 -2.287016 0
M  V30 9 C 2.217738 2.073012 -1.820133 0
M  V30 10 C 1.504800 2.286032 -0.660486 0
M  V30 11 C 1.022710 1.181268 0.003711 0
M  V30 12 C 0.239918 1.235898 1.259793 0
M  V30 13 C 0.817659 1.205270 2.515763 0
M  V30 14 C 2.285653 1.114539 2.808562 0
M  V30 15 N -0.155543 1.270382 3.442842 0
M  V30 16 C -1.343947 1.342162 2.835353 0
M  V30 17 C -2.663564 1.426776 3.269657 0
M  V30 18 C -3.720036 1.488903 2.354266 0
M  V30 19 C -3.446783 1.465770 1.001875 0
M  V30 20 Cl -4.769070 1.543554 -0.137321 0
M  V30 21 C -2.152991 1.382535 0.513733 0
M  V30 22 C -1.140736 1.323310 1.459013 0
M  V30 23 N 1.277735 -0.029802 -0.520130 0
M  V30 24 H -1.301058 -5.310627 1.251684 0
M  V30 25 H 0.207580 -5.356796 2.210858 0
M  V30 26 H 0.152526 -6.140801 0.627164 0
M  V30 27 H 1.918481 -5.009130 -0.051093 0
M  V30 28 H 1.997052 -4.292444 1.589144 0
M  V30 29 H 1.963782 -2.018228 0.585469 0
M  V30 30 H 3.329120 -2.958951 -0.136168 0
M  V30 31 H 0.587132 -2.586391 -1.306610 0
M  V30 32 H 1.821528 -3.671890 -2.006461 0
M  V30 33 H 2.746645 -1.670916 -3.029982 0
M  V30 34 H 2.589498 2.953322 -2.329603 0
M  V30 35 H 1.273636 3.240175 -0.199444 0
M  V30 36 H 2.786920 0.374374 2.142067 0
M  V30 37 H 2.411645 0.699394 3.833253 0
M  V30 38 H 2.781292 2.106900 2.789250 0
M  V30 39 H -0.043332 1.268014 4.491974 0
M  V30 40 H -2.884485 1.445344 4.334375 0
M  V30 41 H -4.760290 1.555533 2.680961 0
M  V30 42 H -1.903276 1.362207 -0.540978 0
M  V30 END ATOM
M  V30 BEGIN BOND
M  V30 1 1 1 2
M  V30 2 1 2 3
M  V30 3 1 3 4
M  V30 4 1 4 5
M  V30 5 1 5 6
M  V30 6 1 6 7
M  V30 7 2 7 8
M  V30 8 1 8 9
M  V30 9 2 9 10
M  V30 10 1 10 11
M  V30 11 1 11 12
M  V30 12 2 12 13
M  V30 13 1 13 14
M  V30 14 1 13 15
M  V30 15 1 15 16
M  V30 16 2 16 17
M  V30 17 1 17 18
M  V30 18 2 18 19
M  V30 19 1 19 20
M  V30 20 1 19 21
M  V30 21 2 21 22
M  V30 22 2 11 23
M  V30 23 1 23 7
M  V30 24 1 22 12
M  V30 25 1 22 16
M  V30 26 1 1 24
M  V30 27 1 1 25
M  V30 28 1 1 26
M  V30 29 1 3 27
M  V30 30 1 3 28
M  V30 31 1 4 29
M  V30 32 1 4 30
M  V30 33 1 5 31
M  V30 34 1 5 32
M  V30 35 1 6 33
M  V30 36 1 9 34
M  V30 37 1 10 35
M  V30 38 1 14 36
M  V30 39 1 14 37
M  V30 40 1 14 38
M  V30 41 1 15 39
M  V30 42 1 17 40
M  V30 43 1 18 41
M  V30 44 1 21 42
M  V30 END BOND
M  V30 END CTAB
M  END
>  <Dataset>  (762) 
ChEMBL_Kinases

>  <Ligand_Instance>  (762) 
nan

>  <PDB_ID>  (762) 
nan

>  <Standardized_SMILES>  (762) 
COCCCNc1nccc(-c2c(C)[nH]c3ccc(Cl)cc23)n1

>  <Name>  (762) 
nan

>  <Pocket>  (762) 
nan

>  <ATP_Site>  (762) 
nan

>  <Peripheral>  (762) 
nan

>  <Num_H_Atoms_ProtBoundConf>  (762) 
nan

>  <Num_Resolved_Atoms>  (762) 
nan

>  <Num_Not_Resolved_Atoms>  (762) 
nan

$$$$
CHEMBL1802782
     RDKit          3D

  0  0  0  0  0  0  0  0  0  0999 V3000
M  V30 BEGIN CTAB
M  V30 COUNTS 56 60 0 0 0
M  V30 BEGIN ATOM
M  V30 1 C 1.144802 2.628571 4.144916 0
M  V30 2 C 2.230080 1.773027 3.576213 0
M  V30 3 N 2.963346 0.921796 4.345854 0
M  V30 4 C 3.867702 0.279547 3.574205 0
M  V30 5 C 4.848275 -0.670136 3.806446 0
M  V30 6 C 5.642618 -1.152502 2.783066 0
M  V30 7 C 5.449225 -0.669417 1.488518 0
M  V30 8 Cl 6.464009 -1.285943 0.182545 0
M  V30 9 C 4.473141 0.289863 1.198387 0
M  V30 10 C 3.735851 0.707511 2.275236 0
M  V30 11 C 2.714036 1.637654 2.283683 0
M  V30 12 C 2.086301 2.454958 1.249272 0
M  V30 13 C 2.525552 3.698842 0.924212 0
M  V30 14 C 1.864850 4.390128 -0.066695 0
M  V30 15 N 0.816112 3.826931 -0.680610 0
M  V30 16 C 0.356835 2.604494 -0.385919 0
M  V30 17 N -0.761843 2.087690 -1.089893 0
M  V30 18 C -1.411212 0.832430 -0.946536 0
M  V30 19 C -2.497506 0.494677 -1.726187 0
M  V30 20 C -3.131668 -0.720203 -1.592756 0
M  V30 21 C -2.729992 -1.662270 -0.687149 0
M  V30 22 N -3.428324 -2.901663 -0.588379 0
M  V30 23 C -4.658973 -3.155427 -1.309376 0
M  V30 24 C -4.327580 -4.161068 -2.379740 0
M  V30 25 N -3.364390 -5.130915 -1.962992 0
M  V30 26 C -2.171317 -5.169632 -2.734370 0
M  V30 27 C -3.224205 -5.283283 -0.552194 0
M  V30 28 C -2.983073 -4.021114 0.223743 0
M  V30 29 C -1.652326 -1.367005 0.109497 0
M  V30 30 C -1.037128 -0.142193 -0.046883 0
M  V30 31 N 1.037384 1.981636 0.583286 0
M  V30 32 H 0.724262 3.243495 3.309179 0
M  V30 33 H 0.312232 2.033926 4.522080 0
M  V30 34 H 1.510584 3.319177 4.916726 0
M  V30 35 H 2.857895 0.772394 5.382011 0
M  V30 36 H 4.952898 -1.012048 4.846684 0
M  V30 37 H 6.405581 -1.899165 2.995920 0
M  V30 38 H 4.309312 0.673730 0.208771 0
M  V30 39 H 3.360165 4.137173 1.418507 0
M  V30 40 H 2.175433 5.395714 -0.369208 0
M  V30 41 H -1.175542 2.726287 -1.829864 0
M  V30 42 H -2.841410 1.235655 -2.463304 0
M  V30 43 H -3.971708 -0.844129 -2.278766 0
M  V30 44 H -5.346178 -3.692016 -0.593008 0
M  V30 45 H -5.205989 -2.287514 -1.645006 0
M  V30 46 H -5.241054 -4.687560 -2.724192 0
M  V30 47 H -3.927434 -3.606233 -3.253174 0
M  V30 48 H -1.263681 -5.413630 -2.138651 0
M  V30 49 H -2.267519 -6.026740 -3.457665 0
M  V30 50 H -2.019831 -4.281175 -3.382640 0
M  V30 51 H -2.322375 -5.936043 -0.389441 0
M  V30 52 H -4.114446 -5.795420 -0.157792 0
M  V30 53 H -1.978986 -3.932865 0.627658 0
M  V30 54 H -3.668970 -4.005976 1.121285 0
M  V30 55 H -1.283576 -2.066159 0.847368 0
M  V30 56 H -0.196743 0.026273 0.609969 0
M  V30 END ATOM
M  V30 BEGIN BOND
M  V30 1 1 1 2
M  V30 2 1 2 3
M  V30 3 1 3 4
M  V30 4 2 4 5
M  V30 5 1 5 6
M  V30 6 2 6 7
M  V30 7 1 7 8
M  V30 8 1 7 9
M  V30 9 2 9 10
M  V30 10 1 10 11
M  V30 11 1 11 12
M  V30 12 2 12 13
M  V30 13 1 13 14
M  V30 14 2 14 15
M  V30 15 1 15 16
M  V30 16 1 16 17
M  V30 17 1 17 18
M  V30 18 2 18 19
M  V30 19 1 19 20
M  V30 20 2 20 21
M  V30 21 1 21 22
M  V30 22 1 22 23
M  V30 23 1 23 24
M  V30 24 1 24 25
M  V30 25 1 25 26
M  V30 26 1 25 27
M  V30 27 1 27 28
M  V30 28 1 21 29
M  V30 29 2 29 30
M  V30 30 2 16 31
M  V30 31 2 11 2
M  V30 32 1 31 12
M  V30 33 1 10 4
M  V30 34 1 30 18
M  V30 35 1 28 22
M  V30 36 1 1 32
M  V30 37 1 1 33
M  V30 38 1 1 34
M  V30 39 1 3 35
M  V30 40 1 5 36
M  V30 41 1 6 37
M  V30 42 1 9 38
M  V30 43 1 13 39
M  V30 44 1 14 40
M  V30 45 1 17 41
M  V30 46 1 19 42
M  V30 47 1 20 43
M  V30 48 1 23 44
M  V30 49 1 23 45
M  V30 50 1 24 46
M  V30 51 1 24 47
M  V30 52 1 26 48
M  V30 53 1 26 49
M  V30 54 1 26 50
M  V30 55 1 27 51
M  V30 56 1 27 52
M  V30 57 1 28 53
M  V30 58 1 28 54
M  V30 59 1 29 55
M  V30 60 1 30 56
M  V30 END BOND
M  V30 END CTAB
M  END
>  <Dataset>  (763) 
ChEMBL_Kinases

>  <Ligand_Instance>  (763) 
nan

>  <PDB_ID>  (763) 
nan

>  <Standardized_SMILES>  (763) 
Cc1[nH]c2ccc(Cl)cc2c1-c1ccnc(Nc2ccc(N3CCN(C)CC3)cc2)n1

>  <Name>  (763) 
nan

>  <Pocket>  (763) 
nan

>  <ATP_Site>  (763) 
nan

>  <Peripheral>  (763) 
nan

>  <Num_H_Atoms_ProtBoundConf>  (763) 
nan

>  <Num_Resolved_Atoms>  (763) 
nan

>  <Num_Not_Resolved_Atoms>  (763) 
nan

$$$$
CHEMBL1802779
     RDKit          3D

  0  0  0  0  0  0  0  0  0  0999 V3000
M  V30 BEGIN CTAB
M  V30 COUNTS 46 50 0 0 0
M  V30 BEGIN ATOM
M  V30 1 F 0.664881 -4.026989 5.895587 0
M  V30 2 C 1.239479 -3.581044 4.756574 0
M  V30 3 C 0.479680 -2.834833 3.861045 0
M  V30 4 C 1.122695 -2.410720 2.721250 0
M  V30 5 C 2.432644 -2.648776 2.380589 0
M  V30 6 N 3.083560 -2.207762 1.203754 0
M  V30 7 C 2.559608 -1.448049 0.127048 0
M  V30 8 N 3.339999 -1.122041 -0.913016 0
M  V30 9 C 2.886829 -0.407082 -1.950488 0
M  V30 10 C 1.585488 0.039240 -2.013107 0
M  V30 11 C 0.772293 -0.288681 -0.950705 0
M  V30 12 C -0.634907 0.076267 -0.804824 0
M  V30 13 C -1.165577 0.854275 0.205896 0
M  V30 14 C -0.483842 1.479593 1.332978 0
M  V30 15 C 0.462630 2.422263 0.998821 0
M  V30 16 C 1.162997 3.070738 2.005816 0
M  V30 17 C 0.897592 2.758146 3.334844 0
M  V30 18 C -0.067795 1.798496 3.628599 0
M  V30 19 C -0.778828 1.138887 2.637050 0
M  V30 20 N -2.502358 0.949174 -0.031417 0
M  V30 21 C -2.815079 0.262148 -1.145499 0
M  V30 22 C -4.005575 0.030990 -1.827793 0
M  V30 23 C -3.967566 -0.741661 -2.969905 0
M  V30 24 C -2.807217 -1.295996 -3.468212 0
M  V30 25 C -1.603211 -1.079325 -2.803768 0
M  V30 26 C -1.663536 -0.302370 -1.661504 0
M  V30 27 N 1.301320 -1.006492 0.048329 0
M  V30 28 C 3.123797 -3.391269 3.309851 0
M  V30 29 C 2.560415 -3.855755 4.475357 0
M  V30 30 H -0.553659 -2.611537 4.065993 0
M  V30 31 H 0.503622 -1.839966 2.058331 0
M  V30 32 H 4.106203 -2.483947 1.114775 0
M  V30 33 H 3.525565 -0.153285 -2.778238 0
M  V30 34 H 1.132184 0.619076 -2.805126 0
M  V30 35 H 0.701340 2.696523 -0.022146 0
M  V30 36 H 1.924238 3.826075 1.804476 0
M  V30 37 H 1.426350 3.245754 4.141243 0
M  V30 38 H -0.321866 1.508814 4.651727 0
M  V30 39 H -1.530878 0.391185 2.866111 0
M  V30 40 H -3.232212 1.454933 0.516427 0
M  V30 41 H -4.923720 0.465488 -1.439756 0
M  V30 42 H -4.920226 -0.912433 -3.494647 0
M  V30 43 H -2.785072 -1.908805 -4.376390 0
M  V30 44 H -0.660552 -1.485174 -3.142480 0
M  V30 45 H 4.179716 -3.654605 3.164133 0
M  V30 46 H 3.136845 -4.435934 5.180318 0
M  V30 END ATOM
M  V30 BEGIN BOND
M  V30 1 1 1 2
M  V30 2 2 2 3
M  V30 3 1 3 4
M  V30 4 2 4 5
M  V30 5 1 5 6
M  V30 6 1 6 7
M  V30 7 2 7 8
M  V30 8 1 8 9
M  V30 9 2 9 10
M  V30 10 1 10 11
M  V30 11 1 11 12
M  V30 12 2 12 13
M  V30 13 1 13 14
M  V30 14 2 14 15
M  V30 15 1 15 16
M  V30 16 2 16 17
M  V30 17 1 17 18
M  V30 18 2 18 19
M  V30 19 1 13 20
M  V30 20 1 20 21
M  V30 21 2 21 22
M  V30 22 1 22 23
M  V30 23 2 23 24
M  V30 24 1 24 25
M  V30 25 2 25 26
M  V30 26 2 11 27
M  V30 27 1 5 28
M  V30 28 2 28 29
M  V30 29 1 29 2
M  V30 30 1 27 7
M  V30 31 1 26 12
M  V30 32 1 19 14
M  V30 33 1 26 21
M  V30 34 1 3 30
M  V30 35 1 4 31
M  V30 36 1 6 32
M  V30 37 1 9 33
M  V30 38 1 10 34
M  V30 39 1 15 35
M  V30 40 1 16 36
M  V30 41 1 17 37
M  V30 42 1 18 38
M  V30 43 1 19 39
M  V30 44 1 20 40
M  V30 45 1 22 41
M  V30 46 1 23 42
M  V30 47 1 24 43
M  V30 48 1 25 44
M  V30 49 1 28 45
M  V30 50 1 29 46
M  V30 END BOND
M  V30 END CTAB
M  END
>  <Dataset>  (764) 
ChEMBL_Kinases

>  <Ligand_Instance>  (764) 
nan

>  <PDB_ID>  (764) 
nan

>  <Standardized_SMILES>  (764) 
Fc1ccc(Nc2nccc(-c3c(-c4ccccc4)[nH]c4ccccc34)n2)cc1

>  <Name>  (764) 
nan

>  <Pocket>  (764) 
nan

>  <ATP_Site>  (764) 
nan

>  <Peripheral>  (764) 
nan

>  <Num_H_Atoms_ProtBoundConf>  (764) 
nan

>  <Num_Resolved_Atoms>  (764) 
nan

>  <Num_Not_Resolved_Atoms>  (764) 
nan

$$$$
CHEMBL1802778
     RDKit          3D

  0  0  0  0  0  0  0  0  0  0999 V3000
M  V30 BEGIN CTAB
M  V30 COUNTS 39 42 0 0 0
M  V30 BEGIN ATOM
M  V30 1 C -1.215652 -3.156325 -1.039163 0
M  V30 2 C 0.184193 -2.931625 -0.637770 0
M  V30 3 N 1.111773 -3.815956 -0.251013 0
M  V30 4 C 2.271250 -3.184732 0.029437 0
M  V30 5 C 3.505226 -3.634227 0.458974 0
M  V30 6 C 4.542499 -2.748879 0.672384 0
M  V30 7 C 4.341523 -1.393603 0.452564 0
M  V30 8 C 3.096810 -0.978372 0.023751 0
M  V30 9 C 2.037776 -1.824997 -0.200834 0
M  V30 10 C 0.728829 -1.662160 -0.619767 0
M  V30 11 C 0.203422 -0.334826 -0.935444 0
M  V30 12 C 0.275494 0.206296 -2.199080 0
M  V30 13 C -0.266122 1.465673 -2.327649 0
M  V30 14 N -0.822385 2.116276 -1.297999 0
M  V30 15 C -0.884788 1.574412 -0.071355 0
M  V30 16 N -1.485843 2.309463 0.983286 0
M  V30 17 C -1.657386 1.935677 2.338688 0
M  V30 18 C -1.262273 0.751724 2.911789 0
M  V30 19 C -1.431093 0.393058 4.229007 0
M  V30 20 C -2.053191 1.297358 5.060905 0
M  V30 21 F -2.238065 0.981684 6.364054 0
M  V30 22 C -2.472901 2.503451 4.545296 0
M  V30 23 C -2.271541 2.795682 3.219141 0
M  V30 24 N -0.364461 0.362258 0.056280 0
M  V30 25 H -1.858491 -3.241688 -0.126581 0
M  V30 26 H -1.606425 -2.440272 -1.758864 0
M  V30 27 H -1.247994 -4.158877 -1.538600 0
M  V30 28 H 0.960444 -4.859294 -0.175287 0
M  V30 29 H 3.689544 -4.684661 0.638069 0
M  V30 30 H 5.544383 -3.019326 1.010081 0
M  V30 31 H 5.118421 -0.645311 0.602448 0
M  V30 32 H 2.952155 0.077818 -0.143901 0
M  V30 33 H 0.727993 -0.346840 -2.993493 0
M  V30 34 H -0.246713 1.953861 -3.286856 0
M  V30 35 H -1.860928 3.272667 0.729944 0
M  V30 36 H -0.772498 0.011441 2.308024 0
M  V30 37 H -1.096521 -0.555335 4.616443 0
M  V30 38 H -2.957738 3.201907 5.205074 0
M  V30 39 H -2.631761 3.765798 2.894133 0
M  V30 END ATOM
M  V30 BEGIN BOND
M  V30 1 1 1 2
M  V30 2 1 2 3
M  V30 3 1 3 4
M  V30 4 2 4 5
M  V30 5 1 5 6
M  V30 6 2 6 7
M  V30 7 1 7 8
M  V30 8 2 8 9
M  V30 9 1 9 10
M  V30 10 1 10 11
M  V30 11 2 11 12
M  V30 12 1 12 13
M  V30 13 2 13 14
M  V30 14 1 14 15
M  V30 15 1 15 16
M  V30 16 1 16 17
M  V30 17 2 17 18
M  V30 18 1 18 19
M  V30 19 2 19 20
M  V30 20 1 20 21
M  V30 21 1 20 22
M  V30 22 2 22 23
M  V30 23 2 15 24
M  V30 24 2 10 2
M  V30 25 1 24 11
M  V30 26 1 9 4
M  V30 27 1 23 17
M  V30 28 1 1 25
M  V30 29 1 1 26
M  V30 30 1 1 27
M  V30 31 1 3 28
M  V30 32 1 5 29
M  V30 33 1 6 30
M  V30 34 1 7 31
M  V30 35 1 8 32
M  V30 36 1 12 33
M  V30 37 1 13 34
M  V30 38 1 16 35
M  V30 39 1 18 36
M  V30 40 1 19 37
M  V30 41 1 22 38
M  V30 42 1 23 39
M  V30 END BOND
M  V30 END CTAB
M  END
>  <Dataset>  (765) 
ChEMBL_Kinases

>  <Ligand_Instance>  (765) 
nan

>  <PDB_ID>  (765) 
nan

>  <Standardized_SMILES>  (765) 
Cc1[nH]c2ccccc2c1-c1ccnc(Nc2ccc(F)cc2)n1

>  <Name>  (765) 
nan

>  <Pocket>  (765) 
nan

>  <ATP_Site>  (765) 
nan

>  <Peripheral>  (765) 
nan

>  <Num_H_Atoms_ProtBoundConf>  (765) 
nan

>  <Num_Resolved_Atoms>  (765) 
nan

>  <Num_Not_Resolved_Atoms>  (765) 
nan

$$$$
CHEMBL1802774
     RDKit          3D

  0  0  0  0  0  0  0  0  0  0999 V3000
M  V30 BEGIN CTAB
M  V30 COUNTS 42 45 0 0 0
M  V30 BEGIN ATOM
M  V30 1 C -0.266218 -2.885008 -1.420313 0
M  V30 2 C 1.109120 -2.345316 -1.137843 0
M  V30 3 N 2.204114 -3.141597 -1.079157 0
M  V30 4 C 3.283707 -2.367074 -0.809868 0
M  V30 5 C 4.622257 -2.668661 -0.647051 0
M  V30 6 C 5.442426 -1.593143 -0.376441 0
M  V30 7 C 5.046735 -0.277201 -0.258265 0
M  V30 8 Cl 6.237149 0.968715 0.091779 0
M  V30 9 C 3.703060 -0.015594 -0.427274 0
M  V30 10 C 2.839106 -1.060676 -0.700424 0
M  V30 11 C 1.471681 -1.015313 -0.902366 0
M  V30 12 C 0.517950 0.098528 -0.896524 0
M  V30 13 C 0.109173 0.904258 -1.940891 0
M  V30 14 C -0.813399 1.897944 -1.668406 0
M  V30 15 N -1.287479 2.059618 -0.415891 0
M  V30 16 C -0.898052 1.281728 0.611875 0
M  V30 17 N -1.416781 1.476281 1.925782 0
M  V30 18 C -0.937547 0.583707 2.984859 0
M  V30 19 C -1.230612 -0.860029 2.719378 0
M  V30 20 C -2.494767 -1.219545 3.501593 0
M  V30 21 C -3.026835 0.151456 3.942351 0
M  V30 22 C -1.714635 0.830419 4.258471 0
M  V30 23 N -0.004559 0.323869 0.333628 0
M  V30 24 H -0.467363 -3.822646 -0.856010 0
M  V30 25 H -1.047890 -2.154978 -1.112157 0
M  V30 26 H -0.364671 -3.067424 -2.508845 0
M  V30 27 H 2.250979 -4.176901 -1.212372 0
M  V30 28 H 5.012728 -3.674325 -0.723967 0
M  V30 29 H 6.513372 -1.809062 -0.242740 0
M  V30 30 H 3.355879 1.003349 -0.341968 0
M  V30 31 H 0.581177 0.645152 -2.875043 0
M  V30 32 H -1.088339 2.488965 -2.527338 0
M  V30 33 H -2.100579 2.227855 2.079105 0
M  V30 34 H 0.147264 0.734880 3.165579 0
M  V30 35 H -1.372404 -1.110165 1.651758 0
M  V30 36 H -0.369810 -1.462260 3.092243 0
M  V30 37 H -3.236375 -1.755155 2.903556 0
M  V30 38 H -2.199040 -1.753338 4.437855 0
M  V30 39 H -3.697500 0.032158 4.802486 0
M  V30 40 H -3.510170 0.596157 3.053133 0
M  V30 41 H -1.818666 1.902890 4.495491 0
M  V30 42 H -1.219293 0.234935 5.061944 0
M  V30 END ATOM
M  V30 BEGIN BOND
M  V30 1 1 1 2
M  V30 2 1 2 3
M  V30 3 1 3 4
M  V30 4 2 4 5
M  V30 5 1 5 6
M  V30 6 2 6 7
M  V30 7 1 7 8
M  V30 8 1 7 9
M  V30 9 2 9 10
M  V30 10 1 10 11
M  V30 11 1 11 12
M  V30 12 2 12 13
M  V30 13 1 13 14
M  V30 14 2 14 15
M  V30 15 1 15 16
M  V30 16 1 16 17
M  V30 17 1 17 18
M  V30 18 1 18 19
M  V30 19 1 19 20
M  V30 20 1 20 21
M  V30 21 1 21 22
M  V30 22 2 16 23
M  V30 23 2 11 2
M  V30 24 1 23 12
M  V30 25 1 10 4
M  V30 26 1 22 18
M  V30 27 1 1 24
M  V30 28 1 1 25
M  V30 29 1 1 26
M  V30 30 1 3 27
M  V30 31 1 5 28
M  V30 32 1 6 29
M  V30 33 1 9 30
M  V30 34 1 13 31
M  V30 35 1 14 32
M  V30 36 1 17 33
M  V30 37 1 18 34
M  V30 38 1 19 35
M  V30 39 1 19 36
M  V30 40 1 20 37
M  V30 41 1 20 38
M  V30 42 1 21 39
M  V30 43 1 21 40
M  V30 44 1 22 41
M  V30 45 1 22 42
M  V30 END BOND
M  V30 END CTAB
M  END
>  <Dataset>  (766) 
ChEMBL_Kinases

>  <Ligand_Instance>  (766) 
nan

>  <PDB_ID>  (766) 
nan

>  <Standardized_SMILES>  (766) 
Cc1[nH]c2ccc(Cl)cc2c1-c1ccnc(NC2CCCC2)n1

>  <Name>  (766) 
nan

>  <Pocket>  (766) 
nan

>  <ATP_Site>  (766) 
nan

>  <Peripheral>  (766) 
nan

>  <Num_H_Atoms_ProtBoundConf>  (766) 
nan

>  <Num_Resolved_Atoms>  (766) 
nan

>  <Num_Not_Resolved_Atoms>  (766) 
nan

$$$$
CHEMBL1802773
     RDKit          3D

  0  0  0  0  0  0  0  0  0  0999 V3000
M  V30 BEGIN CTAB
M  V30 COUNTS 39 42 0 0 0
M  V30 BEGIN ATOM
M  V30 1 C -0.523295 -2.671325 -1.024072 0
M  V30 2 C 0.857851 -2.105482 -0.990364 0
M  V30 3 N 2.009223 -2.783033 -1.153785 0
M  V30 4 C 3.057600 -1.937809 -1.061864 0
M  V30 5 C 4.441380 -2.042544 -1.139400 0
M  V30 6 C 5.263656 -0.923483 -0.991060 0
M  V30 7 C 4.723859 0.328547 -0.760737 0
M  V30 8 Cl 5.717566 1.753614 -0.568476 0
M  V30 9 C 3.349909 0.489477 -0.674173 0
M  V30 10 C 2.604158 -0.655808 -0.830718 0
M  V30 11 C 1.231215 -0.772413 -0.787864 0
M  V30 12 C 0.211557 0.257921 -0.564348 0
M  V30 13 C -0.498293 1.013710 -1.477998 0
M  V30 14 C -1.417594 1.918966 -0.988529 0
M  V30 15 N -1.592297 2.037151 0.344909 0
M  V30 16 C -0.897280 1.298539 1.235602 0
M  V30 17 N -1.272478 1.612984 2.565048 0
M  V30 18 C -1.901689 0.615818 3.356119 0
M  V30 19 C -2.040787 -0.648623 2.824676 0
M  V30 20 C -2.626967 -1.707190 3.484268 0
M  V30 21 C -3.115119 -1.503491 4.771950 0
M  V30 22 C -2.971249 -0.224242 5.301048 0
M  V30 23 Cl -3.590769 0.028504 6.929771 0
M  V30 24 C -2.382367 0.827207 4.629018 0
M  V30 25 N -0.002907 0.418247 0.742323 0
M  V30 26 H -0.831039 -3.152616 -0.093217 0
M  V30 27 H -0.554423 -3.452667 -1.841892 0
M  V30 28 H -1.263966 -1.896679 -1.307902 0
M  V30 29 H 2.106196 -3.819495 -1.328361 0
M  V30 30 H 4.832314 -3.037501 -1.320979 0
M  V30 31 H 6.350982 -1.038170 -1.058262 0
M  V30 32 H 2.890441 1.439295 -0.496444 0
M  V30 33 H -0.226945 0.787645 -2.499141 0
M  V30 34 H -1.942516 2.480271 -1.746578 0
M  V30 35 H -1.115676 2.553520 3.004885 0
M  V30 36 H -1.694523 -0.921841 1.823281 0
M  V30 37 H -2.737962 -2.698124 3.073582 0
M  V30 38 H -3.578733 -2.314833 5.312705 0
M  V30 39 H -2.282068 1.805146 5.053092 0
M  V30 END ATOM
M  V30 BEGIN BOND
M  V30 1 1 1 2
M  V30 2 1 2 3
M  V30 3 1 3 4
M  V30 4 2 4 5
M  V30 5 1 5 6
M  V30 6 2 6 7
M  V30 7 1 7 8
M  V30 8 1 7 9
M  V30 9 2 9 10
M  V30 10 1 10 11
M  V30 11 1 11 12
M  V30 12 2 12 13
M  V30 13 1 13 14
M  V30 14 2 14 15
M  V30 15 1 15 16
M  V30 16 1 16 17
M  V30 17 1 17 18
M  V30 18 2 18 19
M  V30 19 1 19 20
M  V30 20 2 20 21
M  V30 21 1 21 22
M  V30 22 1 22 23
M  V30 23 2 22 24
M  V30 24 2 16 25
M  V30 25 2 11 2
M  V30 26 1 25 12
M  V30 27 1 10 4
M  V30 28 1 24 18
M  V30 29 1 1 26
M  V30 30 1 1 27
M  V30 31 1 1 28
M  V30 32 1 3 29
M  V30 33 1 5 30
M  V30 34 1 6 31
M  V30 35 1 9 32
M  V30 36 1 13 33
M  V30 37 1 14 34
M  V30 38 1 17 35
M  V30 39 1 19 36
M  V30 40 1 20 37
M  V30 41 1 21 38
M  V30 42 1 24 39
M  V30 END BOND
M  V30 END CTAB
M  END
>  <Dataset>  (767) 
ChEMBL_Kinases

>  <Ligand_Instance>  (767) 
nan

>  <PDB_ID>  (767) 
nan

>  <Standardized_SMILES>  (767) 
Cc1[nH]c2ccc(Cl)cc2c1-c1ccnc(Nc2cccc(Cl)c2)n1

>  <Name>  (767) 
nan

>  <Pocket>  (767) 
nan

>  <ATP_Site>  (767) 
nan

>  <Peripheral>  (767) 
nan

>  <Num_H_Atoms_ProtBoundConf>  (767) 
nan

>  <Num_Resolved_Atoms>  (767) 
nan

>  <Num_Not_Resolved_Atoms>  (767) 
nan

$$$$
CHEMBL1802771
     RDKit          3D

  0  0  0  0  0  0  0  0  0  0999 V3000
M  V30 BEGIN CTAB
M  V30 COUNTS 39 42 0 0 0
M  V30 BEGIN ATOM
M  V30 1 C 1.722445 -3.307807 -0.399322 0
M  V30 2 C 1.082243 -2.169367 -1.120076 0
M  V30 3 N 0.323940 -2.336854 -2.241030 0
M  V30 4 C -0.111915 -1.127240 -2.655106 0
M  V30 5 C -0.893908 -0.666054 -3.699317 0
M  V30 6 C -1.183796 0.675308 -3.880070 0
M  V30 7 C -0.658106 1.586661 -2.962777 0
M  V30 8 C 0.124140 1.195727 -1.905817 0
M  V30 9 C 0.368203 -0.159273 -1.793425 0
M  V30 10 C 1.122488 -0.818296 -0.823965 0
M  V30 11 C 1.862663 -0.312452 0.330550 0
M  V30 12 C 3.186467 0.077381 0.325780 0
M  V30 13 C 3.752347 0.535998 1.497426 0
M  V30 14 N 3.021763 0.599562 2.620394 0
M  V30 15 C 1.728981 0.228946 2.665588 0
M  V30 16 N 1.016039 0.323423 3.891887 0
M  V30 17 C -0.338298 -0.010257 4.158394 0
M  V30 18 C -0.870991 0.146735 5.421821 0
M  V30 19 C -2.173814 -0.162815 5.724101 0
M  V30 20 C -3.022097 -0.653456 4.758854 0
M  V30 21 F -4.306833 -0.959435 5.053993 0
M  V30 22 C -2.544630 -0.831163 3.477715 0
M  V30 23 F -3.370144 -1.313746 2.517812 0
M  V30 24 C -1.231805 -0.504259 3.233326 0
M  V30 25 N 1.230012 -0.206534 1.507496 0
M  V30 26 H 2.680693 -2.957452 0.079939 0
M  V30 27 H 2.012128 -4.117070 -1.079938 0
M  V30 28 H 1.083429 -3.610306 0.432675 0
M  V30 29 H 0.090295 -3.244497 -2.737331 0
M  V30 30 H -1.268396 -1.441248 -4.374987 0
M  V30 31 H -1.810967 0.992327 -4.726864 0
M  V30 32 H -0.907573 2.627101 -3.138396 0
M  V30 33 H 0.526418 1.902575 -1.202208 0
M  V30 34 H 3.717382 0.000259 -0.614616 0
M  V30 35 H 4.786851 0.843146 1.503775 0
M  V30 36 H 1.552959 0.686868 4.715572 0
M  V30 37 H -0.249684 0.531455 6.230746 0
M  V30 38 H -2.534696 -0.018532 6.732477 0
M  V30 39 H -0.927266 -0.666162 2.221039 0
M  V30 END ATOM
M  V30 BEGIN BOND
M  V30 1 1 1 2
M  V30 2 1 2 3
M  V30 3 1 3 4
M  V30 4 2 4 5
M  V30 5 1 5 6
M  V30 6 2 6 7
M  V30 7 1 7 8
M  V30 8 2 8 9
M  V30 9 1 9 10
M  V30 10 1 10 11
M  V30 11 2 11 12
M  V30 12 1 12 13
M  V30 13 2 13 14
M  V30 14 1 14 15
M  V30 15 1 15 16
M  V30 16 1 16 17
M  V30 17 2 17 18
M  V30 18 1 18 19
M  V30 19 2 19 20
M  V30 20 1 20 21
M  V30 21 1 20 22
M  V30 22 1 22 23
M  V30 23 2 22 24
M  V30 24 2 15 25
M  V30 25 2 10 2
M  V30 26 1 25 11
M  V30 27 1 9 4
M  V30 28 1 24 17
M  V30 29 1 1 26
M  V30 30 1 1 27
M  V30 31 1 1 28
M  V30 32 1 3 29
M  V30 33 1 5 30
M  V30 34 1 6 31
M  V30 35 1 7 32
M  V30 36 1 8 33
M  V30 37 1 12 34
M  V30 38 1 13 35
M  V30 39 1 16 36
M  V30 40 1 18 37
M  V30 41 1 19 38
M  V30 42 1 24 39
M  V30 END BOND
M  V30 END CTAB
M  END
>  <Dataset>  (768) 
ChEMBL_Kinases

>  <Ligand_Instance>  (768) 
nan

>  <PDB_ID>  (768) 
nan

>  <Standardized_SMILES>  (768) 
Cc1[nH]c2ccccc2c1-c1ccnc(Nc2ccc(F)c(F)c2)n1

>  <Name>  (768) 
nan

>  <Pocket>  (768) 
nan

>  <ATP_Site>  (768) 
nan

>  <Peripheral>  (768) 
nan

>  <Num_H_Atoms_ProtBoundConf>  (768) 
nan

>  <Num_Resolved_Atoms>  (768) 
nan

>  <Num_Not_Resolved_Atoms>  (768) 
nan

$$$$
CHEMBL1802769
     RDKit          3D

  0  0  0  0  0  0  0  0  0  0999 V3000
M  V30 BEGIN CTAB
M  V30 COUNTS 39 42 0 0 0
M  V30 BEGIN ATOM
M  V30 1 C -1.302687 -3.210094 -0.871481 0
M  V30 2 C 0.121974 -2.952098 -0.602585 0
M  V30 3 N 1.067902 -3.852726 -0.315218 0
M  V30 4 C 2.249139 -3.223186 -0.134485 0
M  V30 5 C 3.523187 -3.687150 0.176507 0
M  V30 6 C 4.589755 -2.820405 0.309408 0
M  V30 7 C 4.354587 -1.462336 0.122801 0
M  V30 8 C 3.101624 -0.964902 -0.187224 0
M  V30 9 C 2.058260 -1.859874 -0.312450 0
M  V30 10 C 0.707556 -1.699926 -0.608445 0
M  V30 11 C 0.097247 -0.386584 -0.868175 0
M  V30 12 C 0.058484 0.095033 -2.146019 0
M  V30 13 C -0.530706 1.329366 -2.290575 0
M  V30 14 N -1.035242 2.022607 -1.262142 0
M  V30 15 C -0.990933 1.537638 -0.009096 0
M  V30 16 N -1.532223 2.291706 1.061817 0
M  V30 17 C -1.591238 1.975557 2.440719 0
M  V30 18 C -1.115593 0.829425 3.030179 0
M  V30 19 C -1.173855 0.523630 4.371664 0
M  V30 20 C -1.763294 1.451803 5.200548 0
M  V30 21 C -2.259976 2.622033 4.669265 0
M  V30 22 Cl -3.002027 3.784539 5.731744 0
M  V30 23 C -2.165756 2.855953 3.325540 0
M  V30 24 N -0.417399 0.335478 0.133580 0
M  V30 25 H -1.801469 -3.528262 0.088605 0
M  V30 26 H -1.818878 -2.325579 -1.260462 0
M  V30 27 H -1.365010 -4.068525 -1.566154 0
M  V30 28 H 0.962353 -4.901635 -0.230575 0
M  V30 29 H 3.709390 -4.758116 0.323819 0
M  V30 30 H 5.600768 -3.138161 0.551077 0
M  V30 31 H 5.187316 -0.757024 0.223657 0
M  V30 32 H 2.952871 0.100126 -0.326181 0
M  V30 33 H 0.480772 -0.508153 -2.934106 0
M  V30 34 H -0.580353 1.748993 -3.302534 0
M  V30 35 H -1.954635 3.229472 0.790835 0
M  V30 36 H -0.647473 0.076579 2.421664 0
M  V30 37 H -0.777941 -0.400887 4.768839 0
M  V30 38 H -1.825977 1.243979 6.259899 0
M  V30 39 H -2.583557 3.810902 2.971850 0
M  V30 END ATOM
M  V30 BEGIN BOND
M  V30 1 1 1 2
M  V30 2 1 2 3
M  V30 3 1 3 4
M  V30 4 2 4 5
M  V30 5 1 5 6
M  V30 6 2 6 7
M  V30 7 1 7 8
M  V30 8 2 8 9
M  V30 9 1 9 10
M  V30 10 1 10 11
M  V30 11 2 11 12
M  V30 12 1 12 13
M  V30 13 2 13 14
M  V30 14 1 14 15
M  V30 15 1 15 16
M  V30 16 1 16 17
M  V30 17 2 17 18
M  V30 18 1 18 19
M  V30 19 2 19 20
M  V30 20 1 20 21
M  V30 21 1 21 22
M  V30 22 2 21 23
M  V30 23 2 15 24
M  V30 24 2 10 2
M  V30 25 1 24 11
M  V30 26 1 9 4
M  V30 27 1 23 17
M  V30 28 1 1 25
M  V30 29 1 1 26
M  V30 30 1 1 27
M  V30 31 1 3 28
M  V30 32 1 5 29
M  V30 33 1 6 30
M  V30 34 1 7 31
M  V30 35 1 8 32
M  V30 36 1 12 33
M  V30 37 1 13 34
M  V30 38 1 16 35
M  V30 39 1 18 36
M  V30 40 1 19 37
M  V30 41 1 20 38
M  V30 42 1 23 39
M  V30 END BOND
M  V30 END CTAB
M  END
>  <Dataset>  (769) 
ChEMBL_Kinases

>  <Ligand_Instance>  (769) 
nan

>  <PDB_ID>  (769) 
nan

>  <Standardized_SMILES>  (769) 
Cc1[nH]c2ccccc2c1-c1ccnc(Nc2cccc(Cl)c2)n1

>  <Name>  (769) 
nan

>  <Pocket>  (769) 
nan

>  <ATP_Site>  (769) 
nan

>  <Peripheral>  (769) 
nan

>  <Num_H_Atoms_ProtBoundConf>  (769) 
nan

>  <Num_Resolved_Atoms>  (769) 
nan

>  <Num_Not_Resolved_Atoms>  (769) 
nan

$$$$
CHEMBL1802729
     RDKit          3D

  0  0  0  0  0  0  0  0  0  0999 V3000
M  V30 BEGIN CTAB
M  V30 COUNTS 42 45 0 0 0
M  V30 BEGIN ATOM
M  V30 1 N 5.589917 -3.584416 3.028879 0
M  V30 2 C 4.622286 -3.267368 2.482712 0
M  V30 3 C 3.410417 -2.864388 1.774945 0
M  V30 4 C 3.702319 -2.228324 0.424518 0
M  V30 5 C 2.472908 -1.820454 -0.291523 0
M  V30 6 C 1.866058 -2.721027 -1.135197 0
M  V30 7 C 0.720345 -2.329684 -1.797395 0
M  V30 8 C 0.205788 -1.041507 -1.599844 0
M  V30 9 C 0.819340 -0.116603 -0.740590 0
M  V30 10 C 1.974864 -0.549103 -0.089468 0
M  V30 11 C 0.348295 1.238508 -0.485543 0
M  V30 12 N 1.067648 1.691380 0.720472 0
M  V30 13 C 0.288729 1.073272 1.768363 0
M  V30 14 C 0.638077 0.661020 3.061602 0
M  V30 15 C -0.264839 0.081090 3.926485 0
M  V30 16 C -1.554154 -0.083777 3.465617 0
M  V30 17 N -2.548194 -0.683316 4.318173 0 CHG=1 VAL=4
M  V30 18 O -2.230668 -1.048639 5.469548 0
M  V30 19 O -3.825477 -0.830226 3.819622 0 CHG=-1 VAL=1
M  V30 20 C -1.910967 0.315767 2.199867 0
M  V30 21 C -1.028829 0.893901 1.325358 0
M  V30 22 C -1.044869 1.442314 -0.082613 0
M  V30 23 C -2.178394 0.943446 -0.826360 0
M  V30 24 C -1.971417 0.160613 -2.059706 0
M  V30 25 O -2.766660 0.372504 -3.043700 0
M  V30 26 N -0.991878 -0.853770 -2.388694 0
M  V30 27 H 2.764416 -3.775876 1.626473 0
M  V30 28 H 2.867862 -2.153223 2.430241 0
M  V30 29 H 4.317629 -1.341756 0.631868 0
M  V30 30 H 4.255500 -2.949822 -0.208321 0
M  V30 31 H 2.289963 -3.701610 -1.262077 0
M  V30 32 H 0.202500 -3.002259 -2.474670 0
M  V30 33 H 2.418670 0.189745 0.563228 0
M  V30 34 H 0.683542 1.907866 -1.304293 0
M  V30 35 H 1.903828 2.282846 0.923781 0
M  V30 36 H 1.645017 0.782725 3.439604 0
M  V30 37 H 0.013659 -0.233845 4.922362 0
M  V30 38 H -2.912252 0.174849 1.876519 0
M  V30 39 H -1.166851 2.555691 0.090204 0
M  V30 40 H -2.874729 1.787698 -1.112029 0
M  V30 41 H -2.835261 0.319127 -0.147641 0
M  V30 42 H -1.119246 -1.485913 -3.209065 0
M  V30 END ATOM
M  V30 BEGIN BOND
M  V30 1 3 1 2
M  V30 2 1 2 3
M  V30 3 1 3 4
M  V30 4 1 4 5
M  V30 5 2 5 6
M  V30 6 1 6 7
M  V30 7 2 7 8
M  V30 8 1 8 9
M  V30 9 2 9 10
M  V30 10 1 9 11
M  V30 11 1 11 12
M  V30 12 1 12 13
M  V30 13 2 13 14
M  V30 14 1 14 15
M  V30 15 2 15 16
M  V30 16 1 16 17
M  V30 17 2 17 18
M  V30 18 1 17 19
M  V30 19 1 16 20
M  V30 20 2 20 21
M  V30 21 1 21 22
M  V30 22 1 22 23
M  V30 23 1 23 24
M  V30 24 2 24 25
M  V30 25 1 24 26
M  V30 26 1 10 5
M  V30 27 1 22 11
M  V30 28 1 26 8
M  V30 29 1 21 13
M  V30 30 1 3 27
M  V30 31 1 3 28
M  V30 32 1 4 29
M  V30 33 1 4 30
M  V30 34 1 6 31
M  V30 35 1 7 32
M  V30 36 1 10 33
M  V30 37 1 11 34
M  V30 38 1 12 35
M  V30 39 1 14 36
M  V30 40 1 15 37
M  V30 41 1 20 38
M  V30 42 1 22 39
M  V30 43 1 23 40
M  V30 44 1 23 41
M  V30 45 1 26 42
M  V30 END BOND
M  V30 END CTAB
M  END
>  <Dataset>  (770) 
ChEMBL_Kinases

>  <Ligand_Instance>  (770) 
nan

>  <PDB_ID>  (770) 
nan

>  <Standardized_SMILES>  (770) 
N#CCCc1ccc2c(c1)C1Nc3ccc([N+](=O)[O-])cc3C1CC(=O)N2

>  <Name>  (770) 
nan

>  <Pocket>  (770) 
nan

>  <ATP_Site>  (770) 
nan

>  <Peripheral>  (770) 
nan

>  <Num_H_Atoms_ProtBoundConf>  (770) 
nan

>  <Num_Resolved_Atoms>  (770) 
nan

>  <Num_Not_Resolved_Atoms>  (770) 
nan

$$$$
CHEMBL1825152
     RDKit          3D

  0  0  0  0  0  0  0  0  0  0999 V3000
M  V30 BEGIN CTAB
M  V30 COUNTS 55 59 0 0 0
M  V30 BEGIN ATOM
M  V30 1 C -1.112017 3.107337 1.057231 0
M  V30 2 C 0.267618 2.595183 0.919112 0
M  V30 3 C 1.364815 3.433880 1.067717 0
M  V30 4 C 2.643200 2.933452 0.934362 0
M  V30 5 C 2.876486 1.604118 0.653227 0
M  V30 6 C 4.177085 0.968803 0.491373 0
M  V30 7 O 4.299204 -0.268196 0.231960 0
M  V30 8 N 5.371539 1.729813 0.621608 0
M  V30 9 C 6.636830 1.059692 0.453340 0
M  V30 10 C 7.697327 1.895792 -0.320182 0
M  V30 11 C 7.869123 1.639093 1.143952 0
M  V30 12 C 1.746613 0.793530 0.511208 0
M  V30 13 C 0.434426 1.256428 0.637560 0
M  V30 14 C -0.652348 0.295097 0.463308 0
M  V30 15 C -0.443243 -0.913166 1.132351 0
M  V30 16 C -1.395035 -1.912979 1.051803 0
M  V30 17 C -2.520369 -1.668875 0.305996 0
M  V30 18 C -2.760683 -0.488645 -0.367858 0
M  V30 19 C -1.799788 0.498032 -0.276184 0
M  V30 20 N -4.009946 -0.541882 -1.047899 0
M  V30 21 C -4.544607 -1.830054 -0.761735 0
M  V30 22 O -5.637096 -2.324374 -1.152200 0
M  V30 23 C -3.645702 -2.632286 0.111016 0 CFG=2
M  V30 24 C -4.281270 -3.034998 1.389428 0
M  V30 25 C -4.621989 -4.469740 1.555265 0
M  V30 26 C -3.724878 -5.439024 0.855413 0 CFG=2
M  V30 27 O -2.406015 -5.314983 1.255238 0
M  V30 28 C -3.800510 -5.045795 -0.626329 0
M  V30 29 C -3.088613 -3.739414 -0.732972 0
M  V30 30 H -1.474447 3.640719 0.132446 0
M  V30 31 H -1.088383 3.933462 1.826729 0
M  V30 32 H -1.830755 2.376724 1.450605 0
M  V30 33 H 1.209048 4.481467 1.288621 0
M  V30 34 H 3.518696 3.558941 1.043864 0
M  V30 35 H 5.378591 2.748030 0.832653 0
M  V30 36 H 6.650327 -0.022237 0.228655 0
M  V30 37 H 7.407695 2.935983 -0.584862 0
M  V30 38 H 8.331792 1.313486 -1.032762 0
M  V30 39 H 7.665953 2.450131 1.869770 0
M  V30 40 H 8.665820 0.926969 1.418202 0
M  V30 41 H 1.889028 -0.268090 0.287706 0
M  V30 42 H 0.457606 -1.112261 1.731061 0
M  V30 43 H -1.203377 -2.840124 1.582777 0
M  V30 44 H -1.896410 1.456327 -0.767787 0
M  V30 45 H -4.445766 0.203802 -1.633750 0
M  V30 46 H -5.251282 -2.466857 1.467006 0
M  V30 47 H -3.698774 -2.696115 2.293436 0
M  V30 48 H -5.670291 -4.691465 1.218957 0
M  V30 49 H -4.614290 -4.730405 2.637859 0
M  V30 50 H -4.125193 -6.444796 0.975630 0
M  V30 51 H -1.831013 -5.774574 0.574250 0
M  V30 52 H -3.181109 -5.791078 -1.167074 0
M  V30 53 H -4.838463 -5.018455 -0.973357 0
M  V30 54 H -2.983671 -3.371290 -1.772641 0
M  V30 55 H -2.036405 -3.925070 -0.377860 0
M  V30 END ATOM
M  V30 BEGIN BOND
M  V30 1 1 1 2
M  V30 2 2 2 3
M  V30 3 1 3 4
M  V30 4 2 4 5
M  V30 5 1 5 6
M  V30 6 2 6 7
M  V30 7 1 6 8
M  V30 8 1 8 9
M  V30 9 1 9 10
M  V30 10 1 10 11
M  V30 11 1 5 12
M  V30 12 2 12 13
M  V30 13 1 13 14
M  V30 14 2 14 15
M  V30 15 1 15 16
M  V30 16 2 16 17
M  V30 17 1 17 18
M  V30 18 2 18 19
M  V30 19 1 18 20
M  V30 20 1 20 21
M  V30 21 2 21 22
M  V30 22 1 21 23
M  V30 23 1 23 24 CFG=1
M  V30 24 1 24 25
M  V30 25 1 25 26
M  V30 26 1 26 27
M  V30 27 1 26 28
M  V30 28 1 28 29
M  V30 29 1 13 2
M  V30 30 1 19 14
M  V30 31 1 29 23
M  V30 32 1 11 9
M  V30 33 1 23 17
M  V30 34 1 1 30
M  V30 35 1 1 31
M  V30 36 1 1 32
M  V30 37 1 3 33
M  V30 38 1 4 34
M  V30 39 1 8 35
M  V30 40 1 9 36
M  V30 41 1 10 37
M  V30 42 1 10 38
M  V30 43 1 11 39
M  V30 44 1 11 40
M  V30 45 1 12 41
M  V30 46 1 15 42
M  V30 47 1 16 43
M  V30 48 1 19 44
M  V30 49 1 20 45
M  V30 50 1 24 46
M  V30 51 1 24 47
M  V30 52 1 25 48
M  V30 53 1 25 49
M  V30 54 1 26 50 CFG=3
M  V30 55 1 27 51
M  V30 56 1 28 52
M  V30 57 1 28 53
M  V30 58 1 29 54
M  V30 59 1 29 55
M  V30 END BOND
M  V30 END CTAB
M  END
>  <Dataset>  (771) 
ChEMBL_Kinases

>  <Ligand_Instance>  (771) 
nan

>  <PDB_ID>  (771) 
nan

>  <Standardized_SMILES>  (771) 
Cc1ccc(C(=O)NC2CC2)cc1-c1ccc2c(c1)NC(=O)[C@]21CC[C@H](O)CC1

>  <Name>  (771) 
nan

>  <Pocket>  (771) 
nan

>  <ATP_Site>  (771) 
nan

>  <Peripheral>  (771) 
nan

>  <Num_H_Atoms_ProtBoundConf>  (771) 
nan

>  <Num_Resolved_Atoms>  (771) 
nan

>  <Num_Not_Resolved_Atoms>  (771) 
nan

$$$$
CHEMBL1802485
     RDKit          3D

  0  0  0  0  0  0  0  0  0  0999 V3000
M  V30 BEGIN CTAB
M  V30 COUNTS 28 31 0 0 0
M  V30 BEGIN ATOM
M  V30 1 C 1.311292 -4.420248 1.324367 0
M  V30 2 N 0.908537 -3.031619 1.140580 0
M  V30 3 N -0.130946 -2.392412 1.690124 0
M  V30 4 C -0.151199 -1.117126 1.261759 0
M  V30 5 C 0.928376 -0.991059 0.416365 0
M  V30 6 C 1.271168 0.157781 -0.237611 0
M  V30 7 C 2.400761 0.123769 -1.064511 0
M  V30 8 C 3.101561 -1.064128 -1.171830 0
M  V30 9 C 2.708161 -2.213755 -0.479998 0
M  V30 10 C 1.598529 -2.200782 0.339399 0
M  V30 11 C 0.476680 1.371183 -0.069622 0
M  V30 12 O 0.778591 2.417337 -0.657551 0
M  V30 13 C -0.693907 1.281396 0.830744 0
M  V30 14 C -1.485527 2.393959 1.031694 0
M  V30 15 C -2.589259 2.303147 1.882793 0
M  V30 16 C -2.848892 1.093211 2.496259 0
M  V30 17 C -2.068107 -0.034041 2.308462 0
M  V30 18 C -0.968548 0.079318 1.452622 0
M  V30 19 H 2.404047 -4.496024 1.473166 0
M  V30 20 H 0.980462 -4.972411 0.413043 0
M  V30 21 H 0.792712 -4.892071 2.174930 0
M  V30 22 H 2.676531 1.022858 -1.581897 0
M  V30 23 H 3.978394 -1.119203 -1.803771 0
M  V30 24 H 3.239671 -3.156030 -0.547004 0
M  V30 25 H -1.208669 3.307639 0.508451 0
M  V30 26 H -3.200611 3.188611 2.028835 0
M  V30 27 H -3.717945 1.072227 3.148823 0
M  V30 28 H -2.286257 -0.964512 2.793986 0
M  V30 END ATOM
M  V30 BEGIN BOND
M  V30 1 1 1 2
M  V30 2 1 2 3
M  V30 3 2 3 4
M  V30 4 1 4 5
M  V30 5 2 5 6
M  V30 6 1 6 7
M  V30 7 2 7 8
M  V30 8 1 8 9
M  V30 9 2 9 10
M  V30 10 1 6 11
M  V30 11 2 11 12
M  V30 12 1 11 13
M  V30 13 2 13 14
M  V30 14 1 14 15
M  V30 15 2 15 16
M  V30 16 1 16 17
M  V30 17 2 17 18
M  V30 18 1 10 2
M  V30 19 1 18 13
M  V30 20 1 18 4
M  V30 21 1 10 5
M  V30 22 1 1 19
M  V30 23 1 1 20
M  V30 24 1 1 21
M  V30 25 1 7 22
M  V30 26 1 8 23
M  V30 27 1 9 24
M  V30 28 1 14 25
M  V30 29 1 15 26
M  V30 30 1 16 27
M  V30 31 1 17 28
M  V30 END BOND
M  V30 END CTAB
M  END
>  <Dataset>  (772) 
ChEMBL_Kinases

>  <Ligand_Instance>  (772) 
nan

>  <PDB_ID>  (772) 
nan

>  <Standardized_SMILES>  (772) 
Cn1nc2c3c(cccc31)C(=O)c1ccccc1-2

>  <Name>  (772) 
nan

>  <Pocket>  (772) 
nan

>  <ATP_Site>  (772) 
nan

>  <Peripheral>  (772) 
nan

>  <Num_H_Atoms_ProtBoundConf>  (772) 
nan

>  <Num_Resolved_Atoms>  (772) 
nan

>  <Num_Not_Resolved_Atoms>  (772) 
nan

$$$$
CHEMBL1802486
     RDKit          3D

  0  0  0  0  0  0  0  0  0  0999 V3000
M  V30 BEGIN CTAB
M  V30 COUNTS 46 53 0 0 0
M  V30 BEGIN ATOM
M  V30 1 O 4.792353 -1.428638 0.167219 0
M  V30 2 C 3.800095 -1.599968 0.884672 0
M  V30 3 N 3.969812 -2.455242 1.998932 0
M  V30 4 C 2.721732 -2.547505 2.729013 0
M  V30 5 C 1.801009 -1.660229 1.931704 0
M  V30 6 C 2.448411 -1.110589 0.851303 0
M  V30 7 C 1.753731 -0.282748 0.028232 0
M  V30 8 C 2.125455 0.391096 -1.093083 0
M  V30 9 C 3.228181 0.566376 -1.869264 0
M  V30 10 C 3.297069 1.346411 -2.993223 0
M  V30 11 C 2.153128 2.036442 -3.407215 0
M  V30 12 C 1.004890 1.880555 -2.636234 0
M  V30 13 C 1.011998 1.076717 -1.515593 0
M  V30 14 N -0.035129 0.856841 -0.703818 0
M  V30 15 C 0.433776 0.020116 0.240414 0
M  V30 16 C -0.188756 -0.547207 1.333565 0
M  V30 17 C 0.460468 -1.393966 2.204987 0
M  V30 18 C -0.505733 -1.724524 3.132586 0
M  V30 19 C -0.319989 -2.559619 4.210925 0
M  V30 20 C -1.436748 -2.760056 5.029075 0
M  V30 21 C -2.635738 -2.117627 4.708165 0
M  V30 22 C -2.769864 -1.280263 3.601795 0
M  V30 23 C -1.680716 -1.085240 2.804515 0
M  V30 24 N -1.493278 -0.355221 1.693383 0
M  V30 25 C -2.504910 0.475112 1.019487 0
M  V30 26 C -3.082543 -0.225265 -0.185057 0
M  V30 27 C -2.338117 0.318627 -1.374884 0
M  V30 28 C -1.415789 1.361388 -0.744437 0
M  V30 29 O -1.915546 1.622617 0.508921 0
M  V30 30 H 4.782382 -2.996895 2.365041 0
M  V30 31 H 2.406837 -3.611266 2.700957 0
M  V30 32 H 2.787403 -2.236729 3.769374 0
M  V30 33 H 4.146132 0.088012 -1.642390 0
M  V30 34 H 4.181009 1.477047 -3.601654 0
M  V30 35 H 2.154434 2.661109 -4.281312 0
M  V30 36 H 0.145682 2.416437 -2.971814 0
M  V30 37 H 0.620799 -3.042998 4.433788 0
M  V30 38 H -1.402078 -3.388226 5.890793 0
M  V30 39 H -3.511027 -2.269961 5.342766 0
M  V30 40 H -3.697673 -0.791193 3.364720 0
M  V30 41 H -3.281276 0.723354 1.761597 0
M  V30 42 H -4.184561 -0.134066 -0.272014 0
M  V30 43 H -2.797214 -1.306947 -0.100060 0
M  V30 44 H -2.990784 0.736714 -2.152586 0
M  V30 45 H -1.687524 -0.430070 -1.855897 0
M  V30 46 H -1.463498 2.240820 -1.419491 0
M  V30 END ATOM
M  V30 BEGIN BOND
M  V30 1 2 1 2
M  V30 2 1 2 3
M  V30 3 1 3 4
M  V30 4 1 4 5
M  V30 5 2 5 6
M  V30 6 1 6 7
M  V30 7 1 7 8
M  V30 8 2 8 9
M  V30 9 1 9 10
M  V30 10 2 10 11
M  V30 11 1 11 12
M  V30 12 2 12 13
M  V30 13 1 13 14
M  V30 14 1 14 15
M  V30 15 1 15 16
M  V30 16 2 16 17
M  V30 17 1 17 18
M  V30 18 2 18 19
M  V30 19 1 19 20
M  V30 20 2 20 21
M  V30 21 1 21 22
M  V30 22 2 22 23
M  V30 23 1 23 24
M  V30 24 1 24 25
M  V30 25 1 25 26
M  V30 26 1 26 27
M  V30 27 1 27 28
M  V30 28 1 28 29
M  V30 29 1 6 2
M  V30 30 2 15 7
M  V30 31 1 24 16
M  V30 32 1 29 25
M  V30 33 1 17 5
M  V30 34 1 23 18
M  V30 35 1 13 8
M  V30 36 1 28 14
M  V30 37 1 3 30
M  V30 38 1 4 31
M  V30 39 1 4 32
M  V30 40 1 9 33
M  V30 41 1 10 34
M  V30 42 1 11 35
M  V30 43 1 12 36
M  V30 44 1 19 37
M  V30 45 1 20 38
M  V30 46 1 21 39
M  V30 47 1 22 40
M  V30 48 1 25 41
M  V30 49 1 26 42
M  V30 50 1 26 43
M  V30 51 1 27 44
M  V30 52 1 27 45
M  V30 53 1 28 46
M  V30 END BOND
M  V30 END CTAB
M  END
>  <Dataset>  (773) 
ChEMBL_Kinases

>  <Ligand_Instance>  (773) 
nan

>  <PDB_ID>  (773) 
nan

>  <Standardized_SMILES>  (773) 
O=C1NCc2c1c1c3ccccc3n3c1c1c2c2ccccc2n1C1CCC3O1

>  <Name>  (773) 
nan

>  <Pocket>  (773) 
nan

>  <ATP_Site>  (773) 
nan

>  <Peripheral>  (773) 
nan

>  <Num_H_Atoms_ProtBoundConf>  (773) 
nan

>  <Num_Resolved_Atoms>  (773) 
nan

>  <Num_Not_Resolved_Atoms>  (773) 
nan

$$$$
CHEMBL1802487
     RDKit          3D

  0  0  0  0  0  0  0  0  0  0999 V3000
M  V30 BEGIN CTAB
M  V30 COUNTS 33 36 0 0 0
M  V30 BEGIN ATOM
M  V30 1 O -2.613192 -5.877331 2.455787 0
M  V30 2 C -1.757227 -5.052828 2.071895 0
M  V30 3 C -0.596452 -4.681667 2.924604 0
M  V30 4 C 0.117483 -3.705743 2.074115 0
M  V30 5 C 1.291786 -3.016149 2.358825 0
M  V30 6 C 1.808057 -2.135740 1.422608 0
M  V30 7 C 1.159974 -1.949492 0.223231 0
M  V30 8 O 1.540119 -1.107772 -0.821833 0
M  V30 9 C 1.067237 0.216133 -0.832289 0
M  V30 10 C 1.490121 0.981946 -1.900906 0
M  V30 11 C 1.031324 2.287606 -1.922752 0
M  V30 12 C 0.203219 2.850951 -0.970714 0
M  V30 13 C -0.184305 2.013313 0.083661 0
M  V30 14 C 0.239270 0.692418 0.167669 0
M  V30 15 N -1.031945 2.741066 0.974699 0
M  V30 16 C -1.178290 4.068632 0.464078 0
M  V30 17 O -1.828842 5.079942 0.897692 0
M  V30 18 C -0.404507 4.189658 -0.783579 0
M  V30 19 C -0.018229 -2.629656 -0.083977 0
M  V30 20 C -0.529852 -3.516485 0.870187 0
M  V30 21 N -1.710966 -4.347538 0.836360 0
M  V30 22 H -0.911244 -4.275550 3.904288 0
M  V30 23 H 0.025772 -5.583157 3.006326 0
M  V30 24 H 1.843705 -3.115152 3.270628 0
M  V30 25 H 2.703843 -1.563518 1.554856 0
M  V30 26 H 2.137685 0.597793 -2.676547 0
M  V30 27 H 1.372538 2.891872 -2.777479 0
M  V30 28 H -0.061792 0.046323 0.984239 0
M  V30 29 H -1.500663 2.432041 1.860717 0
M  V30 30 H -1.110863 4.460225 -1.586258 0
M  V30 31 H 0.327751 4.990629 -0.690114 0
M  V30 32 H -0.584417 -2.538055 -1.001025 0
M  V30 33 H -2.396117 -4.426789 0.076118 0
M  V30 END ATOM
M  V30 BEGIN BOND
M  V30 1 2 1 2
M  V30 2 1 2 3
M  V30 3 1 3 4
M  V30 4 2 4 5
M  V30 5 1 5 6
M  V30 6 2 6 7
M  V30 7 1 7 8
M  V30 8 1 8 9
M  V30 9 2 9 10
M  V30 10 1 10 11
M  V30 11 2 11 12
M  V30 12 1 12 13
M  V30 13 2 13 14
M  V30 14 1 13 15
M  V30 15 1 15 16
M  V30 16 2 16 17
M  V30 17 1 16 18
M  V30 18 1 7 19
M  V30 19 2 19 20
M  V30 20 1 20 21
M  V30 21 1 21 2
M  V30 22 1 20 4
M  V30 23 1 14 9
M  V30 24 1 18 12
M  V30 25 1 3 22
M  V30 26 1 3 23
M  V30 27 1 5 24
M  V30 28 1 6 25
M  V30 29 1 10 26
M  V30 30 1 11 27
M  V30 31 1 14 28
M  V30 32 1 15 29
M  V30 33 1 18 30
M  V30 34 1 18 31
M  V30 35 1 19 32
M  V30 36 1 21 33
M  V30 END BOND
M  V30 END CTAB
M  END
>  <Dataset>  (774) 
ChEMBL_Kinases

>  <Ligand_Instance>  (774) 
nan

>  <PDB_ID>  (774) 
nan

>  <Standardized_SMILES>  (774) 
O=C1Cc2ccc(Oc3ccc4c(c3)NC(=O)C4)cc2N1

>  <Name>  (774) 
nan

>  <Pocket>  (774) 
nan

>  <ATP_Site>  (774) 
nan

>  <Peripheral>  (774) 
nan

>  <Num_H_Atoms_ProtBoundConf>  (774) 
nan

>  <Num_Resolved_Atoms>  (774) 
nan

>  <Num_Not_Resolved_Atoms>  (774) 
nan

$$$$
CHEMBL1802488
     RDKit          3D

  0  0  0  0  0  0  0  0  0  0999 V3000
M  V30 BEGIN CTAB
M  V30 COUNTS 32 34 0 0 0
M  V30 BEGIN ATOM
M  V30 1 C -2.040777 -5.078907 2.184914 0
M  V30 2 N -1.029433 -4.141060 1.745368 0
M  V30 3 C 0.317417 -4.509880 2.043400 0
M  V30 4 O 0.599077 -5.590871 2.655804 0
M  V30 5 N 1.428869 -3.670656 1.662727 0
M  V30 6 C 1.117988 -2.472680 0.984496 0
M  V30 7 O 2.100046 -1.765991 0.671751 0
M  V30 8 C -0.249442 -2.094097 0.678738 0
M  V30 9 C -0.369422 -0.961912 0.022645 0
M  V30 10 C 0.568237 0.020252 -0.485685 0
M  V30 11 C 1.682086 0.058310 -1.282066 0
M  V30 12 N 2.202502 1.289640 -1.392780 0
M  V30 13 C 1.431778 2.104939 -0.661630 0
M  V30 14 C 1.610164 3.462868 -0.496356 0
M  V30 15 C 0.715096 4.147135 0.298517 0
M  V30 16 C -0.314119 3.424743 0.885900 0
M  V30 17 O -1.189844 4.144220 1.674127 0
M  V30 18 C -0.494002 2.046003 0.717468 0
M  V30 19 C 0.415302 1.360961 -0.088371 0
M  V30 20 C -1.345279 -2.931545 1.059958 0
M  V30 21 O -2.510744 -2.610456 0.800687 0
M  V30 22 H -3.024764 -4.902412 1.743917 0
M  V30 23 H -1.773441 -6.124826 1.933833 0
M  V30 24 H -2.181894 -5.017305 3.296095 0
M  V30 25 H 2.394049 -3.992068 1.906676 0
M  V30 26 H -1.430433 -0.719097 -0.183730 0
M  V30 27 H 2.072122 -0.797557 -1.768802 0
M  V30 28 H 3.048703 1.528180 -1.953343 0
M  V30 29 H 2.403898 4.017750 -0.950044 0
M  V30 30 H 0.834739 5.195192 0.439821 0
M  V30 31 H -2.000355 3.722968 2.085184 0
M  V30 32 H -1.290238 1.513861 1.178154 0
M  V30 END ATOM
M  V30 BEGIN BOND
M  V30 1 1 1 2
M  V30 2 1 2 3
M  V30 3 2 3 4
M  V30 4 1 3 5
M  V30 5 1 5 6
M  V30 6 2 6 7
M  V30 7 1 6 8
M  V30 8 2 8 9
M  V30 9 1 9 10
M  V30 10 2 10 11
M  V30 11 1 11 12
M  V30 12 1 12 13
M  V30 13 2 13 14
M  V30 14 1 14 15
M  V30 15 2 15 16
M  V30 16 1 16 17
M  V30 17 1 16 18
M  V30 18 2 18 19
M  V30 19 1 8 20
M  V30 20 2 20 21
M  V30 21 1 20 2
M  V30 22 1 19 10
M  V30 23 1 19 13
M  V30 24 1 1 22
M  V30 25 1 1 23
M  V30 26 1 1 24
M  V30 27 1 5 25
M  V30 28 1 9 26
M  V30 29 1 11 27
M  V30 30 1 12 28
M  V30 31 1 14 29
M  V30 32 1 15 30
M  V30 33 1 17 31
M  V30 34 1 18 32
M  V30 END BOND
M  V30 END CTAB
M  END
>  <Dataset>  (775) 
ChEMBL_Kinases

>  <Ligand_Instance>  (775) 
nan

>  <PDB_ID>  (775) 
nan

>  <Standardized_SMILES>  (775) 
CN1C(=O)NC(=O)/C(=C\c2c[nH]c3ccc(O)cc23)C1=O

>  <Name>  (775) 
nan

>  <Pocket>  (775) 
nan

>  <ATP_Site>  (775) 
nan

>  <Peripheral>  (775) 
nan

>  <Num_H_Atoms_ProtBoundConf>  (775) 
nan

>  <Num_Resolved_Atoms>  (775) 
nan

>  <Num_Not_Resolved_Atoms>  (775) 
nan

$$$$
CHEMBL1802490
     RDKit          3D

  0  0  0  0  0  0  0  0  0  0999 V3000
M  V30 BEGIN CTAB
M  V30 COUNTS 30 31 0 0 0
M  V30 BEGIN ATOM
M  V30 1 C -0.428741 -3.472938 3.157687 0
M  V30 2 C 0.565986 -3.783955 2.336068 0
M  V30 3 N 1.714601 -4.601654 2.512917 0
M  V30 4 N 2.471863 -4.620923 1.345081 0
M  V30 5 C 1.840253 -3.804500 0.343831 0
M  V30 6 O 2.271275 -3.610661 -0.823373 0
M  V30 7 C 0.617648 -3.257101 0.953071 0
M  V30 8 N -0.255017 -2.474011 0.426177 0
M  V30 9 N -0.059782 -2.065706 -0.894026 0
M  V30 10 C -0.184911 -0.660621 -0.619294 0
M  V30 11 C 0.961415 0.090194 -0.426359 0
M  V30 12 C 0.855211 1.450969 -0.149211 0
M  V30 13 C -0.398984 2.069744 -0.062516 0
M  V30 14 S -0.468289 3.786311 0.289655 0
M  V30 15 N -0.353305 3.968094 2.027408 0
M  V30 16 O 0.612765 4.548566 -0.381538 0
M  V30 17 O -1.853049 4.267431 -0.061942 0
M  V30 18 C -1.578856 1.338048 -0.252182 0
M  V30 19 C -1.390836 -0.002258 -0.522675 0
M  V30 20 H -1.258755 -2.825572 2.889624 0
M  V30 21 H -0.544948 -3.817182 4.179819 0
M  V30 22 H 1.813738 -5.052087 3.462881 0
M  V30 23 H 3.339420 -5.169745 1.305389 0
M  V30 24 H 0.117778 -2.283342 -1.896041 0
M  V30 25 H 1.911444 -0.430633 -0.504456 0
M  V30 26 H 1.771522 2.010418 -0.007291 0
M  V30 27 H -0.690605 3.103059 2.502607 0
M  V30 28 H 0.659395 4.073446 2.313678 0
M  V30 29 H -2.542659 1.793705 -0.189306 0
M  V30 30 H -2.312703 -0.584238 -0.672779 0
M  V30 END ATOM
M  V30 BEGIN BOND
M  V30 1 2 1 2
M  V30 2 1 2 3
M  V30 3 1 3 4
M  V30 4 1 4 5
M  V30 5 2 5 6
M  V30 6 1 5 7
M  V30 7 2 7 8
M  V30 8 1 8 9
M  V30 9 1 9 10
M  V30 10 2 10 11
M  V30 11 1 11 12
M  V30 12 2 12 13
M  V30 13 1 13 14
M  V30 14 1 14 15
M  V30 15 2 14 16
M  V30 16 2 14 17
M  V30 17 1 13 18
M  V30 18 2 18 19
M  V30 19 1 7 2
M  V30 20 1 19 10
M  V30 21 1 1 20
M  V30 22 1 1 21
M  V30 23 1 3 22
M  V30 24 1 4 23
M  V30 25 1 9 24
M  V30 26 1 11 25
M  V30 27 1 12 26
M  V30 28 1 15 27
M  V30 29 1 15 28
M  V30 30 1 18 29
M  V30 31 1 19 30
M  V30 END BOND
M  V30 END CTAB
M  END
>  <Dataset>  (776) 
ChEMBL_Kinases

>  <Ligand_Instance>  (776) 
nan

>  <PDB_ID>  (776) 
nan

>  <Standardized_SMILES>  (776) 
C=C1NNC(=O)/C1=N\Nc1ccc(S(N)(=O)=O)cc1

>  <Name>  (776) 
nan

>  <Pocket>  (776) 
nan

>  <ATP_Site>  (776) 
nan

>  <Peripheral>  (776) 
nan

>  <Num_H_Atoms_ProtBoundConf>  (776) 
nan

>  <Num_Resolved_Atoms>  (776) 
nan

>  <Num_Not_Resolved_Atoms>  (776) 
nan

$$$$
CHEMBL1802492
     RDKit          3D

  0  0  0  0  0  0  0  0  0  0999 V3000
M  V30 BEGIN CTAB
M  V30 COUNTS 36 38 0 0 0
M  V30 BEGIN ATOM
M  V30 1 C -0.789093 0.342727 3.660710 0
M  V30 2 C 0.011978 -0.717324 3.028791 0
M  V30 3 N 0.340970 -1.980635 3.356981 0
M  V30 4 C 1.106632 -2.565451 2.448888 0
M  V30 5 C 1.649669 -3.837892 2.413631 0
M  V30 6 C 2.422558 -4.193497 1.330330 0
M  V30 7 C 2.637470 -3.296250 0.322010 0
M  V30 8 C 2.088293 -2.034136 0.375211 0
M  V30 9 C 1.304401 -1.629902 1.443007 0
M  V30 10 C 0.619956 -0.459792 1.795276 0
M  V30 11 C 0.679858 0.684728 0.879311 0
M  V30 12 C 1.634177 1.677607 0.921641 0
M  V30 13 C 1.534706 2.680188 -0.021640 0
M  V30 14 N 0.561812 2.711355 -0.950446 0
M  V30 15 C -0.381348 1.724335 -0.987400 0
M  V30 16 N -1.424134 1.727057 -1.956709 0
M  V30 17 C -2.433295 0.697626 -2.019627 0
M  V30 18 C -1.841407 -0.672876 -2.253655 0
M  V30 19 O -1.124513 -0.741521 -3.458013 0
M  V30 20 N -0.275242 0.757555 -0.068351 0
M  V30 21 H -0.174586 1.076201 4.209981 0
M  V30 22 H -1.442838 -0.126706 4.447089 0
M  V30 23 H -1.500895 0.796376 2.946064 0
M  V30 24 H -0.024825 -2.363857 4.261182 0
M  V30 25 H 1.500052 -4.562587 3.186622 0
M  V30 26 H 2.894813 -5.164723 1.203572 0
M  V30 27 H 3.230503 -3.528919 -0.537730 0
M  V30 28 H 2.265727 -1.331850 -0.429957 0
M  V30 29 H 2.370387 1.582473 1.685221 0
M  V30 30 H 2.295258 3.449374 0.030837 0
M  V30 31 H -1.438821 2.523266 -2.645471 0
M  V30 32 H -2.927857 0.649643 -1.033734 0
M  V30 33 H -3.157633 0.933947 -2.796407 0
M  V30 34 H -2.648151 -1.432057 -2.268348 0
M  V30 35 H -1.159676 -0.961375 -1.455648 0
M  V30 36 H -0.191240 -0.539977 -3.268233 0
M  V30 END ATOM
M  V30 BEGIN BOND
M  V30 1 1 1 2
M  V30 2 1 2 3
M  V30 3 1 3 4
M  V30 4 2 4 5
M  V30 5 1 5 6
M  V30 6 2 6 7
M  V30 7 1 7 8
M  V30 8 2 8 9
M  V30 9 1 9 10
M  V30 10 1 10 11
M  V30 11 2 11 12
M  V30 12 1 12 13
M  V30 13 2 13 14
M  V30 14 1 14 15
M  V30 15 1 15 16
M  V30 16 1 16 17
M  V30 17 1 17 18
M  V30 18 1 18 19
M  V30 19 2 15 20
M  V30 20 2 10 2
M  V30 21 1 20 11
M  V30 22 1 9 4
M  V30 23 1 1 21
M  V30 24 1 1 22
M  V30 25 1 1 23
M  V30 26 1 3 24
M  V30 27 1 5 25
M  V30 28 1 6 26
M  V30 29 1 7 27
M  V30 30 1 8 28
M  V30 31 1 12 29
M  V30 32 1 13 30
M  V30 33 1 16 31
M  V30 34 1 17 32
M  V30 35 1 17 33
M  V30 36 1 18 34
M  V30 37 1 18 35
M  V30 38 1 19 36
M  V30 END BOND
M  V30 END CTAB
M  END
>  <Dataset>  (777) 
ChEMBL_Kinases

>  <Ligand_Instance>  (777) 
nan

>  <PDB_ID>  (777) 
nan

>  <Standardized_SMILES>  (777) 
Cc1[nH]c2ccccc2c1-c1ccnc(NCCO)n1

>  <Name>  (777) 
nan

>  <Pocket>  (777) 
nan

>  <ATP_Site>  (777) 
nan

>  <Peripheral>  (777) 
nan

>  <Num_H_Atoms_ProtBoundConf>  (777) 
nan

>  <Num_Resolved_Atoms>  (777) 
nan

>  <Num_Not_Resolved_Atoms>  (777) 
nan

$$$$
CHEMBL1802493
     RDKit          3D

  0  0  0  0  0  0  0  0  0  0999 V3000
M  V30 BEGIN CTAB
M  V30 COUNTS 33 35 0 0 0
M  V30 BEGIN ATOM
M  V30 1 O -2.407296 -2.189995 2.264289 0
M  V30 2 C -1.192043 -2.809511 2.528354 0
M  V30 3 C -0.995356 -4.089561 1.732554 0
M  V30 4 N -1.038105 -3.839868 0.299789 0
M  V30 5 C 0.000661 -3.026875 -0.230916 0
M  V30 6 N 0.956836 -3.692740 -0.955750 0
M  V30 7 C 1.993822 -3.024493 -1.499873 0
M  V30 8 C 2.129008 -1.634235 -1.343661 0
M  V30 9 C 1.154331 -0.967378 -0.609531 0
M  V30 10 C 1.181578 0.471850 -0.400719 0
M  V30 11 C 2.203603 1.350536 -0.782372 0
M  V30 12 N 1.853516 2.619186 -0.440293 0
M  V30 13 C 0.640546 2.527054 0.139590 0
M  V30 14 C -0.131328 3.586702 0.642466 0
M  V30 15 C -1.393828 3.333735 1.209556 0
M  V30 16 C -1.778594 2.008623 1.221440 0
M  V30 17 C -1.043624 0.957682 0.738327 0
M  V30 18 C 0.181852 1.224213 0.190192 0
M  V30 19 N 0.192886 -1.730224 -0.128003 0
M  V30 20 H -2.506124 -1.492357 2.965862 0
M  V30 21 H -0.321936 -2.111540 2.434023 0
M  V30 22 H -1.202005 -3.084663 3.600533 0
M  V30 23 H -1.780239 -4.784176 2.021181 0
M  V30 24 H -0.006025 -4.486619 2.074800 0
M  V30 25 H -1.831407 -4.281479 -0.256377 0
M  V30 26 H 2.745845 -3.554086 -2.076504 0
M  V30 27 H 2.943495 -1.090534 -1.766645 0
M  V30 28 H 3.120356 1.062916 -1.265639 0
M  V30 29 H 2.393639 3.499354 -0.584588 0
M  V30 30 H 0.115899 4.638706 0.659852 0
M  V30 31 H -2.110298 4.010686 1.639669 0
M  V30 32 H -2.743952 1.691604 1.639662 0
M  V30 33 H -1.384733 -0.074586 0.773840 0
M  V30 END ATOM
M  V30 BEGIN BOND
M  V30 1 1 1 2
M  V30 2 1 2 3
M  V30 3 1 3 4
M  V30 4 1 4 5
M  V30 5 2 5 6
M  V30 6 1 6 7
M  V30 7 2 7 8
M  V30 8 1 8 9
M  V30 9 1 9 10
M  V30 10 2 10 11
M  V30 11 1 11 12
M  V30 12 1 12 13
M  V30 13 2 13 14
M  V30 14 1 14 15
M  V30 15 2 15 16
M  V30 16 1 16 17
M  V30 17 2 17 18
M  V30 18 2 9 19
M  V30 19 1 19 5
M  V30 20 1 18 10
M  V30 21 1 18 13
M  V30 22 1 1 20
M  V30 23 1 2 21
M  V30 24 1 2 22
M  V30 25 1 3 23
M  V30 26 1 3 24
M  V30 27 1 4 25
M  V30 28 1 7 26
M  V30 29 1 8 27
M  V30 30 1 11 28
M  V30 31 1 12 29
M  V30 32 1 14 30
M  V30 33 1 15 31
M  V30 34 1 16 32
M  V30 35 1 17 33
M  V30 END BOND
M  V30 END CTAB
M  END
>  <Dataset>  (778) 
ChEMBL_Kinases

>  <Ligand_Instance>  (778) 
nan

>  <PDB_ID>  (778) 
nan

>  <Standardized_SMILES>  (778) 
OCCNc1nccc(-c2c[nH]c3ccccc23)n1

>  <Name>  (778) 
nan

>  <Pocket>  (778) 
nan

>  <ATP_Site>  (778) 
nan

>  <Peripheral>  (778) 
nan

>  <Num_H_Atoms_ProtBoundConf>  (778) 
nan

>  <Num_Resolved_Atoms>  (778) 
nan

>  <Num_Not_Resolved_Atoms>  (778) 
nan

$$$$
CHEMBL1802630
     RDKit          3D

  0  0  0  0  0  0  0  0  0  0999 V3000
M  V30 BEGIN CTAB
M  V30 COUNTS 39 42 0 0 0
M  V30 BEGIN ATOM
M  V30 1 C -0.740446 -3.705012 0.424144 0
M  V30 2 C 0.444048 -3.010097 -0.116041 0
M  V30 3 N 1.658662 -3.576855 -0.229651 0
M  V30 4 C 2.555380 -2.718406 -0.752986 0
M  V30 5 C 3.902782 -2.777501 -1.075068 0
M  V30 6 C 4.502940 -1.642250 -1.618306 0
M  V30 7 C 3.784611 -0.482229 -1.834997 0
M  V30 8 C 2.435315 -0.407276 -1.517891 0
M  V30 9 C 1.869356 -1.546182 -0.982086 0
M  V30 10 C 0.555699 -1.708814 -0.592273 0
M  V30 11 C -0.606462 -0.823818 -0.601524 0
M  V30 12 C -1.440666 -0.773995 -1.695056 0
M  V30 13 C -2.514497 0.082225 -1.632194 0
M  V30 14 N -2.708810 0.820979 -0.536946 0
M  V30 15 C -1.917603 0.799480 0.548042 0
M  V30 16 N -2.214291 1.626346 1.661308 0
M  V30 17 C -1.504800 1.739475 2.880554 0
M  V30 18 C -0.365438 1.053441 3.227599 0
M  V30 19 C 0.318965 1.169718 4.417118 0
M  V30 20 C -0.176973 2.052968 5.351578 0
M  V30 21 Cl 0.649033 2.245210 6.883611 0
M  V30 22 C -1.315327 2.768383 5.060505 0
M  V30 23 C -1.952871 2.605996 3.852035 0
M  V30 24 N -0.882831 -0.044839 0.451736 0
M  V30 25 H -0.735458 -3.780670 1.530741 0
M  V30 26 H -1.697136 -3.290448 0.046343 0
M  V30 27 H -0.715824 -4.752928 0.035571 0
M  V30 28 H 1.945353 -4.543345 0.030126 0
M  V30 29 H 4.423160 -3.708389 -0.886934 0
M  V30 30 H 5.559342 -1.752352 -1.848881 0
M  V30 31 H 4.315812 0.373521 -2.264517 0
M  V30 32 H 1.872760 0.493284 -1.684869 0
M  V30 33 H -1.196354 -1.412417 -2.532940 0
M  V30 34 H -3.182243 0.139430 -2.475353 0
M  V30 35 H -3.073893 2.233490 1.565901 0
M  V30 36 H 0.058577 0.354288 2.532650 0
M  V30 37 H 1.211652 0.596092 4.621962 0
M  V30 38 H -1.686172 3.452967 5.804044 0
M  V30 39 H -2.848384 3.209727 3.699057 0
M  V30 END ATOM
M  V30 BEGIN BOND
M  V30 1 1 1 2
M  V30 2 1 2 3
M  V30 3 1 3 4
M  V30 4 2 4 5
M  V30 5 1 5 6
M  V30 6 2 6 7
M  V30 7 1 7 8
M  V30 8 2 8 9
M  V30 9 1 9 10
M  V30 10 1 10 11
M  V30 11 2 11 12
M  V30 12 1 12 13
M  V30 13 2 13 14
M  V30 14 1 14 15
M  V30 15 1 15 16
M  V30 16 1 16 17
M  V30 17 2 17 18
M  V30 18 1 18 19
M  V30 19 2 19 20
M  V30 20 1 20 21
M  V30 21 1 20 22
M  V30 22 2 22 23
M  V30 23 2 15 24
M  V30 24 2 10 2
M  V30 25 1 24 11
M  V30 26 1 9 4
M  V30 27 1 23 17
M  V30 28 1 1 25
M  V30 29 1 1 26
M  V30 30 1 1 27
M  V30 31 1 3 28
M  V30 32 1 5 29
M  V30 33 1 6 30
M  V30 34 1 7 31
M  V30 35 1 8 32
M  V30 36 1 12 33
M  V30 37 1 13 34
M  V30 38 1 16 35
M  V30 39 1 18 36
M  V30 40 1 19 37
M  V30 41 1 22 38
M  V30 42 1 23 39
M  V30 END BOND
M  V30 END CTAB
M  END
>  <Dataset>  (779) 
ChEMBL_Kinases

>  <Ligand_Instance>  (779) 
nan

>  <PDB_ID>  (779) 
nan

>  <Standardized_SMILES>  (779) 
Cc1[nH]c2ccccc2c1-c1ccnc(Nc2ccc(Cl)cc2)n1

>  <Name>  (779) 
nan

>  <Pocket>  (779) 
nan

>  <ATP_Site>  (779) 
nan

>  <Peripheral>  (779) 
nan

>  <Num_H_Atoms_ProtBoundConf>  (779) 
nan

>  <Num_Resolved_Atoms>  (779) 
nan

>  <Num_Not_Resolved_Atoms>  (779) 
nan

$$$$
CHEMBL1802611
     RDKit          3D

  0  0  0  0  0  0  0  0  0  0999 V3000
M  V30 BEGIN CTAB
M  V30 COUNTS 25 27 0 0 0
M  V30 BEGIN ATOM
M  V30 1 O -0.199635 -3.928508 4.724431 0
M  V30 2 C 0.378732 -3.629589 3.516728 0
M  V30 3 N 1.556763 -4.166922 3.151729 0
M  V30 4 N 2.150521 -3.907365 2.004177 0
M  V30 5 C 1.598807 -3.060979 1.097586 0
M  V30 6 C 0.371087 -2.468906 1.419696 0
M  V30 7 N -0.375350 -1.569662 0.613460 0
M  V30 8 C -0.240930 -0.202543 0.258654 0
M  V30 9 C -1.334255 0.450397 -0.265038 0
M  V30 10 C -1.196239 1.770658 -0.629291 0
M  V30 11 C -0.015475 2.520132 -0.510077 0
M  V30 12 C 0.267158 3.827105 -0.839748 0
M  V30 13 N 1.579375 3.921989 -0.492012 0
M  V30 14 N 2.006816 2.779680 -0.009157 0
M  V30 15 C 1.029282 1.802808 0.017465 0
M  V30 16 C 0.945538 0.487425 0.397068 0
M  V30 17 N -0.126175 -2.814333 2.606003 0
M  V30 18 H -1.134584 -3.606941 4.966168 0
M  V30 19 H 2.004955 -2.785054 0.133157 0
M  V30 20 H -1.188612 -2.125419 0.223801 0
M  V30 21 H -2.269182 -0.055998 -0.385498 0
M  V30 22 H -2.075214 2.251526 -1.047601 0
M  V30 23 H -0.471899 4.490156 -1.257073 0
M  V30 24 H 3.005130 2.589502 0.339057 0
M  V30 25 H 1.818833 0.026205 0.796280 0
M  V30 END ATOM
M  V30 BEGIN BOND
M  V30 1 1 1 2
M  V30 2 2 2 3
M  V30 3 1 3 4
M  V30 4 2 4 5
M  V30 5 1 5 6
M  V30 6 1 6 7
M  V30 7 1 7 8
M  V30 8 2 8 9
M  V30 9 1 9 10
M  V30 10 2 10 11
M  V30 11 1 11 12
M  V30 12 2 12 13
M  V30 13 1 13 14
M  V30 14 1 14 15
M  V30 15 2 15 16
M  V30 16 2 6 17
M  V30 17 1 17 2
M  V30 18 1 16 8
M  V30 19 1 15 11
M  V30 20 1 1 18
M  V30 21 1 5 19
M  V30 22 1 7 20
M  V30 23 1 9 21
M  V30 24 1 10 22
M  V30 25 1 12 23
M  V30 26 1 14 24
M  V30 27 1 16 25
M  V30 END BOND
M  V30 END CTAB
M  END
>  <Dataset>  (780) 
ChEMBL_Kinases

>  <Ligand_Instance>  (780) 
nan

>  <PDB_ID>  (780) 
nan

>  <Standardized_SMILES>  (780) 
Oc1nncc(Nc2ccc3cn[nH]c3c2)n1

>  <Name>  (780) 
nan

>  <Pocket>  (780) 
nan

>  <ATP_Site>  (780) 
nan

>  <Peripheral>  (780) 
nan

>  <Num_H_Atoms_ProtBoundConf>  (780) 
nan

>  <Num_Resolved_Atoms>  (780) 
nan

>  <Num_Not_Resolved_Atoms>  (780) 
nan

$$$$
CHEMBL1802613
     RDKit          3D

  0  0  0  0  0  0  0  0  0  0999 V3000
M  V30 BEGIN CTAB
M  V30 COUNTS 34 36 0 0 0
M  V30 BEGIN ATOM
M  V30 1 C -0.230199 -1.249342 4.761556 0
M  V30 2 S 1.384094 -1.976294 4.343920 0
M  V30 3 C 1.333524 -2.752671 2.746810 0
M  V30 4 C 1.015637 -4.048194 2.441713 0
M  V30 5 C 1.020805 -4.504113 1.143545 0
M  V30 6 C 1.351122 -3.645330 0.128795 0
M  V30 7 C 1.677820 -2.330245 0.397549 0
M  V30 8 N 2.018987 -1.461914 -0.700150 0
M  V30 9 C 0.698067 -0.967441 -1.008706 0
M  V30 10 C 0.414080 0.326927 -0.811052 0
M  V30 11 C 1.301123 1.356664 -0.301124 0
M  V30 12 O 2.515568 1.212004 0.051999 0
M  V30 13 N 0.592632 2.590859 -0.251898 0
M  V30 14 C -0.740276 2.355211 -0.726990 0
M  V30 15 C -1.833364 3.215568 -0.882831 0
M  V30 16 C -3.023586 2.702525 -1.374263 0
M  V30 17 C -3.188503 1.375808 -1.721024 0
M  V30 18 C -2.066421 0.593618 -1.538687 0
M  V30 19 C -0.845398 1.019732 -1.056782 0
M  V30 20 C 1.667563 -1.890062 1.704793 0
M  V30 21 H -0.097902 -0.186017 5.086074 0
M  V30 22 H -0.760062 -1.863600 5.509108 0
M  V30 23 H -0.843906 -1.260816 3.822917 0
M  V30 24 H 0.770375 -4.650947 3.290701 0
M  V30 25 H 0.758090 -5.530305 1.013911 0
M  V30 26 H 1.345929 -4.034224 -0.880704 0
M  V30 27 H 2.883919 -1.194482 -1.197040 0
M  V30 28 H -0.155781 -1.537651 -1.405931 0
M  V30 29 H 0.996736 3.500086 0.078083 0
M  V30 30 H -1.764262 4.269544 -0.626985 0
M  V30 31 H -3.881516 3.363278 -1.499873 0
M  V30 32 H -4.110398 0.960974 -2.105501 0
M  V30 33 H -2.143035 -0.459401 -1.796731 0
M  V30 34 H 1.936931 -0.843233 1.823042 0
M  V30 END ATOM
M  V30 BEGIN BOND
M  V30 1 1 1 2
M  V30 2 1 2 3
M  V30 3 2 3 4
M  V30 4 1 4 5
M  V30 5 2 5 6
M  V30 6 1 6 7
M  V30 7 1 7 8
M  V30 8 1 8 9
M  V30 9 2 9 10
M  V30 10 1 10 11
M  V30 11 2 11 12
M  V30 12 1 11 13
M  V30 13 1 13 14
M  V30 14 2 14 15
M  V30 15 1 15 16
M  V30 16 2 16 17
M  V30 17 1 17 18
M  V30 18 2 18 19
M  V30 19 2 7 20
M  V30 20 1 20 3
M  V30 21 1 19 10
M  V30 22 1 19 14
M  V30 23 1 1 21
M  V30 24 1 1 22
M  V30 25 1 1 23
M  V30 26 1 4 24
M  V30 27 1 5 25
M  V30 28 1 6 26
M  V30 29 1 8 27
M  V30 30 1 9 28
M  V30 31 1 13 29
M  V30 32 1 15 30
M  V30 33 1 16 31
M  V30 34 1 17 32
M  V30 35 1 18 33
M  V30 36 1 20 34
M  V30 END BOND
M  V30 END CTAB
M  END
>  <Dataset>  (781) 
ChEMBL_Kinases

>  <Ligand_Instance>  (781) 
nan

>  <PDB_ID>  (781) 
nan

>  <Standardized_SMILES>  (781) 
CSc1cccc(N/C=C2\C(=O)Nc3ccccc32)c1

>  <Name>  (781) 
nan

>  <Pocket>  (781) 
nan

>  <ATP_Site>  (781) 
nan

>  <Peripheral>  (781) 
nan

>  <Num_H_Atoms_ProtBoundConf>  (781) 
nan

>  <Num_Resolved_Atoms>  (781) 
nan

>  <Num_Not_Resolved_Atoms>  (781) 
nan

$$$$
CHEMBL1802614
     RDKit          3D

  0  0  0  0  0  0  0  0  0  0999 V3000
M  V30 BEGIN CTAB
M  V30 COUNTS 36 38 0 0 0
M  V30 BEGIN ATOM
M  V30 1 C 0.637498 -6.004899 1.669848 0
M  V30 2 O 1.985325 -5.633154 1.683532 0
M  V30 3 C 2.457768 -4.382966 1.284550 0
M  V30 4 C 3.805127 -4.135294 1.342925 0
M  V30 5 C 4.247573 -2.873733 0.936550 0
M  V30 6 C 3.391730 -1.883174 0.485595 0
M  V30 7 C 2.053895 -2.218653 0.459924 0
M  V30 8 C 1.535149 -3.438336 0.842835 0
M  V30 9 C 1.351023 -1.023796 -0.047916 0
M  V30 10 N 0.068463 -0.911155 -0.229041 0
M  V30 11 N -0.528909 0.268379 -0.719808 0
M  V30 12 C -1.273687 0.914641 0.302552 0
M  V30 13 O -1.259235 0.322699 1.431370 0
M  V30 14 C -2.029685 2.155470 0.180885 0
M  V30 15 C -2.064376 2.819195 -1.027841 0
M  V30 16 C -2.767975 4.011658 -1.215832 0
M  V30 17 Br -2.803511 4.912757 -2.892710 0
M  V30 18 C -3.454553 4.535362 -0.130437 0
M  V30 19 C -3.421124 3.874887 1.075762 0
M  V30 20 C -2.720417 2.680604 1.276299 0
M  V30 21 O -2.709750 2.042919 2.507720 0
M  V30 22 C 2.319951 0.016561 -0.316820 0
M  V30 23 O 2.063810 1.171541 -0.761317 0
M  V30 24 N 3.584970 -0.549696 0.025987 0
M  V30 25 H 0.547407 -6.934153 2.275181 0
M  V30 26 H 0.251847 -6.287887 0.661489 0
M  V30 27 H -0.022898 -5.223061 2.120633 0
M  V30 28 H 4.506644 -4.891140 1.692341 0
M  V30 29 H 5.330162 -2.696445 0.991271 0
M  V30 30 H 0.501107 -3.687117 0.819199 0
M  V30 31 H -0.530772 0.740759 -1.650528 0
M  V30 32 H -1.561350 2.481233 -1.913728 0
M  V30 33 H -3.999556 5.458155 -0.274286 0
M  V30 34 H -3.961183 4.279758 1.943565 0
M  V30 35 H -1.820527 2.015372 3.017221 0
M  V30 36 H 4.503726 -0.054163 -0.051987 0
M  V30 END ATOM
M  V30 BEGIN BOND
M  V30 1 1 1 2
M  V30 2 1 2 3
M  V30 3 2 3 4
M  V30 4 1 4 5
M  V30 5 2 5 6
M  V30 6 1 6 7
M  V30 7 2 7 8
M  V30 8 1 7 9
M  V30 9 2 9 10
M  V30 10 1 10 11
M  V30 11 1 11 12
M  V30 12 2 12 13
M  V30 13 1 12 14
M  V30 14 2 14 15
M  V30 15 1 15 16
M  V30 16 1 16 17
M  V30 17 2 16 18
M  V30 18 1 18 19
M  V30 19 2 19 20
M  V30 20 1 20 21
M  V30 21 1 9 22
M  V30 22 2 22 23
M  V30 23 1 22 24
M  V30 24 1 8 3
M  V30 25 1 20 14
M  V30 26 1 24 6
M  V30 27 1 1 25
M  V30 28 1 1 26
M  V30 29 1 1 27
M  V30 30 1 4 28
M  V30 31 1 5 29
M  V30 32 1 8 30
M  V30 33 1 11 31
M  V30 34 1 15 32
M  V30 35 1 18 33
M  V30 36 1 19 34
M  V30 37 1 21 35
M  V30 38 1 24 36
M  V30 END BOND
M  V30 END CTAB
M  END
>  <Dataset>  (782) 
ChEMBL_Kinases

>  <Ligand_Instance>  (782) 
nan

>  <PDB_ID>  (782) 
nan

>  <Standardized_SMILES>  (782) 
COc1ccc2c(c1)/C(=N/NC(=O)c1cc(Br)ccc1O)C(=O)N2

>  <Name>  (782) 
nan

>  <Pocket>  (782) 
nan

>  <ATP_Site>  (782) 
nan

>  <Peripheral>  (782) 
nan

>  <Num_H_Atoms_ProtBoundConf>  (782) 
nan

>  <Num_Resolved_Atoms>  (782) 
nan

>  <Num_Not_Resolved_Atoms>  (782) 
nan

$$$$
CHEMBL1802616
     RDKit          3D

  0  0  0  0  0  0  0  0  0  0999 V3000
M  V30 BEGIN CTAB
M  V30 COUNTS 42 44 0 0 0
M  V30 BEGIN ATOM
M  V30 1 C -0.502196 -4.838777 2.541719 0
M  V30 2 O 0.582587 -4.244221 1.947738 0
M  V30 3 C 1.016299 -5.002904 0.852118 0
M  V30 4 C 2.228024 -4.288017 0.235508 0
M  V30 5 C 1.738078 -2.927003 -0.186384 0
M  V30 6 N 2.771483 -2.097046 -0.785702 0
M  V30 7 C 2.166660 -0.844159 -1.171346 0
M  V30 8 N 2.114622 -0.410961 -2.446757 0
M  V30 9 C 1.533086 0.764519 -2.778457 0
M  V30 10 C 0.979354 1.537228 -1.780165 0
M  V30 11 C 1.024057 1.108153 -0.470569 0
M  V30 12 C 0.493446 1.765541 0.722595 0
M  V30 13 C 1.051448 2.638716 1.627675 0
M  V30 14 C 2.450092 3.113854 1.533903 0
M  V30 15 N 0.080785 2.903910 2.516002 0
M  V30 16 C -1.062152 2.244888 2.220335 0
M  V30 17 C -2.309264 2.208309 2.842882 0
M  V30 18 C -3.326671 1.416383 2.298647 0
M  V30 19 C -3.117190 0.671337 1.157129 0
M  V30 20 C -1.867990 0.725889 0.558605 0
M  V30 21 C -0.836845 1.503472 1.075590 0
M  V30 22 N 1.630017 -0.090367 -0.221411 0
M  V30 23 H -0.860310 -4.242306 3.424787 0
M  V30 24 H -0.273954 -5.889438 2.825362 0
M  V30 25 H -1.375238 -4.895666 1.831660 0
M  V30 26 H 0.182432 -5.047495 0.135014 0
M  V30 27 H 1.348562 -5.987262 1.193917 0
M  V30 28 H 3.003843 -4.174707 1.018646 0
M  V30 29 H 2.600413 -4.822236 -0.642001 0
M  V30 30 H 1.316916 -2.349847 0.663853 0
M  V30 31 H 0.933668 -3.059348 -0.943985 0
M  V30 32 H 3.783034 -2.363700 -0.915364 0
M  V30 33 H 1.484673 1.121926 -3.796564 0
M  V30 34 H 0.492087 2.486161 -1.916448 0
M  V30 35 H 3.083057 2.369829 2.063927 0
M  V30 36 H 2.798072 3.190279 0.483560 0
M  V30 37 H 2.591827 4.081462 2.097667 0
M  V30 38 H 0.256319 3.553848 3.320454 0
M  V30 39 H -2.484574 2.784729 3.736747 0
M  V30 40 H -4.294139 1.390255 2.786460 0
M  V30 41 H -3.880003 0.053737 0.715476 0
M  V30 42 H -1.679523 0.148488 -0.341111 0
M  V30 END ATOM
M  V30 BEGIN BOND
M  V30 1 1 1 2
M  V30 2 1 2 3
M  V30 3 1 3 4
M  V30 4 1 4 5
M  V30 5 1 5 6
M  V30 6 1 6 7
M  V30 7 2 7 8
M  V30 8 1 8 9
M  V30 9 2 9 10
M  V30 10 1 10 11
M  V30 11 1 11 12
M  V30 12 2 12 13
M  V30 13 1 13 14
M  V30 14 1 13 15
M  V30 15 1 15 16
M  V30 16 2 16 17
M  V30 17 1 17 18
M  V30 18 2 18 19
M  V30 19 1 19 20
M  V30 20 2 20 21
M  V30 21 2 11 22
M  V30 22 1 22 7
M  V30 23 1 21 12
M  V30 24 1 21 16
M  V30 25 1 1 23
M  V30 26 1 1 24
M  V30 27 1 1 25
M  V30 28 1 3 26
M  V30 29 1 3 27
M  V30 30 1 4 28
M  V30 31 1 4 29
M  V30 32 1 5 30
M  V30 33 1 5 31
M  V30 34 1 6 32
M  V30 35 1 9 33
M  V30 36 1 10 34
M  V30 37 1 14 35
M  V30 38 1 14 36
M  V30 39 1 14 37
M  V30 40 1 15 38
M  V30 41 1 17 39
M  V30 42 1 18 40
M  V30 43 1 19 41
M  V30 44 1 20 42
M  V30 END BOND
M  V30 END CTAB
M  END
>  <Dataset>  (783) 
ChEMBL_Kinases

>  <Ligand_Instance>  (783) 
nan

>  <PDB_ID>  (783) 
nan

>  <Standardized_SMILES>  (783) 
COCCCNc1nccc(-c2c(C)[nH]c3ccccc23)n1

>  <Name>  (783) 
nan

>  <Pocket>  (783) 
nan

>  <ATP_Site>  (783) 
nan

>  <Peripheral>  (783) 
nan

>  <Num_H_Atoms_ProtBoundConf>  (783) 
nan

>  <Num_Resolved_Atoms>  (783) 
nan

>  <Num_Not_Resolved_Atoms>  (783) 
nan

$$$$
CHEMBL1802618
     RDKit          3D

  0  0  0  0  0  0  0  0  0  0999 V3000
M  V30 BEGIN CTAB
M  V30 COUNTS 49 53 0 0 0
M  V30 BEGIN ATOM
M  V30 1 C -0.014889 0.362699 -2.068178 0
M  V30 2 C 1.476554 0.558195 -2.099584 0
M  V30 3 N 2.374266 0.623310 -3.116745 0
M  V30 4 C 3.598148 0.809292 -2.597143 0
M  V30 5 C 4.797226 0.933417 -3.272624 0
M  V30 6 C 5.977359 1.125740 -2.573478 0
M  V30 7 C 5.922769 1.189706 -1.178832 0
M  V30 8 C 4.707869 1.061176 -0.545262 0
M  V30 9 C 3.509897 0.868013 -1.217698 0
M  V30 10 C 2.170511 0.710005 -0.891962 0
M  V30 11 C 1.685776 0.729972 0.483039 0
M  V30 12 C 1.497454 2.035111 0.949013 0
M  V30 13 C 1.051887 2.189321 2.263080 0
M  V30 14 N 0.803330 1.126088 3.078351 0
M  V30 15 C 1.009867 -0.095007 2.549765 0
M  V30 16 N 0.827720 -1.356936 3.223420 0
M  V30 17 C -0.609334 -1.477658 3.332052 0
M  V30 18 C -1.217989 -1.377235 1.974588 0
M  V30 19 C -2.723578 -1.494612 2.041221 0
M  V30 20 C -3.680851 -0.501971 1.964010 0
M  V30 21 N -4.897716 -1.050148 2.082810 0
M  V30 22 C -4.793158 -2.376318 2.237146 0
M  V30 23 C -5.724718 -3.395678 2.398411 0
M  V30 24 C -5.345577 -4.694177 2.536018 0
M  V30 25 C -3.971448 -4.945810 2.506256 0
M  V30 26 C -2.983975 -3.969448 2.347556 0
M  V30 27 C -3.443834 -2.657851 2.212099 0
M  V30 28 N 1.440164 -0.330544 1.287041 0
M  V30 29 H -0.263540 -0.341186 -1.248224 0
M  V30 30 H -0.391201 -0.122129 -2.993528 0
M  V30 31 H -0.526706 1.340548 -1.997478 0
M  V30 32 H 2.053360 0.530679 -4.119883 0
M  V30 33 H 4.857150 0.885663 -4.370172 0
M  V30 34 H 6.957470 1.230796 -3.045945 0
M  V30 35 H 6.837018 1.335845 -0.649879 0
M  V30 36 H 4.631817 1.106792 0.533630 0
M  V30 37 H 1.658369 2.941870 0.404123 0
M  V30 38 H 0.890039 3.183225 2.666875 0
M  V30 39 H 1.570360 -2.032914 3.557646 0
M  V30 40 H -1.037992 -0.776811 4.070811 0
M  V30 41 H -0.786801 -2.508213 3.748321 0
M  V30 42 H -0.782689 -2.156133 1.330057 0
M  V30 43 H -0.956599 -0.395837 1.537618 0
M  V30 44 H -3.439166 0.563650 1.826930 0
M  V30 45 H -5.824335 -0.569275 2.066340 0
M  V30 46 H -6.783876 -3.191023 2.419555 0
M  V30 47 H -5.970284 -5.564923 2.665314 0
M  V30 48 H -3.597608 -5.945711 2.607407 0
M  V30 49 H -1.945612 -4.221016 2.331712 0
M  V30 END ATOM
M  V30 BEGIN BOND
M  V30 1 1 1 2
M  V30 2 1 2 3
M  V30 3 1 3 4
M  V30 4 2 4 5
M  V30 5 1 5 6
M  V30 6 2 6 7
M  V30 7 1 7 8
M  V30 8 2 8 9
M  V30 9 1 9 10
M  V30 10 1 10 11
M  V30 11 2 11 12
M  V30 12 1 12 13
M  V30 13 2 13 14
M  V30 14 1 14 15
M  V30 15 1 15 16
M  V30 16 1 16 17
M  V30 17 1 17 18
M  V30 18 1 18 19
M  V30 19 2 19 20
M  V30 20 1 20 21
M  V30 21 1 21 22
M  V30 22 2 22 23
M  V30 23 1 23 24
M  V30 24 2 24 25
M  V30 25 1 25 26
M  V30 26 2 26 27
M  V30 27 2 15 28
M  V30 28 2 10 2
M  V30 29 1 28 11
M  V30 30 1 9 4
M  V30 31 1 27 19
M  V30 32 1 27 22
M  V30 33 1 1 29
M  V30 34 1 1 30
M  V30 35 1 1 31
M  V30 36 1 3 32
M  V30 37 1 5 33
M  V30 38 1 6 34
M  V30 39 1 7 35
M  V30 40 1 8 36
M  V30 41 1 12 37
M  V30 42 1 13 38
M  V30 43 1 16 39
M  V30 44 1 17 40
M  V30 45 1 17 41
M  V30 46 1 18 42
M  V30 47 1 18 43
M  V30 48 1 20 44
M  V30 49 1 21 45
M  V30 50 1 23 46
M  V30 51 1 24 47
M  V30 52 1 25 48
M  V30 53 1 26 49
M  V30 END BOND
M  V30 END CTAB
M  END
>  <Dataset>  (784) 
ChEMBL_Kinases

>  <Ligand_Instance>  (784) 
nan

>  <PDB_ID>  (784) 
nan

>  <Standardized_SMILES>  (784) 
Cc1[nH]c2ccccc2c1-c1ccnc(NCCc2c[nH]c3ccccc23)n1

>  <Name>  (784) 
nan

>  <Pocket>  (784) 
nan

>  <ATP_Site>  (784) 
nan

>  <Peripheral>  (784) 
nan

>  <Num_H_Atoms_ProtBoundConf>  (784) 
nan

>  <Num_Resolved_Atoms>  (784) 
nan

>  <Num_Not_Resolved_Atoms>  (784) 
nan

$$$$
CHEMBL1802622
     RDKit          3D

  0  0  0  0  0  0  0  0  0  0999 V3000
M  V30 BEGIN CTAB
M  V30 COUNTS 39 41 0 0 0
M  V30 BEGIN ATOM
M  V30 1 C 0.568787 -6.772149 4.582185 0
M  V30 2 O 0.415542 -5.556740 3.865235 0
M  V30 3 C 0.973641 -5.307059 2.642716 0
M  V30 4 O 1.684977 -6.147134 2.034161 0
M  V30 5 C 0.746402 -4.016768 1.999300 0
M  V30 6 C 1.278672 -3.698226 0.767423 0
M  V30 7 C 1.042623 -2.473069 0.193067 0
M  V30 8 C 0.277946 -1.512977 0.799329 0
M  V30 9 C -0.020822 -0.261388 0.328822 0
M  V30 10 C 0.252298 0.554611 -0.815193 0
M  V30 11 C 0.865724 0.242280 -1.991384 0
M  V30 12 C 1.098741 1.048773 -3.077872 0
M  V30 13 N 0.641145 2.327169 -2.924662 0
M  V30 14 C 0.025718 2.693527 -1.782607 0
M  V30 15 N -0.440986 4.034827 -1.652423 0
M  V30 16 C -1.108352 4.452790 -0.428178 0
M  V30 17 C -0.231373 4.302798 0.777392 0
M  V30 18 O 0.914125 5.087837 0.617470 0
M  V30 19 N -0.152699 1.829064 -0.779423 0
M  V30 20 C -0.807968 0.220996 1.379988 0
M  V30 21 N -0.927668 -0.695797 2.343446 0
M  V30 22 C -0.258975 -1.815846 2.027953 0
M  V30 23 C -0.022316 -3.045375 2.604815 0
M  V30 24 H -0.295586 -7.418277 4.270258 0
M  V30 25 H 0.430324 -6.610131 5.677414 0
M  V30 26 H 1.543262 -7.261082 4.403572 0
M  V30 27 H 1.882525 -4.469847 0.299098 0
M  V30 28 H 1.510046 -2.337220 -0.752407 0
M  V30 29 H 1.223518 -0.754268 -2.145226 0
M  V30 30 H 1.597388 0.699375 -3.967404 0
M  V30 31 H -0.310539 4.723708 -2.424929 0
M  V30 32 H -1.446313 5.502733 -0.487083 0
M  V30 33 H -2.046916 3.854757 -0.279111 0
M  V30 34 H -0.040602 3.279774 1.103510 0
M  V30 35 H -0.792544 4.785980 1.626787 0
M  V30 36 H 1.749463 4.559419 0.559234 0
M  V30 37 H -1.322269 1.183814 1.540570 0
M  V30 38 H -1.453203 -0.633811 3.254961 0
M  V30 39 H -0.456772 -3.237872 3.555310 0
M  V30 END ATOM
M  V30 BEGIN BOND
M  V30 1 1 1 2
M  V30 2 1 2 3
M  V30 3 2 3 4
M  V30 4 1 3 5
M  V30 5 2 5 6
M  V30 6 1 6 7
M  V30 7 2 7 8
M  V30 8 1 8 9
M  V30 9 1 9 10
M  V30 10 2 10 11
M  V30 11 1 11 12
M  V30 12 2 12 13
M  V30 13 1 13 14
M  V30 14 1 14 15
M  V30 15 1 15 16
M  V30 16 1 16 17
M  V30 17 1 17 18
M  V30 18 2 14 19
M  V30 19 2 9 20
M  V30 20 1 20 21
M  V30 21 1 21 22
M  V30 22 2 22 23
M  V30 23 1 23 5
M  V30 24 1 22 8
M  V30 25 1 19 10
M  V30 26 1 1 24
M  V30 27 1 1 25
M  V30 28 1 1 26
M  V30 29 1 6 27
M  V30 30 1 7 28
M  V30 31 1 11 29
M  V30 32 1 12 30
M  V30 33 1 15 31
M  V30 34 1 16 32
M  V30 35 1 16 33
M  V30 36 1 17 34
M  V30 37 1 17 35
M  V30 38 1 18 36
M  V30 39 1 20 37
M  V30 40 1 21 38
M  V30 41 1 23 39
M  V30 END BOND
M  V30 END CTAB
M  END
>  <Dataset>  (785) 
ChEMBL_Kinases

>  <Ligand_Instance>  (785) 
nan

>  <PDB_ID>  (785) 
nan

>  <Standardized_SMILES>  (785) 
COC(=O)c1ccc2c(-c3ccnc(NCCO)n3)c[nH]c2c1

>  <Name>  (785) 
nan

>  <Pocket>  (785) 
nan

>  <ATP_Site>  (785) 
nan

>  <Peripheral>  (785) 
nan

>  <Num_H_Atoms_ProtBoundConf>  (785) 
nan

>  <Num_Resolved_Atoms>  (785) 
nan

>  <Num_Not_Resolved_Atoms>  (785) 
nan

$$$$
CHEMBL1802623
     RDKit          3D

  0  0  0  0  0  0  0  0  0  0999 V3000
M  V30 BEGIN CTAB
M  V30 COUNTS 46 49 0 0 0
M  V30 BEGIN ATOM
M  V30 1 C 3.422478 -5.434249 0.618976 0
M  V30 2 O 3.058769 -4.060962 0.564265 0
M  V30 3 C 1.940645 -3.666892 -0.151889 0
M  V30 4 C 1.073044 -4.451241 -0.863649 0
M  V30 5 C -0.004057 -3.889048 -1.527406 0
M  V30 6 C -0.244613 -2.525128 -1.498367 0
M  V30 7 N -1.206625 -1.754681 -2.052796 0
M  V30 8 C -0.984547 -0.459113 -1.713887 0
M  V30 9 C -1.837323 0.668841 -2.141662 0
M  V30 10 C 0.154308 -0.445968 -0.925097 0
M  V30 11 C 0.748475 0.752610 -0.342959 0
M  V30 12 C 1.701606 1.440380 -1.064867 0
M  V30 13 C 2.232423 2.565782 -0.471594 0
M  V30 14 N 1.848682 2.980827 0.746768 0
M  V30 15 C 0.906268 2.301163 1.461061 0
M  V30 16 N 0.524913 2.767099 2.746375 0
M  V30 17 C -0.475461 2.094584 3.565722 0
M  V30 18 C -0.063832 0.685232 3.855864 0
M  V30 19 C -1.317631 -0.161709 3.886276 0
M  V30 20 C -2.451489 0.797347 3.603722 0
M  V30 21 C -1.801139 1.972346 2.878759 0
M  V30 22 N 0.413059 1.225904 0.870149 0
M  V30 23 C 0.651549 -1.736597 -0.766270 0
M  V30 24 C 1.720961 -2.304612 -0.108663 0
M  V30 25 H 2.831621 -5.991867 1.354521 0
M  V30 26 H 3.240625 -5.920478 -0.378691 0
M  V30 27 H 4.518136 -5.558801 0.804862 0
M  V30 28 H 1.300610 -5.510109 -0.857974 0
M  V30 29 H -0.643018 -4.576175 -2.067286 0
M  V30 30 H -1.983976 -2.153150 -2.646976 0
M  V30 31 H -2.790714 0.716962 -1.586740 0
M  V30 32 H -2.015347 0.650964 -3.241548 0
M  V30 33 H -1.260519 1.611227 -1.957091 0
M  V30 34 H 2.028162 1.132727 -2.040629 0
M  V30 35 H 2.981628 3.116270 -1.025792 0
M  V30 36 H 0.969665 3.622364 3.131475 0
M  V30 37 H -0.642985 2.640682 4.515672 0
M  V30 38 H 0.591056 0.326343 3.063470 0
M  V30 39 H 0.489515 0.616613 4.823797 0
M  V30 40 H -1.282514 -1.009396 3.175023 0
M  V30 41 H -1.448991 -0.597263 4.917689 0
M  V30 42 H -3.219538 0.332850 2.931812 0
M  V30 43 H -2.962547 1.132852 4.522737 0
M  V30 44 H -2.452924 2.856549 3.053860 0
M  V30 45 H -1.696775 1.748985 1.815663 0
M  V30 46 H 2.326663 -1.596533 0.411219 0
M  V30 END ATOM
M  V30 BEGIN BOND
M  V30 1 1 1 2
M  V30 2 1 2 3
M  V30 3 2 3 4
M  V30 4 1 4 5
M  V30 5 2 5 6
M  V30 6 1 6 7
M  V30 7 1 7 8
M  V30 8 1 8 9
M  V30 9 2 8 10
M  V30 10 1 10 11
M  V30 11 2 11 12
M  V30 12 1 12 13
M  V30 13 2 13 14
M  V30 14 1 14 15
M  V30 15 1 15 16
M  V30 16 1 16 17
M  V30 17 1 17 18
M  V30 18 1 18 19
M  V30 19 1 19 20
M  V30 20 1 20 21
M  V30 21 2 15 22
M  V30 22 1 10 23
M  V30 23 2 23 24
M  V30 24 1 24 3
M  V30 25 1 23 6
M  V30 26 1 22 11
M  V30 27 1 21 17
M  V30 28 1 1 25
M  V30 29 1 1 26
M  V30 30 1 1 27
M  V30 31 1 4 28
M  V30 32 1 5 29
M  V30 33 1 7 30
M  V30 34 1 9 31
M  V30 35 1 9 32
M  V30 36 1 9 33
M  V30 37 1 12 34
M  V30 38 1 13 35
M  V30 39 1 16 36
M  V30 40 1 17 37
M  V30 41 1 18 38
M  V30 42 1 18 39
M  V30 43 1 19 40
M  V30 44 1 19 41
M  V30 45 1 20 42
M  V30 46 1 20 43
M  V30 47 1 21 44
M  V30 48 1 21 45
M  V30 49 1 24 46
M  V30 END BOND
M  V30 END CTAB
M  END
>  <Dataset>  (786) 
ChEMBL_Kinases

>  <Ligand_Instance>  (786) 
nan

>  <PDB_ID>  (786) 
nan

>  <Standardized_SMILES>  (786) 
COc1ccc2[nH]c(C)c(-c3ccnc(NC4CCCC4)n3)c2c1

>  <Name>  (786) 
nan

>  <Pocket>  (786) 
nan

>  <ATP_Site>  (786) 
nan

>  <Peripheral>  (786) 
nan

>  <Num_H_Atoms_ProtBoundConf>  (786) 
nan

>  <Num_Resolved_Atoms>  (786) 
nan

>  <Num_Not_Resolved_Atoms>  (786) 
nan

$$$$
CHEMBL1802629
     RDKit          3D

  0  0  0  0  0  0  0  0  0  0999 V3000
M  V30 BEGIN CTAB
M  V30 COUNTS 38 41 0 0 0
M  V30 BEGIN ATOM
M  V30 1 C -0.169707 -3.688771 -0.283870 0
M  V30 2 C 1.025060 -2.822263 -0.159541 0
M  V30 3 N 2.265224 -3.169951 0.230105 0
M  V30 4 C 3.061130 -2.080645 0.205949 0
M  V30 5 C 4.407847 -1.934742 0.519708 0
M  V30 6 C 4.931727 -0.669711 0.389308 0
M  V30 7 C 4.221819 0.437825 -0.023561 0
M  V30 8 C 2.893555 0.206004 -0.314651 0
M  V30 9 C 2.262751 -1.016981 -0.220367 0
M  V30 10 C 0.978903 -1.464529 -0.455024 0
M  V30 11 C -0.121759 -0.621534 -0.912464 0
M  V30 12 C -0.445164 -0.387879 -2.220253 0
M  V30 13 C -1.518238 0.436310 -2.473926 0
M  V30 14 N -2.198593 0.972995 -1.454022 0
M  V30 15 C -1.911155 0.766930 -0.157654 0
M  V30 16 N -2.687706 1.377779 0.858256 0
M  V30 17 C -2.532086 1.274755 2.261186 0
M  V30 18 C -1.577460 0.546737 2.931489 0
M  V30 19 C -1.450478 0.465468 4.300366 0
M  V30 20 C -2.357209 1.173945 5.058992 0
M  V30 21 N -3.300674 1.893915 4.434485 0
M  V30 22 C -3.392558 1.948523 3.099266 0
M  V30 23 N -0.861408 -0.039940 0.040298 0
M  V30 24 H -0.182967 -4.460426 0.523410 0
M  V30 25 H -1.116172 -3.105978 -0.116879 0
M  V30 26 H -0.165958 -4.226563 -1.257020 0
M  V30 27 H 2.600101 -4.118859 0.513961 0
M  V30 28 H 4.983555 -2.785285 0.844576 0
M  V30 29 H 5.986855 -0.540114 0.631944 0
M  V30 30 H 4.664529 1.421464 -0.115920 0
M  V30 31 H 2.315737 1.074383 -0.643797 0
M  V30 32 H 0.154280 -0.859150 -2.985213 0
M  V30 33 H -1.804039 0.644432 -3.495087 0
M  V30 34 H -3.481483 1.985605 0.523908 0
M  V30 35 H -0.856230 -0.016402 2.362307 0
M  V30 36 H -0.671322 -0.129860 4.755644 0
M  V30 37 H -2.280071 1.127480 6.127744 0
M  V30 38 H -4.195914 2.563900 2.758529 0
M  V30 END ATOM
M  V30 BEGIN BOND
M  V30 1 1 1 2
M  V30 2 1 2 3
M  V30 3 1 3 4
M  V30 4 2 4 5
M  V30 5 1 5 6
M  V30 6 2 6 7
M  V30 7 1 7 8
M  V30 8 2 8 9
M  V30 9 1 9 10
M  V30 10 1 10 11
M  V30 11 2 11 12
M  V30 12 1 12 13
M  V30 13 2 13 14
M  V30 14 1 14 15
M  V30 15 1 15 16
M  V30 16 1 16 17
M  V30 17 2 17 18
M  V30 18 1 18 19
M  V30 19 2 19 20
M  V30 20 1 20 21
M  V30 21 2 21 22
M  V30 22 2 15 23
M  V30 23 2 10 2
M  V30 24 1 23 11
M  V30 25 1 9 4
M  V30 26 1 22 17
M  V30 27 1 1 24
M  V30 28 1 1 25
M  V30 29 1 1 26
M  V30 30 1 3 27
M  V30 31 1 5 28
M  V30 32 1 6 29
M  V30 33 1 7 30
M  V30 34 1 8 31
M  V30 35 1 12 32
M  V30 36 1 13 33
M  V30 37 1 16 34
M  V30 38 1 18 35
M  V30 39 1 19 36
M  V30 40 1 20 37
M  V30 41 1 22 38
M  V30 END BOND
M  V30 END CTAB
M  END
>  <Dataset>  (787) 
ChEMBL_Kinases

>  <Ligand_Instance>  (787) 
nan

>  <PDB_ID>  (787) 
nan

>  <Standardized_SMILES>  (787) 
Cc1[nH]c2ccccc2c1-c1ccnc(Nc2cccnc2)n1

>  <Name>  (787) 
nan

>  <Pocket>  (787) 
nan

>  <ATP_Site>  (787) 
nan

>  <Peripheral>  (787) 
nan

>  <Num_H_Atoms_ProtBoundConf>  (787) 
nan

>  <Num_Resolved_Atoms>  (787) 
nan

>  <Num_Not_Resolved_Atoms>  (787) 
nan

$$$$
CHEMBL1802610
     RDKit          3D

  0  0  0  0  0  0  0  0  0  0999 V3000
M  V30 BEGIN CTAB
M  V30 COUNTS 28 30 0 0 0
M  V30 BEGIN ATOM
M  V30 1 C -3.083242 -2.913775 -1.152857 0
M  V30 2 C -2.029320 -2.646820 -1.895131 0
M  V30 3 N -1.727663 -2.837803 -3.260596 0
M  V30 4 N -0.509703 -2.449501 -3.812317 0
M  V30 5 C 0.402844 -1.850628 -2.906348 0
M  V30 6 O 1.512922 -1.487969 -3.368633 0
M  V30 7 N 0.132784 -1.643096 -1.527553 0
M  V30 8 C -1.020512 -2.014018 -1.017224 0
M  V30 9 N -1.131597 -1.743146 0.387185 0
M  V30 10 C -0.519932 -0.644031 1.098933 0
M  V30 11 C -1.381262 0.420246 1.275422 0
M  V30 12 C -0.987978 1.565447 1.934443 0
M  V30 13 C 0.309359 1.541358 2.384328 0
M  V30 14 C 1.041802 2.505088 3.080712 0
M  V30 15 N 2.277829 2.030136 3.303527 0
M  V30 16 N 2.395111 0.801255 2.788167 0
M  V30 17 C 1.204618 0.509571 2.234484 0
M  V30 18 C 0.782216 -0.641983 1.562007 0
M  V30 19 H -3.774102 -3.372165 -1.884031 0
M  V30 20 H -4.077235 -3.305101 -1.057564 0
M  V30 21 H -2.511505 -3.290265 -3.768627 0
M  V30 22 H -0.360040 -2.624111 -4.827542 0
M  V30 23 H -1.748202 -2.463531 0.876966 0
M  V30 24 H -2.419411 0.422559 0.905930 0
M  V30 25 H -1.614653 2.419815 2.099480 0
M  V30 26 H 0.633337 3.463290 3.370515 0
M  V30 27 H 3.244462 0.196012 2.815449 0
M  V30 28 H 1.376973 -1.499713 1.381107 0
M  V30 END ATOM
M  V30 BEGIN BOND
M  V30 1 2 1 2
M  V30 2 1 2 3
M  V30 3 1 3 4
M  V30 4 1 4 5
M  V30 5 2 5 6
M  V30 6 1 5 7
M  V30 7 2 7 8
M  V30 8 1 8 9
M  V30 9 1 9 10
M  V30 10 2 10 11
M  V30 11 1 11 12
M  V30 12 2 12 13
M  V30 13 1 13 14
M  V30 14 2 14 15
M  V30 15 1 15 16
M  V30 16 1 16 17
M  V30 17 2 17 18
M  V30 18 1 8 2
M  V30 19 1 18 10
M  V30 20 1 17 13
M  V30 21 1 1 19
M  V30 22 1 1 20
M  V30 23 1 3 21
M  V30 24 1 4 22
M  V30 25 1 9 23
M  V30 26 1 11 24
M  V30 27 1 12 25
M  V30 28 1 14 26
M  V30 29 1 16 27
M  V30 30 1 18 28
M  V30 END BOND
M  V30 END CTAB
M  END
>  <Dataset>  (788) 
ChEMBL_Kinases

>  <Ligand_Instance>  (788) 
nan

>  <PDB_ID>  (788) 
nan

>  <Standardized_SMILES>  (788) 
C=C1NNC(=O)N=C1Nc1ccc2cn[nH]c2c1

>  <Name>  (788) 
nan

>  <Pocket>  (788) 
nan

>  <ATP_Site>  (788) 
nan

>  <Peripheral>  (788) 
nan

>  <Num_H_Atoms_ProtBoundConf>  (788) 
nan

>  <Num_Resolved_Atoms>  (788) 
nan

>  <Num_Not_Resolved_Atoms>  (788) 
nan

$$$$
CHEMBL1807589
     RDKit          3D

  0  0  0  0  0  0  0  0  0  0999 V3000
M  V30 BEGIN CTAB
M  V30 COUNTS 56 60 0 0 0
M  V30 BEGIN ATOM
M  V30 1 C 1.211988 -1.807086 3.098867 0
M  V30 2 C 1.832501 -0.754115 2.254206 0
M  V30 3 C 3.106367 -0.403590 2.683059 0
M  V30 4 C 3.867902 0.549036 2.041292 0
M  V30 5 C 3.326872 1.169572 0.929133 0
M  V30 6 C 3.953845 2.208152 0.092561 0
M  V30 7 O 3.453382 2.765501 -0.910800 0
M  V30 8 N 5.266534 2.692984 0.377715 0
M  V30 9 C 5.950584 3.705606 -0.389522 0
M  V30 10 C 7.391471 3.635623 -0.665738 0
M  V30 11 C 6.822055 4.730357 0.254174 0
M  V30 12 C 2.067399 0.821235 0.507469 0
M  V30 13 C 1.284669 -0.141206 1.147230 0
M  V30 14 N -0.019731 -0.556165 0.766996 0
M  V30 15 C -1.148502 -0.412972 1.603023 0
M  V30 16 N -0.956847 0.168343 2.797685 0
M  V30 17 C -2.041216 0.315291 3.614140 0
M  V30 18 N -3.261329 -0.109916 3.230663 0
M  V30 19 N -3.388602 -0.676982 2.038308 0
M  V30 20 C -4.522387 -1.153644 1.500216 0
M  V30 21 C -4.262980 -1.676915 0.228741 0
M  V30 22 C -5.214901 -2.301335 -0.658762 0
M  V30 23 O -6.224607 -1.527668 -0.767207 0
M  V30 24 C -5.251226 -3.546364 -1.400882 0
M  V30 25 C -6.238193 -3.733253 -2.345667 0
M  V30 26 C -6.032872 -5.003792 -2.872822 0
M  V30 27 C -4.948791 -5.583093 -2.268038 0
M  V30 28 N -4.512877 -4.665646 -1.388615 0
M  V30 29 C -3.379000 -4.886566 -0.516659 0
M  V30 30 C -2.894738 -1.472077 0.059486 0
M  V30 31 C -2.090007 -1.827369 -1.118505 0
M  V30 32 C -2.377610 -0.859239 1.177593 0
M  V30 33 H 1.985289 -2.602661 3.314712 0
M  V30 34 H 0.985223 -1.356283 4.092872 0
M  V30 35 H 0.351004 -2.286189 2.608319 0
M  V30 36 H 3.612301 -0.839581 3.548686 0
M  V30 37 H 4.848960 0.877761 2.300673 0
M  V30 38 H 5.806772 2.306588 1.201161 0
M  V30 39 H 5.347207 4.086143 -1.242072 0
M  V30 40 H 7.796796 3.983579 -1.638540 0
M  V30 41 H 8.087175 2.956619 -0.156590 0
M  V30 42 H 7.029360 4.637508 1.339241 0
M  V30 43 H 6.832504 5.778433 -0.128184 0
M  V30 44 H 1.567239 1.258734 -0.356013 0
M  V30 45 H 0.197199 -0.921800 -0.178400 0
M  V30 46 H -1.900608 0.784581 4.585087 0
M  V30 47 H -5.521066 -1.168043 1.920476 0
M  V30 48 H -7.079495 -3.139327 -2.734915 0
M  V30 49 H -6.599728 -5.509041 -3.635976 0
M  V30 50 H -4.525947 -6.561765 -2.448399 0
M  V30 51 H -3.423319 -5.970922 -0.206554 0
M  V30 52 H -3.366205 -4.277530 0.387620 0
M  V30 53 H -2.431103 -4.694287 -1.070296 0
M  V30 54 H -1.310587 -2.591997 -0.933721 0
M  V30 55 H -1.672753 -0.928010 -1.660897 0
M  V30 56 H -2.761866 -2.291081 -1.884783 0
M  V30 END ATOM
M  V30 BEGIN BOND
M  V30 1 1 1 2
M  V30 2 2 2 3
M  V30 3 1 3 4
M  V30 4 2 4 5
M  V30 5 1 5 6
M  V30 6 2 6 7
M  V30 7 1 6 8
M  V30 8 1 8 9
M  V30 9 1 9 10
M  V30 10 1 10 11
M  V30 11 1 5 12
M  V30 12 2 12 13
M  V30 13 1 13 14
M  V30 14 1 14 15
M  V30 15 2 15 16
M  V30 16 1 16 17
M  V30 17 2 17 18
M  V30 18 1 18 19
M  V30 19 1 19 20
M  V30 20 2 20 21
M  V30 21 1 21 22
M  V30 22 2 22 23
M  V30 23 1 22 24
M  V30 24 2 24 25
M  V30 25 1 25 26
M  V30 26 2 26 27
M  V30 27 1 27 28
M  V30 28 1 28 29
M  V30 29 1 21 30
M  V30 30 1 30 31
M  V30 31 2 30 32
M  V30 32 1 13 2
M  V30 33 1 32 15
M  V30 34 1 11 9
M  V30 35 1 32 19
M  V30 36 1 28 24
M  V30 37 1 1 33
M  V30 38 1 1 34
M  V30 39 1 1 35
M  V30 40 1 3 36
M  V30 41 1 4 37
M  V30 42 1 8 38
M  V30 43 1 9 39
M  V30 44 1 10 40
M  V30 45 1 10 41
M  V30 46 1 11 42
M  V30 47 1 11 43
M  V30 48 1 12 44
M  V30 49 1 14 45
M  V30 50 1 17 46
M  V30 51 1 20 47
M  V30 52 1 25 48
M  V30 53 1 26 49
M  V30 54 1 27 50
M  V30 55 1 29 51
M  V30 56 1 29 52
M  V30 57 1 29 53
M  V30 58 1 31 54
M  V30 59 1 31 55
M  V30 60 1 31 56
M  V30 END BOND
M  V30 END CTAB
M  END
>  <Dataset>  (789) 
ChEMBL_Kinases

>  <Ligand_Instance>  (789) 
nan

>  <PDB_ID>  (789) 
nan

>  <Standardized_SMILES>  (789) 
Cc1ccc(C(=O)NC2CC2)cc1Nc1ncnn2cc(C(=O)c3cccn3C)c(C)c12

>  <Name>  (789) 
nan

>  <Pocket>  (789) 
nan

>  <ATP_Site>  (789) 
nan

>  <Peripheral>  (789) 
nan

>  <Num_H_Atoms_ProtBoundConf>  (789) 
nan

>  <Num_Resolved_Atoms>  (789) 
nan

>  <Num_Not_Resolved_Atoms>  (789) 
nan

$$$$
CHEMBL1807588
     RDKit          3D

  0  0  0  0  0  0  0  0  0  0999 V3000
M  V30 BEGIN CTAB
M  V30 COUNTS 53 57 0 0 0
M  V30 BEGIN ATOM
M  V30 1 C -0.832098 4.225402 0.193687 0
M  V30 2 C -0.047512 3.029519 0.545745 0
M  V30 3 C 1.237195 2.902397 0.030056 0
M  V30 4 C 2.034040 1.813350 0.306480 0
M  V30 5 C 1.569360 0.791914 1.123301 0
M  V30 6 C 2.409609 -0.381107 1.388932 0
M  V30 7 O 2.028127 -1.238386 2.202478 0
M  V30 8 N 3.651108 -0.542033 0.719836 0
M  V30 9 C 4.527568 -1.674706 0.932848 0
M  V30 10 C 4.814745 -2.402060 -0.411669 0
M  V30 11 C 5.872788 -1.747930 0.377082 0
M  V30 12 C 0.294730 0.876335 1.660373 0
M  V30 13 C -0.455215 1.983744 1.350888 0
M  V30 14 N -1.804973 2.107711 1.831561 0
M  V30 15 C -2.251304 1.009342 2.609416 0
M  V30 16 N -2.335390 1.083672 3.932248 0
M  V30 17 C -2.713721 0.000839 4.630319 0
M  V30 18 N -3.001653 -1.144200 3.976710 0
M  V30 19 N -2.906408 -1.183898 2.649530 0
M  V30 20 C -3.140059 -2.239069 1.864685 0
M  V30 21 C -2.930904 -1.922391 0.539852 0
M  V30 22 C -2.998904 -2.584112 -0.782225 0
M  V30 23 O -3.661945 -2.029432 -1.711931 0
M  V30 24 C -2.225246 -3.847621 -0.789211 0
M  V30 25 C -1.687889 -4.851253 -0.030477 0
M  V30 26 C -1.026760 -5.749776 -0.820962 0
M  V30 27 N -1.136925 -5.328124 -2.081299 0
M  V30 28 C -1.850626 -4.189482 -2.105176 0
M  V30 29 C -2.544757 -0.574484 0.540121 0
M  V30 30 C -2.203597 0.331771 -0.583618 0
M  V30 31 C -2.533762 -0.139115 1.855993 0
M  V30 32 H -0.506355 4.593973 -0.803541 0
M  V30 33 H -1.932024 4.016133 0.123028 0
M  V30 34 H -0.643976 5.008380 0.944168 0
M  V30 35 H 1.600860 3.700108 -0.605546 0
M  V30 36 H 3.010215 1.828429 -0.148804 0
M  V30 37 H 4.035596 0.134260 0.024177 0
M  V30 38 H 4.184426 -2.354281 1.747002 0
M  V30 39 H 4.640297 -3.496880 -0.418395 0
M  V30 40 H 4.516544 -1.905500 -1.347730 0
M  V30 41 H 6.578323 -2.483467 0.863964 0
M  V30 42 H 6.408115 -0.869123 -0.026144 0
M  V30 43 H -0.100639 0.112442 2.289985 0
M  V30 44 H -2.482707 2.873895 1.691169 0
M  V30 45 H -2.810464 -0.027167 5.711766 0
M  V30 46 H -3.456940 -3.251472 2.078177 0
M  V30 47 H -1.911377 -4.701291 1.032960 0
M  V30 48 H -0.551162 -6.586393 -0.356007 0
M  V30 49 H -0.673214 -5.910229 -2.823232 0
M  V30 50 H -1.985747 -3.784454 -3.109567 0
M  V30 51 H -1.150873 0.286112 -0.831673 0
M  V30 52 H -2.755373 0.047743 -1.529348 0
M  V30 53 H -2.577081 1.367983 -0.384381 0
M  V30 END ATOM
M  V30 BEGIN BOND
M  V30 1 1 1 2
M  V30 2 2 2 3
M  V30 3 1 3 4
M  V30 4 2 4 5
M  V30 5 1 5 6
M  V30 6 2 6 7
M  V30 7 1 6 8
M  V30 8 1 8 9
M  V30 9 1 9 10
M  V30 10 1 10 11
M  V30 11 1 5 12
M  V30 12 2 12 13
M  V30 13 1 13 14
M  V30 14 1 14 15
M  V30 15 2 15 16
M  V30 16 1 16 17
M  V30 17 2 17 18
M  V30 18 1 18 19
M  V30 19 1 19 20
M  V30 20 2 20 21
M  V30 21 1 21 22
M  V30 22 2 22 23
M  V30 23 1 22 24
M  V30 24 1 24 25
M  V30 25 2 25 26
M  V30 26 1 26 27
M  V30 27 1 27 28
M  V30 28 1 21 29
M  V30 29 1 29 30
M  V30 30 2 29 31
M  V30 31 1 13 2
M  V30 32 1 31 15
M  V30 33 1 11 9
M  V30 34 1 31 19
M  V30 35 2 28 24
M  V30 36 1 1 32
M  V30 37 1 1 33
M  V30 38 1 1 34
M  V30 39 1 3 35
M  V30 40 1 4 36
M  V30 41 1 8 37
M  V30 42 1 9 38
M  V30 43 1 10 39
M  V30 44 1 10 40
M  V30 45 1 11 41
M  V30 46 1 11 42
M  V30 47 1 12 43
M  V30 48 1 14 44
M  V30 49 1 17 45
M  V30 50 1 20 46
M  V30 51 1 25 47
M  V30 52 1 26 48
M  V30 53 1 27 49
M  V30 54 1 28 50
M  V30 55 1 30 51
M  V30 56 1 30 52
M  V30 57 1 30 53
M  V30 END BOND
M  V30 END CTAB
M  END
>  <Dataset>  (790) 
ChEMBL_Kinases

>  <Ligand_Instance>  (790) 
nan

>  <PDB_ID>  (790) 
nan

>  <Standardized_SMILES>  (790) 
Cc1ccc(C(=O)NC2CC2)cc1Nc1ncnn2cc(C(=O)c3cc[nH]c3)c(C)c12

>  <Name>  (790) 
nan

>  <Pocket>  (790) 
nan

>  <ATP_Site>  (790) 
nan

>  <Peripheral>  (790) 
nan

>  <Num_H_Atoms_ProtBoundConf>  (790) 
nan

>  <Num_Resolved_Atoms>  (790) 
nan

>  <Num_Not_Resolved_Atoms>  (790) 
nan

$$$$
CHEMBL1807587
     RDKit          3D

  0  0  0  0  0  0  0  0  0  0999 V3000
M  V30 BEGIN CTAB
M  V30 COUNTS 53 57 0 0 0
M  V30 BEGIN ATOM
M  V30 1 C -0.933759 4.294419 0.110896 0
M  V30 2 C -0.082705 3.142020 0.379509 0
M  V30 3 C 1.155448 3.062031 -0.203948 0
M  V30 4 C 2.023022 2.009712 -0.005434 0
M  V30 5 C 1.660843 0.943904 0.829878 0
M  V30 6 C 2.489878 -0.222627 1.098907 0
M  V30 7 O 2.082318 -1.107698 1.929430 0
M  V30 8 N 3.736007 -0.490662 0.520730 0
M  V30 9 C 4.584750 -1.625361 0.755627 0
M  V30 10 C 4.993848 -2.351683 -0.565786 0
M  V30 11 C 5.979634 -1.662988 0.305726 0
M  V30 12 C 0.411808 1.047990 1.404295 0
M  V30 13 C -0.460871 2.089530 1.214452 0
M  V30 14 N -1.761955 2.123943 1.832993 0
M  V30 15 C -2.025754 0.975848 2.663945 0
M  V30 16 N -1.909037 1.090700 3.999482 0
M  V30 17 C -2.145381 -0.029283 4.732334 0
M  V30 18 N -2.480568 -1.193784 4.131537 0
M  V30 19 N -2.578714 -1.236898 2.803079 0
M  V30 20 C -2.887696 -2.283679 2.020965 0
M  V30 21 C -2.872073 -1.903423 0.695322 0
M  V30 22 C -3.123445 -2.618822 -0.567927 0
M  V30 23 O -3.829531 -2.220192 -1.506243 0
M  V30 24 C -2.465886 -3.931676 -0.722159 0
M  V30 25 C -2.613605 -4.698388 -1.875432 0
M  V30 26 C -1.862198 -5.861903 -1.688574 0
M  V30 27 C -1.282419 -5.778969 -0.443432 0
M  V30 28 N -1.667308 -4.612460 0.100718 0
M  V30 29 C -2.536153 -0.552788 0.678103 0
M  V30 30 C -2.389348 0.332018 -0.502634 0
M  V30 31 C -2.366089 -0.192298 2.001493 0
M  V30 32 H -1.470089 4.092235 -0.851135 0
M  V30 33 H -1.602485 4.609132 0.905484 0
M  V30 34 H -0.258526 5.177453 -0.075873 0
M  V30 35 H 1.477632 3.870109 -0.863857 0
M  V30 36 H 2.998105 1.953406 -0.468887 0
M  V30 37 H 4.125541 0.203323 -0.172320 0
M  V30 38 H 4.196687 -2.346943 1.517750 0
M  V30 39 H 4.933559 -3.459741 -0.566461 0
M  V30 40 H 4.729258 -1.880693 -1.510877 0
M  V30 41 H 6.668129 -2.346313 0.871599 0
M  V30 42 H 6.492193 -0.755783 -0.028404 0
M  V30 43 H 0.121246 0.233642 2.050438 0
M  V30 44 H -2.401027 2.901564 1.672540 0
M  V30 45 H -2.093638 -0.100198 5.815432 0
M  V30 46 H -3.123349 -3.289506 2.311508 0
M  V30 47 H -3.172645 -4.518238 -2.786896 0
M  V30 48 H -1.712348 -6.717650 -2.354398 0
M  V30 49 H -0.628225 -6.516275 0.026970 0
M  V30 50 H -1.373338 -4.297202 1.033240 0
M  V30 51 H -1.354728 0.330788 -0.899804 0
M  V30 52 H -3.018286 -0.045896 -1.363694 0
M  V30 53 H -2.790660 1.352273 -0.322607 0
M  V30 END ATOM
M  V30 BEGIN BOND
M  V30 1 1 1 2
M  V30 2 2 2 3
M  V30 3 1 3 4
M  V30 4 2 4 5
M  V30 5 1 5 6
M  V30 6 2 6 7
M  V30 7 1 6 8
M  V30 8 1 8 9
M  V30 9 1 9 10
M  V30 10 1 10 11
M  V30 11 1 5 12
M  V30 12 2 12 13
M  V30 13 1 13 14
M  V30 14 1 14 15
M  V30 15 2 15 16
M  V30 16 1 16 17
M  V30 17 2 17 18
M  V30 18 1 18 19
M  V30 19 1 19 20
M  V30 20 2 20 21
M  V30 21 1 21 22
M  V30 22 2 22 23
M  V30 23 1 22 24
M  V30 24 2 24 25
M  V30 25 1 25 26
M  V30 26 2 26 27
M  V30 27 1 27 28
M  V30 28 1 21 29
M  V30 29 1 29 30
M  V30 30 2 29 31
M  V30 31 1 13 2
M  V30 32 1 31 15
M  V30 33 1 11 9
M  V30 34 1 31 19
M  V30 35 1 28 24
M  V30 36 1 1 32
M  V30 37 1 1 33
M  V30 38 1 1 34
M  V30 39 1 3 35
M  V30 40 1 4 36
M  V30 41 1 8 37
M  V30 42 1 9 38
M  V30 43 1 10 39
M  V30 44 1 10 40
M  V30 45 1 11 41
M  V30 46 1 11 42
M  V30 47 1 12 43
M  V30 48 1 14 44
M  V30 49 1 17 45
M  V30 50 1 20 46
M  V30 51 1 25 47
M  V30 52 1 26 48
M  V30 53 1 27 49
M  V30 54 1 28 50
M  V30 55 1 30 51
M  V30 56 1 30 52
M  V30 57 1 30 53
M  V30 END BOND
M  V30 END CTAB
M  END
>  <Dataset>  (791) 
ChEMBL_Kinases

>  <Ligand_Instance>  (791) 
nan

>  <PDB_ID>  (791) 
nan

>  <Standardized_SMILES>  (791) 
Cc1ccc(C(=O)NC2CC2)cc1Nc1ncnn2cc(C(=O)c3ccc[nH]3)c(C)c12

>  <Name>  (791) 
nan

>  <Pocket>  (791) 
nan

>  <ATP_Site>  (791) 
nan

>  <Peripheral>  (791) 
nan

>  <Num_H_Atoms_ProtBoundConf>  (791) 
nan

>  <Num_Resolved_Atoms>  (791) 
nan

>  <Num_Not_Resolved_Atoms>  (791) 
nan

$$$$
CHEMBL1807586
     RDKit          3D

  0  0  0  0  0  0  0  0  0  0999 V3000
M  V30 BEGIN CTAB
M  V30 COUNTS 59 64 0 0 0
M  V30 BEGIN ATOM
M  V30 1 C 2.303370 -0.462714 4.888784 0
M  V30 2 C 2.424687 -0.027914 3.495541 0
M  V30 3 C 3.655934 -0.195937 2.856764 0
M  V30 4 C 3.811797 0.207110 1.527046 0
M  V30 5 C 2.766441 0.772818 0.824068 0
M  V30 6 C 3.041705 1.152031 -0.550351 0
M  V30 7 O 4.191975 0.949643 -1.017926 0
M  V30 8 N 2.125633 1.743482 -1.448382 0
M  V30 9 C 2.497845 2.091365 -2.820664 0
M  V30 10 C 1.452133 2.029884 -3.853069 0
M  V30 11 C 1.971857 3.347663 -3.416001 0
M  V30 12 C 1.546776 0.951487 1.420706 0
M  V30 13 C 1.434658 0.542510 2.727628 0
M  V30 14 N 0.189824 0.706220 3.391979 0
M  V30 15 C -1.069034 1.236986 3.003464 0
M  V30 16 N -1.398078 2.526688 3.193954 0
M  V30 17 C -2.583663 3.050718 2.833864 0
M  V30 18 N -3.465146 2.214943 2.255085 0
M  V30 19 N -3.205223 0.936229 2.038509 0
M  V30 20 C -3.990185 -0.002873 1.471981 0
M  V30 21 C -3.258018 -1.177046 1.477068 0
M  V30 22 C -3.784217 -2.422604 0.934261 0
M  V30 23 O -4.948596 -2.735303 1.249970 0
M  V30 24 C -3.057840 -3.328046 0.053591 0
M  V30 25 C -3.679067 -4.464851 -0.363254 0
M  V30 26 N -3.098527 -5.374614 -1.184535 0
M  V30 27 C -1.833774 -5.170060 -1.631222 0
M  V30 28 C -1.123465 -6.005500 -2.465717 0
M  V30 29 C 0.165303 -5.685050 -2.852215 0
M  V30 30 C 0.784917 -4.514984 -2.414199 0
M  V30 31 C 0.095367 -3.661009 -1.577709 0
M  V30 32 C -1.199500 -4.021797 -1.213199 0
M  V30 33 N -1.810789 -3.150756 -0.401788 0
M  V30 34 C -2.029072 -0.930354 2.051950 0
M  V30 35 C -0.934827 -1.908723 2.259635 0
M  V30 36 C -2.002223 0.403013 2.403466 0
M  V30 37 H 1.979289 -1.524509 4.959526 0
M  V30 38 H 1.648601 0.158644 5.506117 0
M  V30 39 H 3.320654 -0.402533 5.376102 0
M  V30 40 H 4.478853 -0.644463 3.419530 0
M  V30 41 H 4.813320 0.030673 1.124462 0
M  V30 42 H 1.151495 1.926703 -1.086765 0
M  V30 43 H 3.540491 1.847233 -3.071433 0
M  V30 44 H 1.691868 1.667463 -4.880163 0
M  V30 45 H 0.439698 1.681903 -3.543886 0
M  V30 46 H 1.375725 4.066253 -2.823214 0
M  V30 47 H 2.611493 3.874044 -4.172077 0
M  V30 48 H 0.739083 1.389979 0.873817 0
M  V30 49 H -0.025633 0.436149 4.375370 0
M  V30 50 H -2.853746 4.088910 2.984995 0
M  V30 51 H -4.993034 0.147488 1.092867 0
M  V30 52 H -4.691422 -4.737191 -0.072421 0
M  V30 53 H -1.621210 -6.900817 -2.790275 0
M  V30 54 H 0.712445 -6.342232 -3.503082 0
M  V30 55 H 1.792107 -4.240546 -2.701392 0
M  V30 56 H 0.562090 -2.757060 -1.233724 0
M  V30 57 H -0.188322 -1.851566 1.467503 0
M  V30 58 H -0.440108 -1.617291 3.210598 0
M  V30 59 H -1.363847 -2.934826 2.348013 0
M  V30 END ATOM
M  V30 BEGIN BOND
M  V30 1 1 1 2
M  V30 2 2 2 3
M  V30 3 1 3 4
M  V30 4 2 4 5
M  V30 5 1 5 6
M  V30 6 2 6 7
M  V30 7 1 6 8
M  V30 8 1 8 9
M  V30 9 1 9 10
M  V30 10 1 10 11
M  V30 11 1 5 12
M  V30 12 2 12 13
M  V30 13 1 13 14
M  V30 14 1 14 15
M  V30 15 2 15 16
M  V30 16 1 16 17
M  V30 17 2 17 18
M  V30 18 1 18 19
M  V30 19 1 19 20
M  V30 20 2 20 21
M  V30 21 1 21 22
M  V30 22 2 22 23
M  V30 23 1 22 24
M  V30 24 2 24 25
M  V30 25 1 25 26
M  V30 26 2 26 27
M  V30 27 1 27 28
M  V30 28 2 28 29
M  V30 29 1 29 30
M  V30 30 2 30 31
M  V30 31 1 31 32
M  V30 32 2 32 33
M  V30 33 1 21 34
M  V30 34 1 34 35
M  V30 35 2 34 36
M  V30 36 1 13 2
M  V30 37 1 36 15
M  V30 38 1 11 9
M  V30 39 1 36 19
M  V30 40 1 33 24
M  V30 41 1 32 27
M  V30 42 1 1 37
M  V30 43 1 1 38
M  V30 44 1 1 39
M  V30 45 1 3 40
M  V30 46 1 4 41
M  V30 47 1 8 42
M  V30 48 1 9 43
M  V30 49 1 10 44
M  V30 50 1 10 45
M  V30 51 1 11 46
M  V30 52 1 11 47
M  V30 53 1 12 48
M  V30 54 1 14 49
M  V30 55 1 17 50
M  V30 56 1 20 51
M  V30 57 1 25 52
M  V30 58 1 28 53
M  V30 59 1 29 54
M  V30 60 1 30 55
M  V30 61 1 31 56
M  V30 62 1 35 57
M  V30 63 1 35 58
M  V30 64 1 35 59
M  V30 END BOND
M  V30 END CTAB
M  END
>  <Dataset>  (792) 
ChEMBL_Kinases

>  <Ligand_Instance>  (792) 
nan

>  <PDB_ID>  (792) 
nan

>  <Standardized_SMILES>  (792) 
Cc1ccc(C(=O)NC2CC2)cc1Nc1ncnn2cc(C(=O)c3cnc4ccccc4n3)c(C)c12

>  <Name>  (792) 
nan

>  <Pocket>  (792) 
nan

>  <ATP_Site>  (792) 
nan

>  <Peripheral>  (792) 
nan

>  <Num_H_Atoms_ProtBoundConf>  (792) 
nan

>  <Num_Resolved_Atoms>  (792) 
nan

>  <Num_Not_Resolved_Atoms>  (792) 
nan

$$$$
CHEMBL1807465
     RDKit          3D

  0  0  0  0  0  0  0  0  0  0999 V3000
M  V30 BEGIN CTAB
M  V30 COUNTS 54 58 0 0 0
M  V30 BEGIN ATOM
M  V30 1 C -0.271519 -3.248034 -2.601783 0
M  V30 2 C -0.872080 -3.172882 -1.244421 0
M  V30 3 C -1.332700 -4.400368 -0.751446 0
M  V30 4 C -1.916836 -4.517069 0.509106 0
M  V30 5 C -2.036537 -3.383112 1.278339 0
M  V30 6 C -2.637111 -3.487440 2.582888 0
M  V30 7 O -3.027103 -4.618373 2.956730 0
M  V30 8 N -2.819049 -2.397434 3.477470 0
M  V30 9 C -3.427057 -2.499345 4.800225 0
M  V30 10 C -2.969681 -1.499411 5.818951 0
M  V30 11 C -4.276883 -1.272334 5.153248 0
M  V30 12 C -1.580673 -2.180247 0.784601 0
M  V30 13 C -0.994957 -2.021880 -0.461513 0
M  V30 14 N -0.504252 -0.808269 -1.015992 0
M  V30 15 C -1.066600 -0.294299 -2.212002 0
M  V30 16 N -2.073892 -1.013377 -2.723607 0
M  V30 17 C -2.633840 -0.546172 -3.870939 0
M  V30 18 N -2.210441 0.572715 -4.468642 0
M  V30 19 N -1.216505 1.265000 -3.946563 0
M  V30 20 C -0.654528 2.402636 -4.394522 0
M  V30 21 C 0.349764 2.735117 -3.501635 0
M  V30 22 C 1.231887 3.910217 -3.600559 0
M  V30 23 O 0.581082 4.969567 -3.882315 0
M  V30 24 C 2.658414 4.026716 -3.432015 0
M  V30 25 C 3.129803 5.266831 -3.058027 0
M  V30 26 C 4.509424 5.405699 -2.888726 0
M  V30 27 C 5.425915 4.377940 -3.073087 0
M  V30 28 N 4.908235 3.188209 -3.438125 0
M  V30 29 C 3.585787 3.013246 -3.611559 0
M  V30 30 C 0.370944 1.756492 -2.501356 0
M  V30 31 C 1.275831 1.693064 -1.333021 0
M  V30 32 C -0.619248 0.857677 -2.813309 0
M  V30 33 H 0.484496 -4.088146 -2.559548 0
M  V30 34 H -0.985283 -3.484700 -3.399115 0
M  V30 35 H 0.369680 -2.349306 -2.810766 0
M  V30 36 H -1.251908 -5.326349 -1.340871 0
M  V30 37 H -2.252488 -5.489596 0.833750 0
M  V30 38 H -2.497842 -1.451977 3.176080 0
M  V30 39 H -3.777536 -3.469888 5.162182 0
M  V30 40 H -3.054964 -1.746660 6.901649 0
M  V30 41 H -2.076947 -0.910238 5.544270 0
M  V30 42 H -5.211177 -1.437283 5.698090 0
M  V30 43 H -4.318878 -0.424002 4.445912 0
M  V30 44 H -1.648056 -1.258585 1.342050 0
M  V30 45 H 0.225467 -0.598187 -0.309786 0
M  V30 46 H -3.463818 -1.123422 -4.307314 0
M  V30 47 H -0.908534 2.975575 -5.274459 0
M  V30 48 H 2.533567 6.164218 -2.877128 0
M  V30 49 H 4.944907 6.362268 -2.593529 0
M  V30 50 H 6.480946 4.549477 -2.926452 0
M  V30 51 H 3.192224 2.036946 -3.908122 0
M  V30 52 H 1.923624 2.611684 -1.276375 0
M  V30 53 H 1.875794 0.773284 -1.333038 0
M  V30 54 H 0.702627 1.722559 -0.383461 0
M  V30 END ATOM
M  V30 BEGIN BOND
M  V30 1 1 1 2
M  V30 2 2 2 3
M  V30 3 1 3 4
M  V30 4 2 4 5
M  V30 5 1 5 6
M  V30 6 2 6 7
M  V30 7 1 6 8
M  V30 8 1 8 9
M  V30 9 1 9 10
M  V30 10 1 10 11
M  V30 11 1 5 12
M  V30 12 2 12 13
M  V30 13 1 13 14
M  V30 14 1 14 15
M  V30 15 2 15 16
M  V30 16 1 16 17
M  V30 17 2 17 18
M  V30 18 1 18 19
M  V30 19 1 19 20
M  V30 20 2 20 21
M  V30 21 1 21 22
M  V30 22 2 22 23
M  V30 23 1 22 24
M  V30 24 2 24 25
M  V30 25 1 25 26
M  V30 26 2 26 27
M  V30 27 1 27 28
M  V30 28 2 28 29
M  V30 29 1 21 30
M  V30 30 1 30 31
M  V30 31 2 30 32
M  V30 32 1 13 2
M  V30 33 1 32 15
M  V30 34 1 11 9
M  V30 35 1 32 19
M  V30 36 1 29 24
M  V30 37 1 1 33
M  V30 38 1 1 34
M  V30 39 1 1 35
M  V30 40 1 3 36
M  V30 41 1 4 37
M  V30 42 1 8 38
M  V30 43 1 9 39
M  V30 44 1 10 40
M  V30 45 1 10 41
M  V30 46 1 11 42
M  V30 47 1 11 43
M  V30 48 1 12 44
M  V30 49 1 14 45
M  V30 50 1 17 46
M  V30 51 1 20 47
M  V30 52 1 25 48
M  V30 53 1 26 49
M  V30 54 1 27 50
M  V30 55 1 29 51
M  V30 56 1 31 52
M  V30 57 1 31 53
M  V30 58 1 31 54
M  V30 END BOND
M  V30 END CTAB
M  END
>  <Dataset>  (793) 
ChEMBL_Kinases

>  <Ligand_Instance>  (793) 
nan

>  <PDB_ID>  (793) 
nan

>  <Standardized_SMILES>  (793) 
Cc1ccc(C(=O)NC2CC2)cc1Nc1ncnn2cc(C(=O)c3cccnc3)c(C)c12

>  <Name>  (793) 
nan

>  <Pocket>  (793) 
nan

>  <ATP_Site>  (793) 
nan

>  <Peripheral>  (793) 
nan

>  <Num_H_Atoms_ProtBoundConf>  (793) 
nan

>  <Num_Resolved_Atoms>  (793) 
nan

>  <Num_Not_Resolved_Atoms>  (793) 
nan

$$$$
CHEMBL1807464
     RDKit          3D

  0  0  0  0  0  0  0  0  0  0999 V3000
M  V30 BEGIN CTAB
M  V30 COUNTS 54 58 0 0 0
M  V30 BEGIN ATOM
M  V30 1 C -0.810547 1.948249 -3.347984 0
M  V30 2 C 0.262763 1.420540 -2.486067 0
M  V30 3 C 1.448542 0.942098 -3.002607 0
M  V30 4 C 2.452052 0.446914 -2.160893 0
M  V30 5 C 2.241866 0.440749 -0.779680 0
M  V30 6 C 3.330256 -0.090654 0.031319 0
M  V30 7 O 4.361450 -0.518384 -0.559253 0
M  V30 8 N 3.327178 -0.167644 1.439285 0
M  V30 9 C 4.437621 -0.705079 2.171546 0
M  V30 10 C 4.385337 -1.189937 3.537081 0
M  V30 11 C 4.957012 0.207085 3.329278 0
M  V30 12 C 1.072929 0.909466 -0.226943 0
M  V30 13 C 0.128556 1.382018 -1.114313 0
M  V30 14 N -1.092475 1.867733 -0.569593 0
M  V30 15 C -1.387788 1.889098 0.822057 0
M  V30 16 N -1.167648 2.902916 1.648323 0
M  V30 17 C -1.492064 2.791802 2.950685 0
M  V30 18 N -2.046354 1.642135 3.427094 0
M  V30 19 N -2.263626 0.633623 2.597626 0
M  V30 20 C -2.797666 -0.560640 2.912249 0
M  V30 21 C -2.846158 -1.331510 1.742974 0
M  V30 22 C -3.353630 -2.695724 1.661982 0
M  V30 23 O -4.449102 -2.845064 2.261449 0
M  V30 24 C -2.758528 -3.849146 0.995073 0
M  V30 25 C -3.477150 -5.022994 1.070174 0
M  V30 26 C -2.941640 -6.156464 0.446350 0
M  V30 27 C -1.718608 -6.033990 -0.211786 0
M  V30 28 C -1.027297 -4.844315 -0.266906 0
M  V30 29 N -1.584199 -3.798995 0.344166 0
M  V30 30 C -2.317296 -0.527285 0.744842 0
M  V30 31 C -2.156245 -0.886335 -0.665537 0
M  V30 32 C -1.954727 0.693692 1.273916 0
M  V30 33 H -0.398256 2.234425 -4.360146 0
M  V30 34 H -1.262633 2.893174 -2.975686 0
M  V30 35 H -1.613632 1.206818 -3.576112 0
M  V30 36 H 1.561208 0.969214 -4.083286 0
M  V30 37 H 3.347979 0.092222 -2.651075 0
M  V30 38 H 2.483500 0.180815 1.953355 0
M  V30 39 H 5.272134 -1.064356 1.520209 0
M  V30 40 H 5.138870 -1.966800 3.839713 0
M  V30 41 H 3.507520 -1.211802 4.178531 0
M  V30 42 H 6.038210 0.358256 3.398238 0
M  V30 43 H 4.301750 1.071675 3.570792 0
M  V30 44 H 0.926118 0.899044 0.829484 0
M  V30 45 H -1.882612 2.253503 -1.130816 0
M  V30 46 H -1.273419 3.678315 3.552440 0
M  V30 47 H -3.140699 -0.901407 3.885180 0
M  V30 48 H -4.433484 -5.168382 1.570640 0
M  V30 49 H -3.483738 -7.090421 0.489324 0
M  V30 50 H -1.371610 -6.959357 -0.669982 0
M  V30 51 H -0.079447 -4.806708 -0.793107 0
M  V30 52 H -1.168412 -1.331840 -0.904634 0
M  V30 53 H -2.915324 -1.690125 -0.896758 0
M  V30 54 H -2.425881 -0.063676 -1.353514 0
M  V30 END ATOM
M  V30 BEGIN BOND
M  V30 1 1 1 2
M  V30 2 2 2 3
M  V30 3 1 3 4
M  V30 4 2 4 5
M  V30 5 1 5 6
M  V30 6 2 6 7
M  V30 7 1 6 8
M  V30 8 1 8 9
M  V30 9 1 9 10
M  V30 10 1 10 11
M  V30 11 1 5 12
M  V30 12 2 12 13
M  V30 13 1 13 14
M  V30 14 1 14 15
M  V30 15 2 15 16
M  V30 16 1 16 17
M  V30 17 2 17 18
M  V30 18 1 18 19
M  V30 19 1 19 20
M  V30 20 2 20 21
M  V30 21 1 21 22
M  V30 22 2 22 23
M  V30 23 1 22 24
M  V30 24 2 24 25
M  V30 25 1 25 26
M  V30 26 2 26 27
M  V30 27 1 27 28
M  V30 28 2 28 29
M  V30 29 1 21 30
M  V30 30 1 30 31
M  V30 31 2 30 32
M  V30 32 1 13 2
M  V30 33 1 32 15
M  V30 34 1 11 9
M  V30 35 1 32 19
M  V30 36 1 29 24
M  V30 37 1 1 33
M  V30 38 1 1 34
M  V30 39 1 1 35
M  V30 40 1 3 36
M  V30 41 1 4 37
M  V30 42 1 8 38
M  V30 43 1 9 39
M  V30 44 1 10 40
M  V30 45 1 10 41
M  V30 46 1 11 42
M  V30 47 1 11 43
M  V30 48 1 12 44
M  V30 49 1 14 45
M  V30 50 1 17 46
M  V30 51 1 20 47
M  V30 52 1 25 48
M  V30 53 1 26 49
M  V30 54 1 27 50
M  V30 55 1 28 51
M  V30 56 1 31 52
M  V30 57 1 31 53
M  V30 58 1 31 54
M  V30 END BOND
M  V30 END CTAB
M  END
>  <Dataset>  (794) 
ChEMBL_Kinases

>  <Ligand_Instance>  (794) 
nan

>  <PDB_ID>  (794) 
nan

>  <Standardized_SMILES>  (794) 
Cc1ccc(C(=O)NC2CC2)cc1Nc1ncnn2cc(C(=O)c3ccccn3)c(C)c12

>  <Name>  (794) 
nan

>  <Pocket>  (794) 
nan

>  <ATP_Site>  (794) 
nan

>  <Peripheral>  (794) 
nan

>  <Num_H_Atoms_ProtBoundConf>  (794) 
nan

>  <Num_Resolved_Atoms>  (794) 
nan

>  <Num_Not_Resolved_Atoms>  (794) 
nan

$$$$
CHEMBL1807463
     RDKit          3D

  0  0  0  0  0  0  0  0  0  0999 V3000
M  V30 BEGIN CTAB
M  V30 COUNTS 57 61 0 0 0
M  V30 BEGIN ATOM
M  V30 1 C 3.662566 -2.498518 3.034162 0
M  V30 2 C 4.153796 -1.137077 2.727712 0
M  V30 3 C 5.379114 -0.817859 3.269696 0
M  V30 4 C 5.978173 0.434087 3.061789 0
M  V30 5 C 5.247101 1.331287 2.269205 0
M  V30 6 C 4.025851 0.994137 1.737357 0
M  V30 7 C 3.401461 2.032160 0.938321 0
M  V30 8 O 3.990164 3.143595 0.821788 0
M  V30 9 C 2.151314 2.047940 0.195246 0
M  V30 10 C 1.188758 3.064054 0.189261 0
M  V30 11 N 0.192979 2.686500 -0.630196 0
M  V30 12 N -0.884117 3.398766 -0.889834 0
M  V30 13 C -1.853689 2.957411 -1.741276 0
M  V30 14 N -1.652164 1.739088 -2.311060 0
M  V30 15 C -0.542183 1.023027 -2.032887 0
M  V30 16 N -0.342554 -0.249274 -2.635522 0
M  V30 17 C -1.130740 -1.288673 -2.057772 0
M  V30 18 C -2.043018 -1.047927 -1.023132 0
M  V30 19 C -2.823509 -2.014008 -0.433221 0
M  V30 20 C -3.737175 -1.595231 0.618568 0
M  V30 21 O -3.801798 -0.384624 0.934037 0
M  V30 22 N -4.576806 -2.542876 1.312050 0
M  V30 23 C -5.452654 -1.996223 2.340131 0
M  V30 24 C -5.622299 -2.795544 3.594756 0
M  V30 25 C -6.714669 -2.772369 2.546233 0
M  V30 26 C -2.715595 -3.314672 -0.873004 0
M  V30 27 C -1.819317 -3.602624 -1.901517 0
M  V30 28 C -1.045691 -2.619707 -2.481824 0
M  V30 29 C -0.078283 -2.932656 -3.595734 0
M  V30 30 C 0.431306 1.480068 -1.171262 0
M  V30 31 C 1.647006 1.067233 -0.668569 0
M  V30 32 C 2.271426 -0.207924 -1.023816 0
M  V30 33 N 3.509526 -0.222700 1.975990 0
M  V30 34 H 4.269585 -3.223093 2.452141 0
M  V30 35 H 3.827179 -2.775862 4.113591 0
M  V30 36 H 2.572707 -2.553503 2.841933 0
M  V30 37 H 6.002025 -1.472799 3.896021 0
M  V30 38 H 6.939240 0.696833 3.477718 0
M  V30 39 H 5.765263 2.297011 2.140480 0
M  V30 40 H 1.297167 3.972629 0.770707 0
M  V30 41 H -2.745616 3.531203 -1.963845 0
M  V30 42 H 0.277126 -0.531833 -3.421215 0
M  V30 43 H -2.122415 -0.045718 -0.687927 0
M  V30 44 H -4.549600 -3.556097 1.079567 0
M  V30 45 H -5.435998 -0.911846 2.477151 0
M  V30 46 H -5.845107 -2.243120 4.535574 0
M  V30 47 H -5.028758 -3.707812 3.757180 0
M  V30 48 H -7.629139 -2.194880 2.714916 0
M  V30 49 H -6.852423 -3.747471 2.032746 0
M  V30 50 H -3.314573 -4.095324 -0.430530 0
M  V30 51 H -1.749103 -4.628583 -2.231513 0
M  V30 52 H -0.157427 -4.009631 -3.838171 0
M  V30 53 H -0.335863 -2.364561 -4.508887 0
M  V30 54 H 0.946527 -2.727887 -3.240540 0
M  V30 55 H 2.266297 -0.379493 -2.133622 0
M  V30 56 H 3.374288 -0.130515 -0.791340 0
M  V30 57 H 1.896356 -1.070266 -0.446723 0
M  V30 END ATOM
M  V30 BEGIN BOND
M  V30 1 1 1 2
M  V30 2 2 2 3
M  V30 3 1 3 4
M  V30 4 2 4 5
M  V30 5 1 5 6
M  V30 6 1 6 7
M  V30 7 2 7 8
M  V30 8 1 7 9
M  V30 9 2 9 10
M  V30 10 1 10 11
M  V30 11 1 11 12
M  V30 12 2 12 13
M  V30 13 1 13 14
M  V30 14 2 14 15
M  V30 15 1 15 16
M  V30 16 1 16 17
M  V30 17 2 17 18
M  V30 18 1 18 19
M  V30 19 1 19 20
M  V30 20 2 20 21
M  V30 21 1 20 22
M  V30 22 1 22 23
M  V30 23 1 23 24
M  V30 24 1 24 25
M  V30 25 2 19 26
M  V30 26 1 26 27
M  V30 27 2 27 28
M  V30 28 1 28 29
M  V30 29 1 15 30
M  V30 30 2 30 31
M  V30 31 1 31 32
M  V30 32 2 6 33
M  V30 33 1 33 2
M  V30 34 1 31 9
M  V30 35 1 30 11
M  V30 36 1 28 17
M  V30 37 1 25 23
M  V30 38 1 1 34
M  V30 39 1 1 35
M  V30 40 1 1 36
M  V30 41 1 3 37
M  V30 42 1 4 38
M  V30 43 1 5 39
M  V30 44 1 10 40
M  V30 45 1 13 41
M  V30 46 1 16 42
M  V30 47 1 18 43
M  V30 48 1 22 44
M  V30 49 1 23 45
M  V30 50 1 24 46
M  V30 51 1 24 47
M  V30 52 1 25 48
M  V30 53 1 25 49
M  V30 54 1 26 50
M  V30 55 1 27 51
M  V30 56 1 29 52
M  V30 57 1 29 53
M  V30 58 1 29 54
M  V30 59 1 32 55
M  V30 60 1 32 56
M  V30 61 1 32 57
M  V30 END BOND
M  V30 END CTAB
M  END
>  <Dataset>  (795) 
ChEMBL_Kinases

>  <Ligand_Instance>  (795) 
nan

>  <PDB_ID>  (795) 
nan

>  <Standardized_SMILES>  (795) 
Cc1cccc(C(=O)c2cn3ncnc(Nc4cc(C(=O)NC5CC5)ccc4C)c3c2C)n1

>  <Name>  (795) 
nan

>  <Pocket>  (795) 
nan

>  <ATP_Site>  (795) 
nan

>  <Peripheral>  (795) 
nan

>  <Num_H_Atoms_ProtBoundConf>  (795) 
nan

>  <Num_Resolved_Atoms>  (795) 
nan

>  <Num_Not_Resolved_Atoms>  (795) 
nan

$$$$
CHEMBL1807462
     RDKit          3D

  0  0  0  0  0  0  0  0  0  0999 V3000
M  V30 BEGIN CTAB
M  V30 COUNTS 53 56 0 0 0
M  V30 BEGIN ATOM
M  V30 1 C 0.382505 -4.790621 3.378314 0
M  V30 2 N 1.241246 -3.759688 2.762163 0
M  V30 3 C 2.245159 -4.332572 1.852755 0
M  V30 4 O 1.953416 -5.475501 1.981602 0
M  V30 5 C 2.945644 -3.075255 1.385448 0
M  V30 6 C 4.324749 -2.991251 1.532583 0
M  V30 7 C 4.988124 -1.871297 1.078359 0
M  V30 8 C 4.193426 -0.914876 0.501640 0
M  V30 9 C 4.901277 0.312522 -0.002683 0
M  V30 10 C 2.828882 -0.905187 0.308721 0
M  V30 11 N 2.067735 0.114463 -0.329720 0
M  V30 12 C 1.727417 1.465524 -0.027175 0
M  V30 13 N 2.607350 2.386723 0.404053 0
M  V30 14 C 2.178578 3.627305 0.696871 0
M  V30 15 N 0.884739 3.987703 0.576460 0
M  V30 16 N 0.003520 3.098533 0.154622 0
M  V30 17 C -1.308475 3.324851 -0.005273 0
M  V30 18 C -1.870404 2.156470 -0.452059 0
M  V30 19 C -3.257102 1.779768 -0.790888 0
M  V30 20 O -3.765901 2.669141 -1.507122 0
M  V30 21 C -3.995614 0.594645 -0.408241 0
M  V30 22 C -5.220954 0.488438 -1.078514 0
M  V30 23 C -6.011499 -0.628368 -0.792012 0
M  V30 24 C -5.625788 -1.587339 0.099482 0
M  V30 25 C -4.399315 -1.442059 0.744352 0
M  V30 26 C -3.939504 -2.464843 1.708395 0
M  V30 27 N -3.670643 -0.375246 0.454851 0
M  V30 28 C -0.797498 1.250083 -0.538455 0
M  V30 29 C -0.970407 -0.151557 -1.017240 0
M  V30 30 C 0.381853 1.843810 -0.154079 0
M  V30 31 C 2.237959 -2.059100 0.792736 0
M  V30 32 H -0.234901 -5.283800 2.614530 0
M  V30 33 H 0.987544 -5.487282 3.968729 0
M  V30 34 H -0.349663 -4.292236 4.061675 0
M  V30 35 H 1.001306 -2.766332 3.076921 0
M  V30 36 H 4.855303 -3.799253 1.998914 0
M  V30 37 H 6.056559 -1.737576 1.158695 0
M  V30 38 H 4.395592 0.699467 -0.912673 0
M  V30 39 H 5.958092 0.027117 -0.288377 0
M  V30 40 H 4.994845 1.058321 0.812164 0
M  V30 41 H 1.857899 -0.449231 -1.181852 0
M  V30 42 H 2.865011 4.382572 1.037076 0
M  V30 43 H -1.913832 4.202796 0.156589 0
M  V30 44 H -5.648888 1.182939 -1.815324 0
M  V30 45 H -6.980286 -0.754994 -1.297119 0
M  V30 46 H -6.185332 -2.474198 0.364448 0
M  V30 47 H -4.207828 -3.503478 1.393040 0
M  V30 48 H -2.829464 -2.373865 1.812336 0
M  V30 49 H -4.379023 -2.313454 2.707416 0
M  V30 50 H -0.953255 -0.855844 -0.189459 0
M  V30 51 H -1.924922 -0.219231 -1.632373 0
M  V30 52 H -0.196320 -0.379001 -1.771924 0
M  V30 53 H 1.157151 -2.152641 0.684227 0
M  V30 END ATOM
M  V30 BEGIN BOND
M  V30 1 1 1 2
M  V30 2 1 2 3
M  V30 3 2 3 4
M  V30 4 1 3 5
M  V30 5 2 5 6
M  V30 6 1 6 7
M  V30 7 2 7 8
M  V30 8 1 8 9
M  V30 9 1 8 10
M  V30 10 1 10 11
M  V30 11 1 11 12
M  V30 12 2 12 13
M  V30 13 1 13 14
M  V30 14 2 14 15
M  V30 15 1 15 16
M  V30 16 1 16 17
M  V30 17 2 17 18
M  V30 18 1 18 19
M  V30 19 2 19 20
M  V30 20 1 19 21
M  V30 21 2 21 22
M  V30 22 1 22 23
M  V30 23 2 23 24
M  V30 24 1 24 25
M  V30 25 1 25 26
M  V30 26 2 25 27
M  V30 27 1 18 28
M  V30 28 1 28 29
M  V30 29 2 28 30
M  V30 30 2 10 31
M  V30 31 1 31 5
M  V30 32 1 30 12
M  V30 33 1 30 16
M  V30 34 1 27 21
M  V30 35 1 1 32
M  V30 36 1 1 33
M  V30 37 1 1 34
M  V30 38 1 2 35
M  V30 39 1 6 36
M  V30 40 1 7 37
M  V30 41 1 9 38
M  V30 42 1 9 39
M  V30 43 1 9 40
M  V30 44 1 11 41
M  V30 45 1 14 42
M  V30 46 1 17 43
M  V30 47 1 22 44
M  V30 48 1 23 45
M  V30 49 1 24 46
M  V30 50 1 26 47
M  V30 51 1 26 48
M  V30 52 1 26 49
M  V30 53 1 29 50
M  V30 54 1 29 51
M  V30 55 1 29 52
M  V30 56 1 31 53
M  V30 END BOND
M  V30 END CTAB
M  END
>  <Dataset>  (796) 
ChEMBL_Kinases

>  <Ligand_Instance>  (796) 
nan

>  <PDB_ID>  (796) 
nan

>  <Standardized_SMILES>  (796) 
CNC(=O)c1ccc(C)c(Nc2ncnn3cc(C(=O)c4cccc(C)n4)c(C)c23)c1

>  <Name>  (796) 
nan

>  <Pocket>  (796) 
nan

>  <ATP_Site>  (796) 
nan

>  <Peripheral>  (796) 
nan

>  <Num_H_Atoms_ProtBoundConf>  (796) 
nan

>  <Num_Resolved_Atoms>  (796) 
nan

>  <Num_Not_Resolved_Atoms>  (796) 
nan

$$$$
CHEMBL1807461
     RDKit          3D

  0  0  0  0  0  0  0  0  0  0999 V3000
M  V30 BEGIN CTAB
M  V30 COUNTS 54 58 0 0 0
M  V30 BEGIN ATOM
M  V30 1 C 4.908886 -3.324805 2.264425 0
M  V30 2 N 4.563616 -1.909457 2.356190 0
M  V30 3 C 3.686598 -1.434437 1.355712 0
M  V30 4 O 3.281782 -2.253732 0.479463 0
M  V30 5 C 3.266596 -0.030326 1.348370 0
M  V30 6 C 3.755812 0.914789 2.218812 0
M  V30 7 C 3.291770 2.235935 2.165219 0
M  V30 8 C 2.333645 2.616445 1.236216 0
M  V30 9 C 1.933945 4.052727 1.226688 0
M  V30 10 C 1.807479 1.694427 0.335626 0
M  V30 11 N 0.800703 2.037155 -0.643645 0
M  V30 12 C -0.548729 2.501855 -0.377625 0
M  V30 13 N -0.810403 3.770540 -0.047118 0
M  V30 14 C -2.045444 4.206148 0.206853 0
M  V30 15 N -3.106936 3.346633 0.134672 0
M  V30 16 N -2.856008 2.065145 -0.198427 0
M  V30 17 C -3.781160 1.096951 -0.321219 0
M  V30 18 C -3.102872 -0.055623 -0.682190 0
M  V30 19 C -3.792643 -1.310162 -0.900436 0
M  V30 20 O -4.834912 -1.341486 -1.584782 0
M  V30 21 C -3.401003 -2.611826 -0.391445 0
M  V30 22 C -2.528036 -2.700293 0.686894 0
M  V30 23 C -2.051627 -3.842734 1.291454 0
M  V30 24 C -2.513737 -5.015308 0.737595 0
M  V30 25 C -3.392177 -5.016949 -0.343723 0
M  V30 26 C -3.836328 -3.826386 -0.908488 0
M  V30 27 O -3.676467 -6.356429 -0.671656 0
M  V30 28 C -2.734489 -7.197846 0.025147 0
M  V30 29 O -2.265329 -6.355030 1.061418 0
M  V30 30 C -1.747039 0.284461 -0.763986 0
M  V30 31 C -0.700334 -0.669116 -1.140792 0
M  V30 32 C -1.608619 1.620524 -0.456178 0
M  V30 33 C 2.302859 0.415871 0.437463 0
M  V30 34 H 5.990802 -3.421140 2.549847 0
M  V30 35 H 4.285184 -3.916113 2.994976 0
M  V30 36 H 4.705690 -3.764354 1.288072 0
M  V30 37 H 4.948881 -1.323878 3.111616 0
M  V30 38 H 4.504648 0.644728 2.949889 0
M  V30 39 H 3.695151 2.969833 2.868053 0
M  V30 40 H 1.099653 4.302034 1.888915 0
M  V30 41 H 1.818943 4.464455 0.196173 0
M  V30 42 H 2.829883 4.621561 1.642138 0
M  V30 43 H 0.919943 2.002126 -1.673130 0
M  V30 44 H -2.080302 5.254037 0.461284 0
M  V30 45 H -4.862462 1.196342 -0.167506 0
M  V30 46 H -2.181650 -1.741736 1.103176 0
M  V30 47 H -1.377020 -3.791431 2.120817 0
M  V30 48 H -4.523240 -3.796012 -1.754208 0
M  V30 49 H -3.234350 -8.093099 0.452060 0
M  V30 50 H -1.881585 -7.488380 -0.639988 0
M  V30 51 H 0.101185 -0.200359 -1.743069 0
M  V30 52 H -0.255798 -1.244413 -0.324692 0
M  V30 53 H -1.178798 -1.439546 -1.828597 0
M  V30 54 H 1.966800 -0.365768 -0.223638 0
M  V30 END ATOM
M  V30 BEGIN BOND
M  V30 1 1 1 2
M  V30 2 1 2 3
M  V30 3 2 3 4
M  V30 4 1 3 5
M  V30 5 2 5 6
M  V30 6 1 6 7
M  V30 7 2 7 8
M  V30 8 1 8 9
M  V30 9 1 8 10
M  V30 10 1 10 11
M  V30 11 1 11 12
M  V30 12 2 12 13
M  V30 13 1 13 14
M  V30 14 2 14 15
M  V30 15 1 15 16
M  V30 16 1 16 17
M  V30 17 2 17 18
M  V30 18 1 18 19
M  V30 19 2 19 20
M  V30 20 1 19 21
M  V30 21 2 21 22
M  V30 22 1 22 23
M  V30 23 2 23 24
M  V30 24 1 24 25
M  V30 25 2 25 26
M  V30 26 1 25 27
M  V30 27 1 27 28
M  V30 28 1 28 29
M  V30 29 1 18 30
M  V30 30 1 30 31
M  V30 31 2 30 32
M  V30 32 2 10 33
M  V30 33 1 33 5
M  V30 34 1 32 12
M  V30 35 1 32 16
M  V30 36 1 26 21
M  V30 37 1 29 24
M  V30 38 1 1 34
M  V30 39 1 1 35
M  V30 40 1 1 36
M  V30 41 1 2 37
M  V30 42 1 6 38
M  V30 43 1 7 39
M  V30 44 1 9 40
M  V30 45 1 9 41
M  V30 46 1 9 42
M  V30 47 1 11 43
M  V30 48 1 14 44
M  V30 49 1 17 45
M  V30 50 1 22 46
M  V30 51 1 23 47
M  V30 52 1 26 48
M  V30 53 1 28 49
M  V30 54 1 28 50
M  V30 55 1 31 51
M  V30 56 1 31 52
M  V30 57 1 31 53
M  V30 58 1 33 54
M  V30 END BOND
M  V30 END CTAB
M  END
>  <Dataset>  (797) 
ChEMBL_Kinases

>  <Ligand_Instance>  (797) 
nan

>  <PDB_ID>  (797) 
nan

>  <Standardized_SMILES>  (797) 
CNC(=O)c1ccc(C)c(Nc2ncnn3cc(C(=O)c4ccc5c(c4)OCO5)c(C)c23)c1

>  <Name>  (797) 
nan

>  <Pocket>  (797) 
nan

>  <ATP_Site>  (797) 
nan

>  <Peripheral>  (797) 
nan

>  <Num_H_Atoms_ProtBoundConf>  (797) 
nan

>  <Num_Resolved_Atoms>  (797) 
nan

>  <Num_Not_Resolved_Atoms>  (797) 
nan

$$$$
CHEMBL1807460
     RDKit          3D

  0  0  0  0  0  0  0  0  0  0999 V3000
M  V30 BEGIN CTAB
M  V30 COUNTS 51 54 0 0 0
M  V30 BEGIN ATOM
M  V30 1 C 2.870338 -5.310133 4.958023 0
M  V30 2 N 3.161242 -3.964676 4.506570 0
M  V30 3 C 2.719791 -3.516399 3.249617 0
M  V30 4 O 2.056654 -4.317629 2.509537 0
M  V30 5 C 3.015564 -2.158030 2.800225 0
M  V30 6 C 3.737130 -1.301331 3.600763 0
M  V30 7 C 3.989026 -0.035048 3.130337 0
M  V30 8 C 3.550166 0.424715 1.883269 0
M  V30 9 C 3.909483 1.805745 1.487163 0
M  V30 10 C 2.814561 -0.448420 1.068387 0
M  V30 11 N 2.351501 -0.018511 -0.232044 0
M  V30 12 C 1.456308 1.001877 -0.661864 0
M  V30 13 N 1.855527 2.276849 -0.700971 0
M  V30 14 C 0.997852 3.223230 -1.106948 0
M  V30 15 N -0.265115 2.989327 -1.488275 0
M  V30 16 N -0.686610 1.715762 -1.457054 0
M  V30 17 C -1.899573 1.254226 -1.802030 0
M  V30 18 C -1.819039 -0.128611 -1.601362 0
M  V30 19 C -2.997811 -0.934783 -1.911211 0
M  V30 20 O -2.927405 -2.005679 -2.594932 0
M  V30 21 C -4.328854 -0.525252 -1.433447 0
M  V30 22 C -5.504392 -0.849563 -2.078668 0
M  V30 23 C -6.697935 -0.430340 -1.537720 0
M  V30 24 C -6.765159 0.302739 -0.374971 0
M  V30 25 F -7.928472 0.730124 0.183110 0
M  V30 26 C -5.602133 0.661199 0.323799 0
M  V30 27 C -4.415889 0.209298 -0.269984 0
M  V30 28 C -0.550528 -0.443580 -1.139317 0
M  V30 29 C -0.140545 -1.835621 -0.837884 0
M  V30 30 C 0.159704 0.755870 -1.053726 0
M  V30 31 C 2.579914 -1.712203 1.570588 0
M  V30 32 H 2.527998 -5.982903 4.164458 0
M  V30 33 H 3.675066 -5.792134 5.519957 0
M  V30 34 H 1.996738 -5.179221 5.667127 0
M  V30 35 H 3.702084 -3.409704 5.189255 0
M  V30 36 H 4.115657 -1.551878 4.565577 0
M  V30 37 H 4.555520 0.657085 3.747140 0
M  V30 38 H 4.302670 1.864116 0.453107 0
M  V30 39 H 4.799921 2.114611 2.119921 0
M  V30 40 H 3.143442 2.559282 1.742299 0
M  V30 41 H 2.593322 -0.378187 -1.179750 0
M  V30 42 H 1.335684 4.250305 -1.132515 0
M  V30 43 H -2.733177 1.855741 -2.154792 0
M  V30 44 H -5.414575 -1.430393 -2.997581 0
M  V30 45 H -7.600201 -0.688465 -2.048235 0
M  V30 46 H -5.658732 1.228736 1.221980 0
M  V30 47 H -3.523529 0.501261 0.293638 0
M  V30 48 H -0.680441 -2.502713 -1.585851 0
M  V30 49 H 0.916939 -2.029976 -1.008373 0
M  V30 50 H -0.529230 -2.193411 0.150302 0
M  V30 51 H 2.027244 -2.434011 1.008011 0
M  V30 END ATOM
M  V30 BEGIN BOND
M  V30 1 1 1 2
M  V30 2 1 2 3
M  V30 3 2 3 4
M  V30 4 1 3 5
M  V30 5 2 5 6
M  V30 6 1 6 7
M  V30 7 2 7 8
M  V30 8 1 8 9
M  V30 9 1 8 10
M  V30 10 1 10 11
M  V30 11 1 11 12
M  V30 12 2 12 13
M  V30 13 1 13 14
M  V30 14 2 14 15
M  V30 15 1 15 16
M  V30 16 1 16 17
M  V30 17 2 17 18
M  V30 18 1 18 19
M  V30 19 2 19 20
M  V30 20 1 19 21
M  V30 21 2 21 22
M  V30 22 1 22 23
M  V30 23 2 23 24
M  V30 24 1 24 25
M  V30 25 1 24 26
M  V30 26 2 26 27
M  V30 27 1 18 28
M  V30 28 1 28 29
M  V30 29 2 28 30
M  V30 30 2 10 31
M  V30 31 1 31 5
M  V30 32 1 30 12
M  V30 33 1 30 16
M  V30 34 1 27 21
M  V30 35 1 1 32
M  V30 36 1 1 33
M  V30 37 1 1 34
M  V30 38 1 2 35
M  V30 39 1 6 36
M  V30 40 1 7 37
M  V30 41 1 9 38
M  V30 42 1 9 39
M  V30 43 1 9 40
M  V30 44 1 11 41
M  V30 45 1 14 42
M  V30 46 1 17 43
M  V30 47 1 22 44
M  V30 48 1 23 45
M  V30 49 1 26 46
M  V30 50 1 27 47
M  V30 51 1 29 48
M  V30 52 1 29 49
M  V30 53 1 29 50
M  V30 54 1 31 51
M  V30 END BOND
M  V30 END CTAB
M  END
>  <Dataset>  (798) 
ChEMBL_Kinases

>  <Ligand_Instance>  (798) 
nan

>  <PDB_ID>  (798) 
nan

>  <Standardized_SMILES>  (798) 
CNC(=O)c1ccc(C)c(Nc2ncnn3cc(C(=O)c4ccc(F)cc4)c(C)c23)c1

>  <Name>  (798) 
nan

>  <Pocket>  (798) 
nan

>  <ATP_Site>  (798) 
nan

>  <Peripheral>  (798) 
nan

>  <Num_H_Atoms_ProtBoundConf>  (798) 
nan

>  <Num_Resolved_Atoms>  (798) 
nan

>  <Num_Not_Resolved_Atoms>  (798) 
nan

$$$$
CHEMBL1807459
     RDKit          3D

  0  0  0  0  0  0  0  0  0  0999 V3000
M  V30 BEGIN CTAB
M  V30 COUNTS 51 54 0 0 0
M  V30 BEGIN ATOM
M  V30 1 C 1.907234 -4.560884 5.841787 0
M  V30 2 N 2.429424 -3.495153 5.022881 0
M  V30 3 C 1.950090 -3.011506 3.784644 0
M  V30 4 O 0.940828 -3.589969 3.347270 0
M  V30 5 C 2.586470 -1.923284 3.076915 0
M  V30 6 C 3.714269 -1.308377 3.579140 0
M  V30 7 C 4.292593 -0.267369 2.890975 0
M  V30 8 C 3.739622 0.160108 1.695026 0
M  V30 9 C 4.452754 1.280532 1.023840 0
M  V30 10 C 2.605925 -0.418730 1.139964 0
M  V30 11 N 2.049552 0.027895 -0.098309 0
M  V30 12 C 1.465782 1.267869 -0.535266 0
M  V30 13 N 2.213685 2.319628 -0.814588 0
M  V30 14 C 1.646807 3.459674 -1.224174 0
M  V30 15 N 0.330508 3.578611 -1.363929 0
M  V30 16 N -0.463710 2.531828 -1.090393 0
M  V30 17 C -1.801766 2.454729 -1.183613 0
M  V30 18 C -2.163753 1.154962 -0.807564 0
M  V30 19 C -3.561739 0.757674 -0.847032 0
M  V30 20 O -4.355127 1.557779 -0.237403 0
M  V30 21 C -4.184791 -0.409388 -1.475613 0
M  V30 22 C -3.647777 -1.164812 -2.521421 0
M  V30 23 C -4.235907 -2.251200 -3.096833 0
M  V30 24 C -5.459392 -2.651028 -2.620666 0
M  V30 25 C -6.027294 -1.936865 -1.591101 0
M  V30 26 F -7.241784 -2.375695 -1.155072 0
M  V30 27 C -5.420481 -0.840934 -1.019804 0
M  V30 28 C -0.960290 0.514568 -0.498642 0
M  V30 29 C -0.921372 -0.874064 -0.048148 0
M  V30 30 C 0.092880 1.385798 -0.680135 0
M  V30 31 C 2.082871 -1.454478 1.883157 0
M  V30 32 H 0.841248 -4.808313 5.639021 0
M  V30 33 H 2.523396 -5.498172 5.738087 0
M  V30 34 H 1.939167 -4.344006 6.933328 0
M  V30 35 H 3.269536 -3.092154 5.487876 0
M  V30 36 H 4.189000 -1.595423 4.505277 0
M  V30 37 H 5.193486 0.214850 3.301203 0
M  V30 38 H 3.969824 2.213173 1.313684 0
M  V30 39 H 4.556790 1.092329 -0.058819 0
M  V30 40 H 5.509721 1.356393 1.403822 0
M  V30 41 H 2.178786 -0.834712 -0.688360 0
M  V30 42 H 2.327932 4.266051 -1.430650 0
M  V30 43 H -2.456272 3.273331 -1.498902 0
M  V30 44 H -2.677951 -0.809366 -2.866070 0
M  V30 45 H -3.681369 -2.727033 -3.901600 0
M  V30 46 H -5.913904 -3.527885 -3.098505 0
M  V30 47 H -5.946152 -0.350074 -0.218814 0
M  V30 48 H -0.083971 -1.462613 -0.445975 0
M  V30 49 H -1.840894 -1.449162 -0.359204 0
M  V30 50 H -0.909813 -0.987953 1.060187 0
M  V30 51 H 1.203029 -1.973888 1.533183 0
M  V30 END ATOM
M  V30 BEGIN BOND
M  V30 1 1 1 2
M  V30 2 1 2 3
M  V30 3 2 3 4
M  V30 4 1 3 5
M  V30 5 2 5 6
M  V30 6 1 6 7
M  V30 7 2 7 8
M  V30 8 1 8 9
M  V30 9 1 8 10
M  V30 10 1 10 11
M  V30 11 1 11 12
M  V30 12 2 12 13
M  V30 13 1 13 14
M  V30 14 2 14 15
M  V30 15 1 15 16
M  V30 16 1 16 17
M  V30 17 2 17 18
M  V30 18 1 18 19
M  V30 19 2 19 20
M  V30 20 1 19 21
M  V30 21 2 21 22
M  V30 22 1 22 23
M  V30 23 2 23 24
M  V30 24 1 24 25
M  V30 25 1 25 26
M  V30 26 2 25 27
M  V30 27 1 18 28
M  V30 28 1 28 29
M  V30 29 2 28 30
M  V30 30 2 10 31
M  V30 31 1 31 5
M  V30 32 1 30 12
M  V30 33 1 30 16
M  V30 34 1 27 21
M  V30 35 1 1 32
M  V30 36 1 1 33
M  V30 37 1 1 34
M  V30 38 1 2 35
M  V30 39 1 6 36
M  V30 40 1 7 37
M  V30 41 1 9 38
M  V30 42 1 9 39
M  V30 43 1 9 40
M  V30 44 1 11 41
M  V30 45 1 14 42
M  V30 46 1 17 43
M  V30 47 1 22 44
M  V30 48 1 23 45
M  V30 49 1 24 46
M  V30 50 1 27 47
M  V30 51 1 29 48
M  V30 52 1 29 49
M  V30 53 1 29 50
M  V30 54 1 31 51
M  V30 END BOND
M  V30 END CTAB
M  END
>  <Dataset>  (799) 
ChEMBL_Kinases

>  <Ligand_Instance>  (799) 
nan

>  <PDB_ID>  (799) 
nan

>  <Standardized_SMILES>  (799) 
CNC(=O)c1ccc(C)c(Nc2ncnn3cc(C(=O)c4cccc(F)c4)c(C)c23)c1

>  <Name>  (799) 
nan

>  <Pocket>  (799) 
nan

>  <ATP_Site>  (799) 
nan

>  <Peripheral>  (799) 
nan

>  <Num_H_Atoms_ProtBoundConf>  (799) 
nan

>  <Num_Resolved_Atoms>  (799) 
nan

>  <Num_Not_Resolved_Atoms>  (799) 
nan

$$$$
CHEMBL1807458
     RDKit          3D

  0  0  0  0  0  0  0  0  0  0999 V3000
M  V30 BEGIN CTAB
M  V30 COUNTS 55 58 0 0 0
M  V30 BEGIN ATOM
M  V30 1 C 3.792684 -4.159476 -0.602711 0
M  V30 2 N 3.336241 -2.809374 -0.312035 0
M  V30 3 C 3.883654 -2.232130 0.864460 0
M  V30 4 O 4.709033 -2.813165 1.630252 0
M  V30 5 C 3.533681 -0.886726 1.304836 0
M  V30 6 C 4.070171 -0.344902 2.457372 0
M  V30 7 C 3.787337 0.919507 2.941362 0
M  V30 8 C 2.898260 1.674706 2.197212 0
M  V30 9 C 2.582317 3.035087 2.693000 0
M  V30 10 C 2.303027 1.232232 1.031678 0
M  V30 11 N 1.374413 1.992406 0.254025 0
M  V30 12 C 0.136386 2.619581 0.385468 0
M  V30 13 N 0.197393 3.899523 0.790444 0
M  V30 14 C -0.883422 4.648891 0.973315 0
M  V30 15 N -2.099567 4.113861 0.745185 0
M  V30 16 N -2.254168 2.870274 0.346166 0
M  V30 17 C -3.300642 2.089580 0.049678 0
M  V30 18 C -2.889191 0.831185 -0.326004 0
M  V30 19 C -3.639890 -0.361382 -0.710874 0
M  V30 20 O -4.572608 -0.462147 -1.562111 0
M  V30 21 C -3.323265 -1.647869 -0.062481 0
M  V30 22 C -2.702929 -1.661288 1.187128 0
M  V30 23 C -2.358433 -2.792094 1.870892 0
M  V30 24 C -2.648046 -3.995977 1.275263 0
M  V30 25 C -3.267482 -4.050713 0.026403 0
M  V30 26 O -3.500573 -5.303657 -0.456582 0
M  V30 27 C -4.106205 -5.625706 -1.682199 0
M  V30 28 C -3.590334 -2.880736 -0.612366 0
M  V30 29 C -1.497424 0.873531 -0.245665 0
M  V30 30 C -0.587382 -0.242397 -0.580381 0
M  V30 31 C -1.140643 2.136414 0.170186 0
M  V30 32 C 2.664838 -0.039771 0.653880 0
M  V30 33 H 3.033597 -4.633245 -1.278116 0
M  V30 34 H 4.003482 -4.749777 0.302477 0
M  V30 35 H 4.726172 -4.092399 -1.190891 0
M  V30 36 H 2.658798 -2.301936 -0.918938 0
M  V30 37 H 4.775132 -0.914389 3.074744 0
M  V30 38 H 4.228088 1.290529 3.833121 0
M  V30 39 H 1.544473 3.113561 3.087539 0
M  V30 40 H 2.729884 3.836834 1.953783 0
M  V30 41 H 3.229744 3.315004 3.554554 0
M  V30 42 H 1.795914 2.082024 -0.719086 0
M  V30 43 H -0.963055 5.675486 1.292462 0
M  V30 44 H -4.360762 2.380424 0.089528 0
M  V30 45 H -2.495701 -0.690443 1.616810 0
M  V30 46 H -1.879906 -2.664048 2.838621 0
M  V30 47 H -2.362922 -4.883498 1.844781 0
M  V30 48 H -4.935056 -6.339857 -1.429494 0
M  V30 49 H -3.376052 -6.188193 -2.320782 0
M  V30 50 H -4.434293 -4.770181 -2.278268 0
M  V30 51 H -4.061337 -2.904481 -1.564262 0
M  V30 52 H 0.191329 0.094671 -1.311297 0
M  V30 53 H -1.134012 -1.052004 -1.115612 0
M  V30 54 H -0.119550 -0.723908 0.301497 0
M  V30 55 H 2.243886 -0.448380 -0.250716 0
M  V30 END ATOM
M  V30 BEGIN BOND
M  V30 1 1 1 2
M  V30 2 1 2 3
M  V30 3 2 3 4
M  V30 4 1 3 5
M  V30 5 2 5 6
M  V30 6 1 6 7
M  V30 7 2 7 8
M  V30 8 1 8 9
M  V30 9 1 8 10
M  V30 10 1 10 11
M  V30 11 1 11 12
M  V30 12 2 12 13
M  V30 13 1 13 14
M  V30 14 2 14 15
M  V30 15 1 15 16
M  V30 16 1 16 17
M  V30 17 2 17 18
M  V30 18 1 18 19
M  V30 19 2 19 20
M  V30 20 1 19 21
M  V30 21 2 21 22
M  V30 22 1 22 23
M  V30 23 2 23 24
M  V30 24 1 24 25
M  V30 25 1 25 26
M  V30 26 1 26 27
M  V30 27 2 25 28
M  V30 28 1 18 29
M  V30 29 1 29 30
M  V30 30 2 29 31
M  V30 31 2 10 32
M  V30 32 1 32 5
M  V30 33 1 31 12
M  V30 34 1 31 16
M  V30 35 1 28 21
M  V30 36 1 1 33
M  V30 37 1 1 34
M  V30 38 1 1 35
M  V30 39 1 2 36
M  V30 40 1 6 37
M  V30 41 1 7 38
M  V30 42 1 9 39
M  V30 43 1 9 40
M  V30 44 1 9 41
M  V30 45 1 11 42
M  V30 46 1 14 43
M  V30 47 1 17 44
M  V30 48 1 22 45
M  V30 49 1 23 46
M  V30 50 1 24 47
M  V30 51 1 27 48
M  V30 52 1 27 49
M  V30 53 1 27 50
M  V30 54 1 28 51
M  V30 55 1 30 52
M  V30 56 1 30 53
M  V30 57 1 30 54
M  V30 58 1 32 55
M  V30 END BOND
M  V30 END CTAB
M  END
>  <Dataset>  (800) 
ChEMBL_Kinases

>  <Ligand_Instance>  (800) 
nan

>  <PDB_ID>  (800) 
nan

>  <Standardized_SMILES>  (800) 
CNC(=O)c1ccc(C)c(Nc2ncnn3cc(C(=O)c4cccc(OC)c4)c(C)c23)c1

>  <Name>  (800) 
nan

>  <Pocket>  (800) 
nan

>  <ATP_Site>  (800) 
nan

>  <Peripheral>  (800) 
nan

>  <Num_H_Atoms_ProtBoundConf>  (800) 
nan

>  <Num_Resolved_Atoms>  (800) 
nan

>  <Num_Not_Resolved_Atoms>  (800) 
nan

$$$$
CHEMBL1807457
     RDKit          3D

  0  0  0  0  0  0  0  0  0  0999 V3000
M  V30 BEGIN CTAB
M  V30 COUNTS 55 58 0 0 0
M  V30 BEGIN ATOM
M  V30 1 C 3.018698 -4.169948 3.385240 0
M  V30 2 N 3.348898 -2.964127 2.671674 0
M  V30 3 C 2.503646 -1.829437 2.514817 0
M  V30 4 O 1.434355 -2.118888 3.131884 0
M  V30 5 C 2.962041 -0.671319 1.760468 0
M  V30 6 C 4.220603 -0.567547 1.185728 0
M  V30 7 C 4.466478 0.593955 0.489370 0
M  V30 8 C 3.570284 1.628832 0.332124 0
M  V30 9 C 4.003849 2.809891 -0.453994 0
M  V30 10 C 2.344832 1.451263 0.930408 0
M  V30 11 N 1.382053 2.512635 0.769018 0
M  V30 12 C 0.069790 2.536066 1.330317 0
M  V30 13 N -0.021631 3.363259 2.386886 0
M  V30 14 C -1.195798 3.469507 3.017227 0
M  V30 15 N -2.279422 2.753089 2.597577 0
M  V30 16 N -2.131065 1.951904 1.548835 0
M  V30 17 C -3.030751 1.145932 0.962704 0
M  V30 18 C -2.461364 0.472798 -0.093309 0
M  V30 19 C -2.927793 -0.535726 -1.055769 0
M  V30 20 O -2.646482 -0.478951 -2.285607 0
M  V30 21 C -3.759641 -1.716442 -0.715726 0
M  V30 22 C -4.939198 -1.770336 -0.014131 0
M  V30 23 C -5.561181 -2.983476 0.172445 0
M  V30 24 C -5.062034 -4.176135 -0.312664 0
M  V30 25 C -3.870216 -4.106324 -1.019002 0
M  V30 26 C -3.203268 -2.889355 -1.231533 0
M  V30 27 O -2.036466 -2.953427 -1.944084 0
M  V30 28 C -1.448478 -4.104487 -2.468643 0
M  V30 29 C -1.136032 0.882170 -0.171148 0
M  V30 30 C -0.026871 0.530112 -1.087474 0
M  V30 31 C -0.981601 1.786147 0.854324 0
M  V30 32 C 2.009466 0.328699 1.644563 0
M  V30 33 H 3.737943 -4.413052 4.203470 0
M  V30 34 H 1.975147 -4.228764 3.736655 0
M  V30 35 H 3.130035 -5.032518 2.658605 0
M  V30 36 H 4.329260 -3.042460 2.272138 0
M  V30 37 H 4.919372 -1.369965 1.304719 0
M  V30 38 H 5.458622 0.636870 0.053322 0
M  V30 39 H 3.623940 3.776106 -0.051689 0
M  V30 40 H 3.755788 2.713402 -1.537445 0
M  V30 41 H 5.122539 2.893913 -0.386369 0
M  V30 42 H 1.581617 3.367403 0.212461 0
M  V30 43 H -1.396253 4.099651 3.880277 0
M  V30 44 H -4.065460 0.998911 1.230225 0
M  V30 45 H -5.278109 -0.823996 0.334427 0
M  V30 46 H -6.501940 -2.942038 0.746028 0
M  V30 47 H -5.596503 -5.087546 -0.133458 0
M  V30 48 H -3.543379 -5.093069 -1.370593 0
M  V30 49 H -0.741866 -3.798062 -3.273178 0
M  V30 50 H -0.768427 -4.529714 -1.669101 0
M  V30 51 H -2.130425 -4.880011 -2.821839 0
M  V30 52 H 0.632855 1.390635 -1.323756 0
M  V30 53 H -0.497252 0.280550 -2.084502 0
M  V30 54 H 0.564841 -0.329975 -0.778954 0
M  V30 55 H 1.017039 0.292457 2.073281 0
M  V30 END ATOM
M  V30 BEGIN BOND
M  V30 1 1 1 2
M  V30 2 1 2 3
M  V30 3 2 3 4
M  V30 4 1 3 5
M  V30 5 2 5 6
M  V30 6 1 6 7
M  V30 7 2 7 8
M  V30 8 1 8 9
M  V30 9 1 8 10
M  V30 10 1 10 11
M  V30 11 1 11 12
M  V30 12 2 12 13
M  V30 13 1 13 14
M  V30 14 2 14 15
M  V30 15 1 15 16
M  V30 16 1 16 17
M  V30 17 2 17 18
M  V30 18 1 18 19
M  V30 19 2 19 20
M  V30 20 1 19 21
M  V30 21 2 21 22
M  V30 22 1 22 23
M  V30 23 2 23 24
M  V30 24 1 24 25
M  V30 25 2 25 26
M  V30 26 1 26 27
M  V30 27 1 27 28
M  V30 28 1 18 29
M  V30 29 1 29 30
M  V30 30 2 29 31
M  V30 31 2 10 32
M  V30 32 1 32 5
M  V30 33 1 31 12
M  V30 34 1 31 16
M  V30 35 1 26 21
M  V30 36 1 1 33
M  V30 37 1 1 34
M  V30 38 1 1 35
M  V30 39 1 2 36
M  V30 40 1 6 37
M  V30 41 1 7 38
M  V30 42 1 9 39
M  V30 43 1 9 40
M  V30 44 1 9 41
M  V30 45 1 11 42
M  V30 46 1 14 43
M  V30 47 1 17 44
M  V30 48 1 22 45
M  V30 49 1 23 46
M  V30 50 1 24 47
M  V30 51 1 25 48
M  V30 52 1 28 49
M  V30 53 1 28 50
M  V30 54 1 28 51
M  V30 55 1 30 52
M  V30 56 1 30 53
M  V30 57 1 30 54
M  V30 58 1 32 55
M  V30 END BOND
M  V30 END CTAB
M  END
>  <Dataset>  (801) 
ChEMBL_Kinases

>  <Ligand_Instance>  (801) 
nan

>  <PDB_ID>  (801) 
nan

>  <Standardized_SMILES>  (801) 
CNC(=O)c1ccc(C)c(Nc2ncnn3cc(C(=O)c4ccccc4OC)c(C)c23)c1

>  <Name>  (801) 
nan

>  <Pocket>  (801) 
nan

>  <ATP_Site>  (801) 
nan

>  <Peripheral>  (801) 
nan

>  <Num_H_Atoms_ProtBoundConf>  (801) 
nan

>  <Num_Resolved_Atoms>  (801) 
nan

>  <Num_Not_Resolved_Atoms>  (801) 
nan

$$$$
CHEMBL1807456
     RDKit          3D

  0  0  0  0  0  0  0  0  0  0999 V3000
M  V30 BEGIN CTAB
M  V30 COUNTS 54 57 0 0 0
M  V30 BEGIN ATOM
M  V30 1 C 4.170366 -5.748446 2.595320 0
M  V30 2 N 4.429754 -4.349370 2.919209 0
M  V30 3 C 3.741931 -3.558274 1.948417 0
M  V30 4 O 3.098662 -4.247301 1.081880 0
M  V30 5 C 3.735968 -2.093189 1.898204 0
M  V30 6 C 4.410685 -1.256249 2.770059 0
M  V30 7 C 4.343877 0.114569 2.639520 0
M  V30 8 C 3.606628 0.717360 1.641994 0
M  V30 9 C 3.568948 2.182410 1.549688 0
M  V30 10 C 2.928975 -0.107426 0.767029 0
M  V30 11 N 2.157098 0.489574 -0.231630 0
M  V30 12 C 1.116805 1.385724 -0.505370 0
M  V30 13 N 1.616457 2.551798 -0.970556 0
M  V30 14 C 0.753702 3.533831 -1.283402 0
M  V30 15 N -0.569927 3.375556 -1.142379 0
M  V30 16 N -1.071345 2.247813 -0.690886 0
M  V30 17 C -2.314007 1.776441 -0.429134 0
M  V30 18 C -2.272008 0.473671 0.060377 0
M  V30 19 C -3.353843 -0.375102 0.469900 0
M  V30 20 O -3.129735 -0.933399 1.603448 0
M  V30 21 C -4.634611 -0.787318 -0.032537 0
M  V30 22 C -5.752075 -0.799408 0.815740 0
M  V30 23 C -6.984985 -1.197012 0.339495 0
M  V30 24 C -7.099905 -1.581944 -0.982428 0
M  V30 25 C -6.041477 -1.592221 -1.865465 0
M  V30 26 C -4.802706 -1.182277 -1.347878 0
M  V30 27 C -3.610547 -1.171908 -2.258247 0
M  V30 28 C -0.922632 0.136198 0.096335 0
M  V30 29 C -0.333091 -1.153271 0.540278 0
M  V30 30 C -0.250129 1.242897 -0.367060 0
M  V30 31 C 3.010551 -1.477207 0.915798 0
M  V30 32 H 4.418886 -5.990680 1.545244 0
M  V30 33 H 4.793935 -6.397881 3.253373 0
M  V30 34 H 3.097730 -5.907889 2.823382 0
M  V30 35 H 4.950647 -3.814996 3.625625 0
M  V30 36 H 4.985673 -1.736452 3.550654 0
M  V30 37 H 4.920512 0.655558 3.392223 0
M  V30 38 H 3.931053 2.566165 0.595495 0
M  V30 39 H 4.227347 2.630152 2.330646 0
M  V30 40 H 2.545949 2.517201 1.832785 0
M  V30 41 H 2.521033 0.089665 -1.150082 0
M  V30 42 H 1.015831 4.517516 -1.665667 0
M  V30 43 H -3.213491 2.358604 -0.590197 0
M  V30 44 H -5.561970 -0.475747 1.844224 0
M  V30 45 H -7.776857 -1.175199 1.049969 0
M  V30 46 H -8.113072 -1.884343 -1.278867 0
M  V30 47 H -6.174874 -1.903504 -2.894410 0
M  V30 48 H -2.870515 -1.924506 -1.968428 0
M  V30 49 H -3.167292 -0.164839 -2.371668 0
M  V30 50 H -3.946926 -1.454586 -3.278748 0
M  V30 51 H 0.230926 -1.645918 -0.269115 0
M  V30 52 H 0.217074 -1.045711 1.496444 0
M  V30 53 H -1.173326 -1.839887 0.766964 0
M  V30 54 H 2.485301 -2.112697 0.223135 0
M  V30 END ATOM
M  V30 BEGIN BOND
M  V30 1 1 1 2
M  V30 2 1 2 3
M  V30 3 2 3 4
M  V30 4 1 3 5
M  V30 5 2 5 6
M  V30 6 1 6 7
M  V30 7 2 7 8
M  V30 8 1 8 9
M  V30 9 1 8 10
M  V30 10 1 10 11
M  V30 11 1 11 12
M  V30 12 2 12 13
M  V30 13 1 13 14
M  V30 14 2 14 15
M  V30 15 1 15 16
M  V30 16 1 16 17
M  V30 17 2 17 18
M  V30 18 1 18 19
M  V30 19 2 19 20
M  V30 20 1 19 21
M  V30 21 2 21 22
M  V30 22 1 22 23
M  V30 23 2 23 24
M  V30 24 1 24 25
M  V30 25 2 25 26
M  V30 26 1 26 27
M  V30 27 1 18 28
M  V30 28 1 28 29
M  V30 29 2 28 30
M  V30 30 2 10 31
M  V30 31 1 31 5
M  V30 32 1 30 12
M  V30 33 1 30 16
M  V30 34 1 26 21
M  V30 35 1 1 32
M  V30 36 1 1 33
M  V30 37 1 1 34
M  V30 38 1 2 35
M  V30 39 1 6 36
M  V30 40 1 7 37
M  V30 41 1 9 38
M  V30 42 1 9 39
M  V30 43 1 9 40
M  V30 44 1 11 41
M  V30 45 1 14 42
M  V30 46 1 17 43
M  V30 47 1 22 44
M  V30 48 1 23 45
M  V30 49 1 24 46
M  V30 50 1 25 47
M  V30 51 1 27 48
M  V30 52 1 27 49
M  V30 53 1 27 50
M  V30 54 1 29 51
M  V30 55 1 29 52
M  V30 56 1 29 53
M  V30 57 1 31 54
M  V30 END BOND
M  V30 END CTAB
M  END
>  <Dataset>  (802) 
ChEMBL_Kinases

>  <Ligand_Instance>  (802) 
nan

>  <PDB_ID>  (802) 
nan

>  <Standardized_SMILES>  (802) 
CNC(=O)c1ccc(C)c(Nc2ncnn3cc(C(=O)c4ccccc4C)c(C)c23)c1

>  <Name>  (802) 
nan

>  <Pocket>  (802) 
nan

>  <ATP_Site>  (802) 
nan

>  <Peripheral>  (802) 
nan

>  <Num_H_Atoms_ProtBoundConf>  (802) 
nan

>  <Num_Resolved_Atoms>  (802) 
nan

>  <Num_Not_Resolved_Atoms>  (802) 
nan

$$$$
CHEMBL1807455
     RDKit          3D

  0  0  0  0  0  0  0  0  0  0999 V3000
M  V30 BEGIN CTAB
M  V30 COUNTS 50 53 0 0 0
M  V30 BEGIN ATOM
M  V30 1 C 0.121468 -6.588328 0.245174 0
M  V30 2 C 1.120957 -5.508109 0.239027 0
M  V30 3 C 1.937151 -4.598003 0.243726 0
M  V30 4 C 2.871632 -3.518762 0.246166 0
M  V30 5 O 4.006764 -3.878566 0.698222 0
M  V30 6 C 2.675300 -2.164865 -0.175952 0
M  V30 7 C 3.648547 -1.190812 -0.098138 0
M  V30 8 N 3.163828 -0.025873 -0.548015 0
M  V30 9 N 3.714759 1.169503 -0.655911 0
M  V30 10 C 3.012493 2.208667 -1.137879 0
M  V30 11 N 1.708432 2.136960 -1.548975 0
M  V30 12 C 1.173956 0.886314 -1.423175 0
M  V30 13 N -0.175107 0.785112 -1.826060 0
M  V30 14 C -1.280476 0.732691 -0.908340 0
M  V30 15 C -0.961347 0.740583 0.432011 0
M  V30 16 C -2.007507 0.681279 1.299889 0
M  V30 17 C -1.891047 0.667784 2.760487 0
M  V30 18 O -2.858999 0.571590 3.573106 0
M  V30 19 N -0.628312 0.763741 3.400983 0
M  V30 20 C -0.415794 0.748977 4.836149 0
M  V30 21 C 0.490055 1.883715 5.328864 0
M  V30 22 C 0.897355 0.432842 5.403238 0
M  V30 23 C -3.322969 0.616896 0.824707 0
M  V30 24 C -3.593824 0.612076 -0.522232 0
M  V30 25 C -2.555349 0.671123 -1.424650 0
M  V30 26 C -2.719903 0.675319 -2.923555 0
M  V30 27 C 1.867574 -0.179144 -0.937508 0
M  V30 28 C 1.589069 -1.505520 -0.700117 0
M  V30 29 C 0.285518 -2.108312 -0.989574 0
M  V30 30 H -0.883398 -6.146660 0.446162 0
M  V30 31 H 0.070887 -7.127759 -0.720640 0
M  V30 32 H 0.305138 -7.321716 1.065449 0
M  V30 33 H 4.682635 -1.297839 0.270017 0
M  V30 34 H 3.548813 3.145057 -1.187500 0
M  V30 35 H -0.339212 0.749121 -2.877916 0
M  V30 36 H 0.041340 0.791285 0.829021 0
M  V30 37 H 0.262515 0.854648 2.845227 0
M  V30 38 H -1.305923 0.589897 5.479620 0
M  V30 39 H 0.169301 2.415725 6.253998 0
M  V30 40 H 1.012820 2.513681 4.595902 0
M  V30 41 H 0.947573 0.032927 6.437536 0
M  V30 42 H 1.774230 0.130530 4.783720 0
M  V30 43 H -4.235031 0.566270 1.436209 0
M  V30 44 H -4.589836 0.562589 -0.959867 0
M  V30 45 H -3.813716 0.762157 -3.116471 0
M  V30 46 H -2.257375 -0.200770 -3.388949 0
M  V30 47 H -2.275988 1.614494 -3.349284 0
M  V30 48 H 0.479852 -3.179605 -1.289029 0
M  V30 49 H -0.416299 -2.138034 -0.157056 0
M  V30 50 H -0.151028 -1.676314 -1.938552 0
M  V30 END ATOM
M  V30 BEGIN BOND
M  V30 1 1 1 2
M  V30 2 3 2 3
M  V30 3 1 3 4
M  V30 4 2 4 5
M  V30 5 1 4 6
M  V30 6 2 6 7
M  V30 7 1 7 8
M  V30 8 1 8 9
M  V30 9 2 9 10
M  V30 10 1 10 11
M  V30 11 2 11 12
M  V30 12 1 12 13
M  V30 13 1 13 14
M  V30 14 2 14 15
M  V30 15 1 15 16
M  V30 16 1 16 17
M  V30 17 2 17 18
M  V30 18 1 17 19
M  V30 19 1 19 20
M  V30 20 1 20 21
M  V30 21 1 21 22
M  V30 22 2 16 23
M  V30 23 1 23 24
M  V30 24 2 24 25
M  V30 25 1 25 26
M  V30 26 1 12 27
M  V30 27 2 27 28
M  V30 28 1 28 29
M  V30 29 1 28 6
M  V30 30 1 27 8
M  V30 31 1 25 14
M  V30 32 1 22 20
M  V30 33 1 1 30
M  V30 34 1 1 31
M  V30 35 1 1 32
M  V30 36 1 7 33
M  V30 37 1 10 34
M  V30 38 1 13 35
M  V30 39 1 15 36
M  V30 40 1 19 37
M  V30 41 1 20 38
M  V30 42 1 21 39
M  V30 43 1 21 40
M  V30 44 1 22 41
M  V30 45 1 22 42
M  V30 46 1 23 43
M  V30 47 1 24 44
M  V30 48 1 26 45
M  V30 49 1 26 46
M  V30 50 1 26 47
M  V30 51 1 29 48
M  V30 52 1 29 49
M  V30 53 1 29 50
M  V30 END BOND
M  V30 END CTAB
M  END
>  <Dataset>  (803) 
ChEMBL_Kinases

>  <Ligand_Instance>  (803) 
nan

>  <PDB_ID>  (803) 
nan

>  <Standardized_SMILES>  (803) 
CC#CC(=O)c1cn2ncnc(Nc3cc(C(=O)NC4CC4)ccc3C)c2c1C

>  <Name>  (803) 
nan

>  <Pocket>  (803) 
nan

>  <ATP_Site>  (803) 
nan

>  <Peripheral>  (803) 
nan

>  <Num_H_Atoms_ProtBoundConf>  (803) 
nan

>  <Num_Resolved_Atoms>  (803) 
nan

>  <Num_Not_Resolved_Atoms>  (803) 
nan

$$$$
CHEMBL180570
     RDKit          3D

  0  0  0  0  0  0  0  0  0  0999 V3000
M  V30 BEGIN CTAB
M  V30 COUNTS 15 14 0 0 0
M  V30 BEGIN ATOM
M  V30 1 O -0.726624 -1.495285 0.155739 0
M  V30 2 P 0.750936 -1.148129 0.097117 0
M  V30 3 O 1.521562 -2.007674 1.349060 0
M  V30 4 O 1.432123 -1.698074 -1.346180 0
M  V30 5 C 0.985487 0.646837 0.304993 0
M  V30 6 P 1.512375 0.903665 2.014485 0
M  V30 7 O 2.592636 -0.108851 2.324256 0
M  V30 8 O 2.084041 2.460003 2.292045 0
M  V30 9 O 0.201662 0.603308 3.023668 0
M  V30 10 H 0.953726 -2.003380 2.168905 0
M  V30 11 H 1.686671 -0.953809 -1.955842 0
M  V30 12 H 0.029142 1.184474 0.086958 0
M  V30 13 H 1.738197 1.038263 -0.425204 0
M  V30 14 H 2.035464 2.597604 3.280236 0
M  V30 15 H -0.506638 1.279888 2.839084 0
M  V30 END ATOM
M  V30 BEGIN BOND
M  V30 1 2 1 2
M  V30 2 1 2 3
M  V30 3 1 2 4
M  V30 4 1 2 5
M  V30 5 1 5 6
M  V30 6 2 6 7
M  V30 7 1 6 8
M  V30 8 1 6 9
M  V30 9 1 3 10
M  V30 10 1 4 11
M  V30 11 1 5 12
M  V30 12 1 5 13
M  V30 13 1 8 14
M  V30 14 1 9 15
M  V30 END BOND
M  V30 END CTAB
M  END
>  <Dataset>  (804) 
ChEMBL_Kinases

>  <Ligand_Instance>  (804) 
nan

>  <PDB_ID>  (804) 
nan

>  <Standardized_SMILES>  (804) 
O=P(O)(O)CP(=O)(O)O

>  <Name>  (804) 
MEDRONIC ACID

>  <Pocket>  (804) 
nan

>  <ATP_Site>  (804) 
nan

>  <Peripheral>  (804) 
nan

>  <Num_H_Atoms_ProtBoundConf>  (804) 
nan

>  <Num_Resolved_Atoms>  (804) 
nan

>  <Num_Not_Resolved_Atoms>  (804) 
nan

$$$$
CHEMBL180593
     RDKit          3D

  0  0  0  0  0  0  0  0  0  0999 V3000
M  V30 BEGIN CTAB
M  V30 COUNTS 49 52 0 0 0
M  V30 BEGIN ATOM
M  V30 1 C -0.305945 -5.178551 -0.018533 0
M  V30 2 O 0.882356 -4.488077 -0.042889 0
M  V30 3 C 1.772133 -4.869594 0.966263 0
M  V30 4 C 3.026953 -3.982864 0.786085 0
M  V30 5 O 2.666727 -2.631964 0.913175 0
M  V30 6 C 3.500678 -1.539286 0.823555 0
M  V30 7 C 4.837430 -1.299395 0.597448 0
M  V30 8 N 5.316178 -0.054772 0.579461 0
M  V30 9 N 4.560987 1.014812 0.772622 0
M  V30 10 N 4.933651 2.289988 0.778846 0
M  V30 11 C 3.848106 3.068085 1.019921 0
M  V30 12 C 2.778023 2.181734 1.161790 0
M  V30 13 C 1.388790 2.519630 1.453594 0
M  V30 14 C 1.063656 3.835879 1.688962 0
M  V30 15 C -0.255850 4.113494 1.987430 0
M  V30 16 N -1.241815 3.183531 2.062418 0
M  V30 17 C -0.887367 1.901538 1.825054 0
M  V30 18 N -1.646606 0.678919 1.833911 0
M  V30 19 C -2.590690 0.511245 0.784916 0
M  V30 20 C -2.748688 1.530071 -0.139522 0
M  V30 21 C -3.687437 1.382664 -1.170663 0
M  V30 22 C -4.450882 0.230046 -1.266093 0
M  V30 23 C -4.268681 -0.782907 -0.317247 0
M  V30 24 O -5.116766 -1.850083 -0.577102 0
M  V30 25 C -5.070999 -2.970066 0.280409 0
M  V30 26 C -3.362334 -0.643129 0.678935 0
M  V30 27 N 0.393403 1.625038 1.534406 0
M  V30 28 C 3.227545 0.885952 1.005254 0
M  V30 29 C 2.692781 -0.406774 1.030277 0
M  V30 30 H -0.804583 -4.996385 0.975970 0
M  V30 31 H -1.032980 -4.774193 -0.782115 0
M  V30 32 H -0.222500 -6.271467 -0.162771 0
M  V30 33 H 1.351725 -4.689376 1.967655 0
M  V30 34 H 2.070096 -5.913483 0.875154 0
M  V30 35 H 3.386115 -4.239342 -0.252410 0
M  V30 36 H 3.758915 -4.276748 1.565833 0
M  V30 37 H 5.319269 -2.258360 0.460174 0
M  V30 38 H 3.807575 4.156360 1.089838 0
M  V30 39 H 1.790626 4.621786 1.646196 0
M  V30 40 H -0.624769 5.130119 2.192370 0
M  V30 41 H -1.561130 -0.106189 2.551443 0
M  V30 42 H -2.171400 2.426394 -0.085740 0
M  V30 43 H -3.810673 2.183455 -1.897435 0
M  V30 44 H -5.159753 0.208408 -2.108537 0
M  V30 45 H -4.145903 -3.550303 0.057885 0
M  V30 46 H -5.986897 -3.592266 0.189986 0
M  V30 47 H -4.971731 -2.620641 1.332540 0
M  V30 48 H -3.272230 -1.455296 1.370820 0
M  V30 49 H 1.617792 -0.345089 1.226063 0
M  V30 END ATOM
M  V30 BEGIN BOND
M  V30 1 1 1 2
M  V30 2 1 2 3
M  V30 3 1 3 4
M  V30 4 1 4 5
M  V30 5 1 5 6
M  V30 6 1 6 7
M  V30 7 2 7 8
M  V30 8 1 8 9
M  V30 9 1 9 10
M  V30 10 2 10 11
M  V30 11 1 11 12
M  V30 12 1 12 13
M  V30 13 2 13 14
M  V30 14 1 14 15
M  V30 15 2 15 16
M  V30 16 1 16 17
M  V30 17 1 17 18
M  V30 18 1 18 19
M  V30 19 2 19 20
M  V30 20 1 20 21
M  V30 21 2 21 22
M  V30 22 1 22 23
M  V30 23 1 23 24
M  V30 24 1 24 25
M  V30 25 2 23 26
M  V30 26 2 17 27
M  V30 27 2 12 28
M  V30 28 1 28 29
M  V30 29 2 29 6
M  V30 30 1 28 9
M  V30 31 1 27 13
M  V30 32 1 26 19
M  V30 33 1 1 30
M  V30 34 1 1 31
M  V30 35 1 1 32
M  V30 36 1 3 33
M  V30 37 1 3 34
M  V30 38 1 4 35
M  V30 39 1 4 36
M  V30 40 1 7 37
M  V30 41 1 11 38
M  V30 42 1 14 39
M  V30 43 1 15 40
M  V30 44 1 18 41
M  V30 45 1 20 42
M  V30 46 1 21 43
M  V30 47 1 22 44
M  V30 48 1 25 45
M  V30 49 1 25 46
M  V30 50 1 25 47
M  V30 51 1 26 48
M  V30 52 1 29 49
M  V30 END BOND
M  V30 END CTAB
M  END
>  <Dataset>  (805) 
ChEMBL_Kinases

>  <Ligand_Instance>  (805) 
nan

>  <PDB_ID>  (805) 
nan

>  <Standardized_SMILES>  (805) 
COCCOc1cnn2ncc(-c3ccnc(Nc4cccc(OC)c4)n3)c2c1

>  <Name>  (805) 
nan

>  <Pocket>  (805) 
nan

>  <ATP_Site>  (805) 
nan

>  <Peripheral>  (805) 
nan

>  <Num_H_Atoms_ProtBoundConf>  (805) 
nan

>  <Num_Resolved_Atoms>  (805) 
nan

>  <Num_Not_Resolved_Atoms>  (805) 
nan

$$$$
CHEMBL180714
     RDKit          3D

  0  0  0  0  0  0  0  0  0  0999 V3000
M  V30 BEGIN CTAB
M  V30 COUNTS 78 81 0 0 0
M  V30 BEGIN ATOM
M  V30 1 C 2.098817 -1.669918 4.255428 0
M  V30 2 C 3.145094 -2.384002 3.387160 0
M  V30 3 N 2.424231 -3.378908 2.554228 0
M  V30 4 C 1.975424 -4.316717 3.569799 0
M  V30 5 C 1.177707 -5.474157 3.110772 0
M  V30 6 C 3.297844 -3.971417 1.595869 0 CFG=1
M  V30 7 C 2.585203 -4.879300 0.591873 0
M  V30 8 C 2.757922 -4.276495 -0.820197 0
M  V30 9 C 2.383364 -2.798937 -0.596160 0 CFG=2
M  V30 10 N 1.826295 -2.216924 -1.769854 0
M  V30 11 C 1.243111 -0.927976 -1.912410 0
M  V30 12 C 1.111519 -0.033870 -0.871645 0
M  V30 13 C 0.542704 1.214126 -1.016541 0
M  V30 14 N 0.422949 2.125454 0.096275 0
M  V30 15 C -0.737689 1.959131 0.920621 0
M  V30 16 C -1.051591 2.786878 1.959926 0
M  V30 17 C -2.164714 2.624594 2.761072 0
M  V30 18 C -3.027869 1.574713 2.521859 0
M  V30 19 S -4.484631 1.208125 3.421548 0
M  V30 20 O -4.331862 1.743767 4.821030 0
M  V30 21 O -4.714958 -0.268616 3.505246 0
M  V30 22 N -5.865995 1.962251 2.698377 0
M  V30 23 C -6.008468 1.421020 1.349290 0
M  V30 24 C -5.702170 3.402447 2.648442 0
M  V30 25 C -2.762292 0.713285 1.492400 0
M  V30 26 C -1.639740 0.917803 0.722642 0
M  V30 27 N 0.099172 1.563766 -2.234568 0
M  V30 28 N -0.474337 2.691986 -2.614395 0
M  V30 29 C -0.750207 2.600177 -3.925115 0
M  V30 30 C -0.324665 1.361443 -4.356802 0
M  V30 31 C -0.452975 0.884233 -5.736074 0
M  V30 32 C -1.802278 0.180234 -5.902612 0
M  V30 33 C -0.341866 1.979725 -6.750535 0
M  V30 34 C 0.215274 0.716171 -3.258105 0
M  V30 35 N 0.770983 -0.488514 -3.090394 0
M  V30 36 C 3.689487 -2.187705 -0.135150 0
M  V30 37 C 4.276371 -3.088383 0.910451 0
M  V30 38 H 2.535807 -0.656345 4.499180 0
M  V30 39 H 2.049984 -2.158276 5.273458 0
M  V30 40 H 1.133655 -1.560660 3.767573 0
M  V30 41 H 3.813772 -2.902051 4.094725 0
M  V30 42 H 3.596888 -1.587028 2.789097 0
M  V30 43 H 2.793350 -4.638003 4.217103 0
M  V30 44 H 1.284026 -3.714354 4.232075 0
M  V30 45 H 0.175683 -5.184811 2.670232 0
M  V30 46 H 1.693928 -6.265718 2.571329 0
M  V30 47 H 0.839487 -5.986216 4.073041 0
M  V30 48 H 3.927857 -4.707032 2.187754 0
M  V30 49 H 1.485968 -4.758973 0.749992 0
M  V30 50 H 2.952476 -5.897189 0.565446 0
M  V30 51 H 2.058561 -4.783523 -1.507001 0
M  V30 52 H 3.823463 -4.405689 -1.069862 0
M  V30 53 H 1.663942 -2.691062 0.240713 0
M  V30 54 H 1.846499 -2.814913 -2.648926 0
M  V30 55 H 1.452418 -0.287522 0.118348 0
M  V30 56 H 1.070939 2.891173 0.380489 0
M  V30 57 H -0.393482 3.636971 2.188186 0
M  V30 58 H -2.426109 3.271376 3.586376 0
M  V30 59 H -5.197160 1.813820 0.715479 0
M  V30 60 H -7.020765 1.580838 0.952428 0
M  V30 61 H -5.859468 0.310370 1.406258 0
M  V30 62 H -4.612652 3.602477 2.554964 0
M  V30 63 H -6.173228 3.764587 1.696667 0
M  V30 64 H -6.137182 3.912584 3.516746 0
M  V30 65 H -3.388461 -0.140968 1.232161 0
M  V30 66 H -1.424366 0.228541 -0.104240 0
M  V30 67 H -1.223894 3.436467 -4.407122 0
M  V30 68 H 0.304393 0.102607 -6.002061 0
M  V30 69 H -2.192438 -0.044552 -4.893453 0
M  V30 70 H -2.549669 0.903135 -6.342942 0
M  V30 71 H -1.732889 -0.744121 -6.491510 0
M  V30 72 H -1.089880 1.793298 -7.573742 0
M  V30 73 H 0.675373 1.986480 -7.179575 0
M  V30 74 H -0.552759 2.947657 -6.258142 0
M  V30 75 H 3.655202 -1.135146 0.118155 0
M  V30 76 H 4.368185 -2.243491 -1.037890 0
M  V30 77 H 4.866674 -2.500954 1.602241 0
M  V30 78 H 5.035561 -3.793742 0.434414 0
M  V30 END ATOM
M  V30 BEGIN BOND
M  V30 1 1 1 2
M  V30 2 1 2 3
M  V30 3 1 3 4
M  V30 4 1 4 5
M  V30 5 1 3 6
M  V30 6 1 6 7
M  V30 7 1 7 8
M  V30 8 1 8 9
M  V30 9 1 9 10
M  V30 10 1 10 11
M  V30 11 1 11 12
M  V30 12 2 12 13
M  V30 13 1 13 14
M  V30 14 1 14 15
M  V30 15 2 15 16
M  V30 16 1 16 17
M  V30 17 2 17 18
M  V30 18 1 18 19
M  V30 19 2 19 20
M  V30 20 2 19 21
M  V30 21 1 19 22
M  V30 22 1 22 23
M  V30 23 1 22 24
M  V30 24 1 18 25
M  V30 25 2 25 26
M  V30 26 1 13 27
M  V30 27 1 27 28
M  V30 28 2 28 29
M  V30 29 1 29 30
M  V30 30 1 30 31
M  V30 31 1 31 32
M  V30 32 1 31 33
M  V30 33 2 30 34
M  V30 34 1 34 35
M  V30 35 1 9 36
M  V30 36 1 36 37
M  V30 37 1 37 6
M  V30 38 2 35 11
M  V30 39 1 26 15
M  V30 40 1 34 27
M  V30 41 1 1 38
M  V30 42 1 1 39
M  V30 43 1 1 40
M  V30 44 1 2 41
M  V30 45 1 2 42
M  V30 46 1 4 43
M  V30 47 1 4 44
M  V30 48 1 5 45
M  V30 49 1 5 46
M  V30 50 1 5 47
M  V30 51 1 6 48 CFG=1
M  V30 52 1 7 49
M  V30 53 1 7 50
M  V30 54 1 8 51
M  V30 55 1 8 52
M  V30 56 1 9 53 CFG=1
M  V30 57 1 10 54
M  V30 58 1 12 55
M  V30 59 1 14 56
M  V30 60 1 16 57
M  V30 61 1 17 58
M  V30 62 1 23 59
M  V30 63 1 23 60
M  V30 64 1 23 61
M  V30 65 1 24 62
M  V30 66 1 24 63
M  V30 67 1 24 64
M  V30 68 1 25 65
M  V30 69 1 26 66
M  V30 70 1 29 67
M  V30 71 1 31 68
M  V30 72 1 32 69
M  V30 73 1 32 70
M  V30 74 1 32 71
M  V30 75 1 33 72
M  V30 76 1 33 73
M  V30 77 1 33 74
M  V30 78 1 36 75
M  V30 79 1 36 76
M  V30 80 1 37 77
M  V30 81 1 37 78
M  V30 END BOND
M  V30 END CTAB
M  END
>  <Dataset>  (806) 
ChEMBL_Kinases

>  <Ligand_Instance>  (806) 
nan

>  <PDB_ID>  (806) 
nan

>  <Standardized_SMILES>  (806) 
CCN(CC)[C@H]1CC[C@H](Nc2cc(Nc3ccc(S(=O)(=O)N(C)C)cc3)n3ncc(C(C)C)c3n2)CC1

>  <Name>  (806) 
nan

>  <Pocket>  (806) 
nan

>  <ATP_Site>  (806) 
nan

>  <Peripheral>  (806) 
nan

>  <Num_H_Atoms_ProtBoundConf>  (806) 
nan

>  <Num_Resolved_Atoms>  (806) 
nan

>  <Num_Not_Resolved_Atoms>  (806) 
nan

$$$$
CHEMBL1807392
     RDKit          3D

  0  0  0  0  0  0  0  0  0  0999 V3000
M  V30 BEGIN CTAB
M  V30 COUNTS 65 69 0 0 0
M  V30 BEGIN ATOM
M  V30 1 C 3.848014 2.193239 6.976092 0
M  V30 2 N 4.969258 3.046592 6.539186 0
M  V30 3 C 5.807905 2.225493 5.748053 0
M  V30 4 C 5.703514 2.345328 4.262504 0
M  V30 5 N 4.672548 3.276229 3.822057 0
M  V30 6 C 3.677282 3.024883 2.833586 0
M  V30 7 C 3.880708 1.966416 1.982612 0
M  V30 8 C 2.999459 1.620483 1.013414 0
M  V30 9 C 1.877680 2.360590 0.895226 0
M  V30 10 C 0.781067 2.222550 0.000070 0
M  V30 11 O 1.019354 1.079277 -0.603831 0
M  V30 12 N -0.388354 2.468152 -0.684217 0
M  V30 13 C -0.824211 1.517521 -1.651586 0
M  V30 14 C -1.599537 0.402752 -1.415783 0
M  V30 15 C -1.717758 -0.138543 -2.672253 0
M  V30 16 C -2.455028 -1.363702 -2.996626 0
M  V30 17 C -2.516702 -1.828208 -4.319837 0
M  V30 18 C -3.200697 -2.987784 -4.647745 0
M  V30 19 C -3.817431 -3.663048 -3.622367 0
M  V30 20 C -3.805755 -3.276161 -2.306382 0
M  V30 21 N -4.448281 -3.990124 -1.281601 0
M  V30 22 S -4.514527 -5.666117 -0.880110 0
M  V30 23 O -3.123914 -6.206588 -0.652407 0
M  V30 24 O -5.301234 -5.848844 0.380547 0
M  V30 25 C -5.241633 -6.610268 -2.178803 0
M  V30 26 C -6.643608 -6.655101 -2.276931 0
M  V30 27 C -7.203449 -7.400216 -3.274554 0
M  V30 28 C -6.448274 -8.098985 -4.170885 0
M  V30 29 C -5.078700 -8.091301 -4.119639 0
M  V30 30 C -4.485022 -7.326374 -3.098957 0
M  V30 31 C -3.101182 -2.101492 -2.030649 0
M  V30 32 N -1.056757 0.610335 -3.581052 0
M  V30 33 N -0.488186 1.652200 -2.971130 0
M  V30 34 C 1.627591 3.450262 1.743675 0
M  V30 35 C 2.541654 3.814637 2.753149 0
M  V30 36 C 4.838202 4.524865 4.554463 0
M  V30 37 C 4.407367 4.211336 5.966079 0
M  V30 38 H 3.173817 2.077854 6.083256 0
M  V30 39 H 4.214045 1.195957 7.234339 0
M  V30 40 H 3.286335 2.621570 7.820510 0
M  V30 41 H 5.724934 1.136524 6.049244 0
M  V30 42 H 6.878885 2.480812 6.016537 0
M  V30 43 H 6.654858 2.697046 3.814320 0
M  V30 44 H 5.534155 1.333620 3.829727 0
M  V30 45 H 4.766229 1.302259 1.992385 0
M  V30 46 H 3.142716 0.799588 0.331326 0
M  V30 47 H -0.593769 3.410434 -0.216002 0
M  V30 48 H -1.987469 0.082450 -0.465951 0
M  V30 49 H -1.996799 -1.229024 -5.074889 0
M  V30 50 H -3.180945 -3.255457 -5.695167 0
M  V30 51 H -4.343369 -4.561984 -3.909550 0
M  V30 52 H -4.976660 -3.314997 -0.679660 0
M  V30 53 H -7.243841 -6.083236 -1.546734 0
M  V30 54 H -8.304892 -7.361022 -3.258274 0
M  V30 55 H -7.014346 -8.658455 -4.921423 0
M  V30 56 H -4.482056 -8.643088 -4.828608 0
M  V30 57 H -3.407483 -7.318865 -3.059783 0
M  V30 58 H -3.019713 -1.708763 -1.052180 0
M  V30 59 H 0.090626 2.415162 -3.381644 0
M  V30 60 H 0.768088 4.131286 1.765696 0
M  V30 61 H 2.405446 4.639761 3.434863 0
M  V30 62 H 4.175939 5.326929 4.161608 0
M  V30 63 H 5.905479 4.850597 4.579438 0
M  V30 64 H 3.279015 4.190847 5.926146 0
M  V30 65 H 4.678350 5.074112 6.621891 0
M  V30 END ATOM
M  V30 BEGIN BOND
M  V30 1 1 1 2
M  V30 2 1 2 3
M  V30 3 1 3 4
M  V30 4 1 4 5
M  V30 5 1 5 6
M  V30 6 2 6 7
M  V30 7 1 7 8
M  V30 8 2 8 9
M  V30 9 1 9 10
M  V30 10 2 10 11
M  V30 11 1 10 12
M  V30 12 1 12 13
M  V30 13 2 13 14
M  V30 14 1 14 15
M  V30 15 1 15 16
M  V30 16 2 16 17
M  V30 17 1 17 18
M  V30 18 2 18 19
M  V30 19 1 19 20
M  V30 20 1 20 21
M  V30 21 1 21 22
M  V30 22 2 22 23
M  V30 23 2 22 24
M  V30 24 1 22 25
M  V30 25 2 25 26
M  V30 26 1 26 27
M  V30 27 2 27 28
M  V30 28 1 28 29
M  V30 29 2 29 30
M  V30 30 2 20 31
M  V30 31 2 15 32
M  V30 32 1 32 33
M  V30 33 1 9 34
M  V30 34 2 34 35
M  V30 35 1 5 36
M  V30 36 1 36 37
M  V30 37 1 37 2
M  V30 38 1 35 6
M  V30 39 1 33 13
M  V30 40 1 31 16
M  V30 41 1 30 25
M  V30 42 1 1 38
M  V30 43 1 1 39
M  V30 44 1 1 40
M  V30 45 1 3 41
M  V30 46 1 3 42
M  V30 47 1 4 43
M  V30 48 1 4 44
M  V30 49 1 7 45
M  V30 50 1 8 46
M  V30 51 1 12 47
M  V30 52 1 14 48
M  V30 53 1 17 49
M  V30 54 1 18 50
M  V30 55 1 19 51
M  V30 56 1 21 52
M  V30 57 1 26 53
M  V30 58 1 27 54
M  V30 59 1 28 55
M  V30 60 1 29 56
M  V30 61 1 30 57
M  V30 62 1 31 58
M  V30 63 1 33 59
M  V30 64 1 34 60
M  V30 65 1 35 61
M  V30 66 1 36 62
M  V30 67 1 36 63
M  V30 68 1 37 64
M  V30 69 1 37 65
M  V30 END BOND
M  V30 END CTAB
M  END
>  <Dataset>  (807) 
ChEMBL_Kinases

>  <Ligand_Instance>  (807) 
nan

>  <PDB_ID>  (807) 
nan

>  <Standardized_SMILES>  (807) 
CN1CCN(c2ccc(C(=O)Nc3cc(-c4cccc(NS(=O)(=O)c5ccccc5)c4)n[nH]3)cc2)CC1

>  <Name>  (807) 
nan

>  <Pocket>  (807) 
nan

>  <ATP_Site>  (807) 
nan

>  <Peripheral>  (807) 
nan

>  <Num_H_Atoms_ProtBoundConf>  (807) 
nan

>  <Num_Resolved_Atoms>  (807) 
nan

>  <Num_Not_Resolved_Atoms>  (807) 
nan

$$$$
CHEMBL1807439
     RDKit          3D

  0  0  0  0  0  0  0  0  0  0999 V3000
M  V30 BEGIN CTAB
M  V30 COUNTS 55 58 0 0 0
M  V30 BEGIN ATOM
M  V30 1 C 1.083297 -2.826165 4.346274 0
M  V30 2 C 2.514420 -2.443147 4.693865 0
M  V30 3 O 2.703347 -1.118635 4.214472 0
M  V30 4 C 2.549529 -0.847408 2.874956 0
M  V30 5 O 2.242200 -1.710312 2.002649 0
M  V30 6 N 2.745836 0.496513 2.416777 0
M  V30 7 C 2.619011 0.935287 1.048189 0
M  V30 8 C 3.644712 0.956855 0.127802 0
M  V30 9 C 3.408095 1.397333 -1.156258 0
M  V30 10 C 2.160332 1.818885 -1.540997 0
M  V30 11 C 1.921931 2.292664 -2.936613 0
M  V30 12 C 1.082437 1.825211 -0.671201 0
M  V30 13 N -0.231651 2.255891 -1.021844 0
M  V30 14 C -1.198157 2.184555 0.031964 0
M  V30 15 N -1.225263 3.318598 0.752976 0
M  V30 16 C -2.097904 3.392655 1.793935 0
M  V30 17 N -2.888920 2.347070 2.061209 0
M  V30 18 N -2.859872 1.235959 1.351632 0
M  V30 19 C -3.534249 0.065742 1.408305 0
M  V30 20 C -3.096161 -0.775536 0.395187 0
M  V30 21 C -3.502012 -2.131215 0.024771 0
M  V30 22 O -4.744726 -2.293638 0.020032 0
M  V30 23 C -2.618724 -3.221721 -0.314115 0
M  V30 24 C -3.165745 -4.199082 -1.126310 0
M  V30 25 C -2.358825 -5.269186 -1.486079 0
M  V30 26 C -1.053161 -5.365832 -1.054346 0
M  V30 27 C -0.484905 -4.404648 -0.244396 0
M  V30 28 C -1.310103 -3.354407 0.096200 0
M  V30 29 C -2.104577 -0.101743 -0.325836 0
M  V30 30 C -1.307992 -0.539901 -1.501327 0
M  V30 31 C -2.019861 1.115185 0.319090 0
M  V30 32 C 1.367931 1.375167 0.604992 0
M  V30 33 H 1.031985 -3.224776 3.312671 0
M  V30 34 H 0.468323 -1.905927 4.386666 0
M  V30 35 H 0.645067 -3.547806 5.062418 0
M  V30 36 H 3.214880 -3.138374 4.188219 0
M  V30 37 H 2.606118 -2.474787 5.802746 0
M  V30 38 H 3.006236 1.249864 3.121720 0
M  V30 39 H 4.611655 0.615591 0.476091 0
M  V30 40 H 4.207506 1.414527 -1.874972 0
M  V30 41 H 2.809448 2.152001 -3.574967 0
M  V30 42 H 1.620172 3.366449 -2.960269 0
M  V30 43 H 1.070532 1.694790 -3.351837 0
M  V30 44 H -0.384705 2.581482 -1.992794 0
M  V30 45 H -2.193341 4.264273 2.433093 0
M  V30 46 H -4.296980 -0.207249 2.112516 0
M  V30 47 H -4.178931 -4.167697 -1.488520 0
M  V30 48 H -2.813025 -6.033679 -2.131369 0
M  V30 49 H -0.464228 -6.219595 -1.362027 0
M  V30 50 H 0.540145 -4.454053 0.109984 0
M  V30 51 H -0.923714 -2.569324 0.728603 0
M  V30 52 H -1.864503 -1.389403 -1.968623 0
M  V30 53 H -1.248115 0.240170 -2.273764 0
M  V30 54 H -0.324786 -0.948131 -1.209530 0
M  V30 55 H 0.565068 1.349722 1.355236 0
M  V30 END ATOM
M  V30 BEGIN BOND
M  V30 1 1 1 2
M  V30 2 1 2 3
M  V30 3 1 3 4
M  V30 4 2 4 5
M  V30 5 1 4 6
M  V30 6 1 6 7
M  V30 7 2 7 8
M  V30 8 1 8 9
M  V30 9 2 9 10
M  V30 10 1 10 11
M  V30 11 1 10 12
M  V30 12 1 12 13
M  V30 13 1 13 14
M  V30 14 2 14 15
M  V30 15 1 15 16
M  V30 16 2 16 17
M  V30 17 1 17 18
M  V30 18 1 18 19
M  V30 19 2 19 20
M  V30 20 1 20 21
M  V30 21 2 21 22
M  V30 22 1 21 23
M  V30 23 2 23 24
M  V30 24 1 24 25
M  V30 25 2 25 26
M  V30 26 1 26 27
M  V30 27 2 27 28
M  V30 28 1 20 29
M  V30 29 1 29 30
M  V30 30 2 29 31
M  V30 31 2 12 32
M  V30 32 1 32 7
M  V30 33 1 31 14
M  V30 34 1 31 18
M  V30 35 1 28 23
M  V30 36 1 1 33
M  V30 37 1 1 34
M  V30 38 1 1 35
M  V30 39 1 2 36
M  V30 40 1 2 37
M  V30 41 1 6 38
M  V30 42 1 8 39
M  V30 43 1 9 40
M  V30 44 1 11 41
M  V30 45 1 11 42
M  V30 46 1 11 43
M  V30 47 1 13 44
M  V30 48 1 16 45
M  V30 49 1 19 46
M  V30 50 1 24 47
M  V30 51 1 25 48
M  V30 52 1 26 49
M  V30 53 1 27 50
M  V30 54 1 28 51
M  V30 55 1 30 52
M  V30 56 1 30 53
M  V30 57 1 30 54
M  V30 58 1 32 55
M  V30 END BOND
M  V30 END CTAB
M  END
>  <Dataset>  (808) 
ChEMBL_Kinases

>  <Ligand_Instance>  (808) 
nan

>  <PDB_ID>  (808) 
nan

>  <Standardized_SMILES>  (808) 
CCOC(=O)Nc1ccc(C)c(Nc2ncnn3cc(C(=O)c4ccccc4)c(C)c23)c1

>  <Name>  (808) 
nan

>  <Pocket>  (808) 
nan

>  <ATP_Site>  (808) 
nan

>  <Peripheral>  (808) 
nan

>  <Num_H_Atoms_ProtBoundConf>  (808) 
nan

>  <Num_Resolved_Atoms>  (808) 
nan

>  <Num_Not_Resolved_Atoms>  (808) 
nan

$$$$
CHEMBL1807440
     RDKit          3D

  0  0  0  0  0  0  0  0  0  0999 V3000
M  V30 BEGIN CTAB
M  V30 COUNTS 71 76 0 0 0
M  V30 BEGIN ATOM
M  V30 1 C -3.257787 -4.938768 2.720985 0
M  V30 2 C -2.323063 -4.466044 1.686520 0
M  V30 3 C -1.843902 -5.436150 0.775628 0
M  V30 4 C -0.987088 -4.903168 -0.154695 0
M  V30 5 C -0.553559 -3.626680 -0.315779 0
M  V30 6 N 0.337861 -3.207877 -1.331511 0
M  V30 7 C 1.709001 -3.104451 -1.582083 0
M  V30 8 O 2.536728 -3.466943 -0.710608 0
M  V30 9 C 2.171054 -2.575149 -2.854158 0
M  V30 10 C 3.541620 -2.517925 -2.994260 0
M  V30 11 C 4.156871 -2.033152 -4.156395 0
M  V30 12 F 5.510904 -1.993497 -4.242671 0
M  V30 13 C 3.334989 -1.595907 -5.203531 0
M  V30 14 C 1.967485 -1.653013 -5.063462 0
M  V30 15 N 1.165158 -1.193356 -6.138666 0
M  V30 16 C 1.603858 -0.448669 -7.272822 0
M  V30 17 C 0.916518 0.899371 -7.383514 0
M  V30 18 O -0.217578 0.951758 -6.569401 0
M  V30 19 C -0.963920 -0.179829 -6.868830 0
M  V30 20 C -0.258916 -1.381078 -6.324529 0
M  V30 21 C 1.405465 -2.135547 -3.904477 0
M  V30 22 C -1.066506 -2.738227 0.612691 0
M  V30 23 C -1.937063 -3.120184 1.606998 0
M  V30 24 N -2.446231 -2.170951 2.534428 0
M  V30 25 C -2.567392 -1.764073 3.869277 0
M  V30 26 N -3.067722 -2.666275 4.717144 0
M  V30 27 C -3.236902 -2.360355 6.000249 0
M  V30 28 N -2.896951 -1.137807 6.424158 0
M  V30 29 N -2.402093 -0.244594 5.594686 0
M  V30 30 C -2.030361 0.988298 5.895647 0
M  V30 31 C -1.567133 1.608165 4.743915 0
M  V30 32 C -1.070758 2.942308 4.546660 0
M  V30 33 O -1.631195 3.465234 3.524447 0
M  V30 34 C -0.105295 3.750874 5.256158 0
M  V30 35 C 0.361902 3.612464 6.535437 0
M  V30 36 C 1.278951 4.346949 7.235024 0
M  V30 37 C 1.795457 5.385479 6.504265 0
M  V30 38 C 1.416357 5.654218 5.187029 0
M  V30 39 C 0.465568 4.834894 4.565648 0
M  V30 40 C -1.698902 0.631425 3.750924 0
M  V30 41 C -1.352358 0.712941 2.314226 0
M  V30 42 C -2.217250 -0.514100 4.291899 0
M  V30 43 H -2.772940 -5.182315 3.684648 0
M  V30 44 H -3.657888 -5.944300 2.375565 0
M  V30 45 H -4.179081 -4.325576 2.811170 0
M  V30 46 H -2.130857 -6.473291 0.821151 0
M  V30 47 H -0.605606 -5.647766 -0.872172 0
M  V30 48 H -0.401230 -2.931659 -2.010512 0
M  V30 49 H 4.251232 -2.841840 -2.214836 0
M  V30 50 H 3.898153 -1.244972 -6.051167 0
M  V30 51 H 2.700874 -0.205147 -7.270338 0
M  V30 52 H 1.397471 -1.021906 -8.193908 0
M  V30 53 H 1.573472 1.732792 -7.059599 0
M  V30 54 H 0.592648 1.133684 -8.418159 0
M  V30 55 H -1.192456 -0.258181 -7.952793 0
M  V30 56 H -1.936452 -0.053083 -6.350541 0
M  V30 57 H -0.402463 -2.231509 -7.039579 0
M  V30 58 H -0.765163 -1.690094 -5.366308 0
M  V30 59 H 0.337720 -2.195151 -3.752904 0
M  V30 60 H -0.713531 -1.713172 0.466689 0
M  V30 61 H -2.957916 -1.502837 1.951361 0
M  V30 62 H -3.649812 -3.098312 6.678688 0
M  V30 63 H -2.062267 1.481799 6.871718 0
M  V30 64 H -0.077769 2.767121 7.082674 0
M  V30 65 H 1.541265 4.106063 8.249821 0
M  V30 66 H 2.543781 6.013665 7.015864 0
M  V30 67 H 1.853564 6.493181 4.636362 0
M  V30 68 H 0.227756 5.108077 3.554208 0
M  V30 69 H -0.940209 1.755194 2.149842 0
M  V30 70 H -0.598013 -0.039425 2.024669 0
M  V30 71 H -2.212830 0.668919 1.625334 0
M  V30 END ATOM
M  V30 BEGIN BOND
M  V30 1 1 1 2
M  V30 2 2 2 3
M  V30 3 1 3 4
M  V30 4 2 4 5
M  V30 5 1 5 6
M  V30 6 1 6 7
M  V30 7 2 7 8
M  V30 8 1 7 9
M  V30 9 2 9 10
M  V30 10 1 10 11
M  V30 11 1 11 12
M  V30 12 2 11 13
M  V30 13 1 13 14
M  V30 14 1 14 15
M  V30 15 1 15 16
M  V30 16 1 16 17
M  V30 17 1 17 18
M  V30 18 1 18 19
M  V30 19 1 19 20
M  V30 20 2 14 21
M  V30 21 1 5 22
M  V30 22 2 22 23
M  V30 23 1 23 24
M  V30 24 1 24 25
M  V30 25 2 25 26
M  V30 26 1 26 27
M  V30 27 2 27 28
M  V30 28 1 28 29
M  V30 29 1 29 30
M  V30 30 2 30 31
M  V30 31 1 31 32
M  V30 32 2 32 33
M  V30 33 1 32 34
M  V30 34 2 34 35
M  V30 35 1 35 36
M  V30 36 2 36 37
M  V30 37 1 37 38
M  V30 38 2 38 39
M  V30 39 1 31 40
M  V30 40 1 40 41
M  V30 41 2 40 42
M  V30 42 1 23 2
M  V30 43 1 42 25
M  V30 44 1 21 9
M  V30 45 1 42 29
M  V30 46 1 20 15
M  V30 47 1 39 34
M  V30 48 1 1 43
M  V30 49 1 1 44
M  V30 50 1 1 45
M  V30 51 1 3 46
M  V30 52 1 4 47
M  V30 53 1 6 48
M  V30 54 1 10 49
M  V30 55 1 13 50
M  V30 56 1 16 51
M  V30 57 1 16 52
M  V30 58 1 17 53
M  V30 59 1 17 54
M  V30 60 1 19 55
M  V30 61 1 19 56
M  V30 62 1 20 57
M  V30 63 1 20 58
M  V30 64 1 21 59
M  V30 65 1 22 60
M  V30 66 1 24 61
M  V30 67 1 27 62
M  V30 68 1 30 63
M  V30 69 1 35 64
M  V30 70 1 36 65
M  V30 71 1 37 66
M  V30 72 1 38 67
M  V30 73 1 39 68
M  V30 74 1 41 69
M  V30 75 1 41 70
M  V30 76 1 41 71
M  V30 END BOND
M  V30 END CTAB
M  END
>  <Dataset>  (809) 
ChEMBL_Kinases

>  <Ligand_Instance>  (809) 
nan

>  <PDB_ID>  (809) 
nan

>  <Standardized_SMILES>  (809) 
Cc1ccc(NC(=O)c2cc(F)cc(N3CCOCC3)c2)cc1Nc1ncnn2cc(C(=O)c3ccccc3)c(C)c12

>  <Name>  (809) 
nan

>  <Pocket>  (809) 
nan

>  <ATP_Site>  (809) 
nan

>  <Peripheral>  (809) 
nan

>  <Num_H_Atoms_ProtBoundConf>  (809) 
nan

>  <Num_Resolved_Atoms>  (809) 
nan

>  <Num_Not_Resolved_Atoms>  (809) 
nan

$$$$
CHEMBL1807442
     RDKit          3D

  0  0  0  0  0  0  0  0  0  0999 V3000
M  V30 BEGIN CTAB
M  V30 COUNTS 48 51 0 0 0
M  V30 BEGIN ATOM
M  V30 1 C 1.806578 -1.168291 0.757900 0
M  V30 2 C 2.690976 -0.240283 0.031777 0
M  V30 3 C 4.067458 -0.389259 0.251612 0
M  V30 4 C 4.971991 0.432001 -0.380926 0
M  V30 5 C 4.529925 1.411247 -1.238414 0
M  V30 6 C 5.437653 2.325528 -1.941770 0
M  V30 7 N 6.821477 2.139206 -1.673950 0
M  V30 8 O 5.061850 3.236423 -2.744681 0
M  V30 9 C 3.159290 1.516118 -1.420340 0
M  V30 10 C 2.193030 0.725697 -0.818526 0
M  V30 11 N 0.792443 0.908263 -1.057579 0
M  V30 12 C 0.106718 1.213839 0.161572 0
M  V30 13 N 0.615140 2.232640 0.860815 0
M  V30 14 C 0.004669 2.551789 2.031699 0
M  V30 15 N -1.065428 1.849657 2.437958 0
M  V30 16 N -1.571046 0.842511 1.747815 0
M  V30 17 C -2.611369 0.023072 1.964218 0
M  V30 18 C -2.724546 -0.891394 0.909506 0
M  V30 19 C -3.728058 -1.966055 0.771399 0
M  V30 20 O -4.166289 -2.002323 -0.404891 0
M  V30 21 C -4.019840 -2.764308 1.985221 0
M  V30 22 C -3.144065 -2.718022 3.080834 0
M  V30 23 C -3.553473 -3.504698 4.137464 0
M  V30 24 C -4.684223 -4.277924 4.186495 0
M  V30 25 C -5.538204 -4.306830 3.083465 0
M  V30 26 C -5.139223 -3.517032 2.007010 0
M  V30 27 C -1.682187 -0.578072 0.028276 0
M  V30 28 C -1.460221 -1.292653 -1.223298 0
M  V30 29 C -0.991335 0.482598 0.562279 0
M  V30 30 H 2.422446 -2.023404 1.177098 0
M  V30 31 H 1.385016 -0.705813 1.697753 0
M  V30 32 H 1.059004 -1.667997 0.135220 0
M  V30 33 H 4.459417 -1.143173 0.916452 0
M  V30 34 H 6.026590 0.310808 -0.202966 0
M  V30 35 H 7.633857 2.444699 -1.060247 0
M  V30 36 H 7.762781 2.239119 -1.240724 0
M  V30 37 H 2.874126 2.298143 -2.099248 0
M  V30 38 H 0.445306 0.810066 -2.050929 0
M  V30 39 H 0.428421 3.371664 2.577571 0
M  V30 40 H -3.292069 0.039446 2.829241 0
M  V30 41 H -2.247500 -2.128543 3.081220 0
M  V30 42 H -2.865166 -3.456177 4.986070 0
M  V30 43 H -4.828249 -4.829268 5.121891 0
M  V30 44 H -6.406709 -4.928274 3.169773 0
M  V30 45 H -5.869893 -3.602309 1.193534 0
M  V30 46 H -2.156866 -0.807477 -1.978122 0
M  V30 47 H -0.452567 -1.307805 -1.627076 0
M  V30 48 H -1.813611 -2.354364 -1.224725 0
M  V30 END ATOM
M  V30 BEGIN BOND
M  V30 1 1 1 2
M  V30 2 2 2 3
M  V30 3 1 3 4
M  V30 4 2 4 5
M  V30 5 1 5 6
M  V30 6 1 6 7
M  V30 7 2 6 8
M  V30 8 1 5 9
M  V30 9 2 9 10
M  V30 10 1 10 11
M  V30 11 1 11 12
M  V30 12 2 12 13
M  V30 13 1 13 14
M  V30 14 2 14 15
M  V30 15 1 15 16
M  V30 16 1 16 17
M  V30 17 2 17 18
M  V30 18 1 18 19
M  V30 19 2 19 20
M  V30 20 1 19 21
M  V30 21 2 21 22
M  V30 22 1 22 23
M  V30 23 2 23 24
M  V30 24 1 24 25
M  V30 25 2 25 26
M  V30 26 1 18 27
M  V30 27 1 27 28
M  V30 28 2 27 29
M  V30 29 1 10 2
M  V30 30 1 29 12
M  V30 31 1 29 16
M  V30 32 1 26 21
M  V30 33 1 1 30
M  V30 34 1 1 31
M  V30 35 1 1 32
M  V30 36 1 3 33
M  V30 37 1 4 34
M  V30 38 1 7 35
M  V30 39 1 7 36
M  V30 40 1 9 37
M  V30 41 1 11 38
M  V30 42 1 14 39
M  V30 43 1 17 40
M  V30 44 1 22 41
M  V30 45 1 23 42
M  V30 46 1 24 43
M  V30 47 1 25 44
M  V30 48 1 26 45
M  V30 49 1 28 46
M  V30 50 1 28 47
M  V30 51 1 28 48
M  V30 END BOND
M  V30 END CTAB
M  END
>  <Dataset>  (810) 
ChEMBL_Kinases

>  <Ligand_Instance>  (810) 
nan

>  <PDB_ID>  (810) 
nan

>  <Standardized_SMILES>  (810) 
Cc1ccc(C(N)=O)cc1Nc1ncnn2cc(C(=O)c3ccccc3)c(C)c12

>  <Name>  (810) 
nan

>  <Pocket>  (810) 
nan

>  <ATP_Site>  (810) 
nan

>  <Peripheral>  (810) 
nan

>  <Num_H_Atoms_ProtBoundConf>  (810) 
nan

>  <Num_Resolved_Atoms>  (810) 
nan

>  <Num_Not_Resolved_Atoms>  (810) 
nan

$$$$
CHEMBL1807443
     RDKit          3D

  0  0  0  0  0  0  0  0  0  0999 V3000
M  V30 BEGIN CTAB
M  V30 COUNTS 51 54 0 0 0
M  V30 BEGIN ATOM
M  V30 1 C 3.066482 -4.733173 5.011594 0
M  V30 2 N 3.429222 -3.393564 4.570536 0
M  V30 3 C 2.925117 -3.024260 3.310866 0
M  V30 4 O 2.240036 -3.981562 2.815232 0
M  V30 5 C 3.181981 -1.720288 2.711759 0
M  V30 6 C 3.947900 -0.798313 3.382251 0
M  V30 7 C 4.164551 0.429760 2.795275 0
M  V30 8 C 3.610618 0.717958 1.542589 0
M  V30 9 C 3.943911 2.077432 0.996672 0
M  V30 10 C 2.837039 -0.189152 0.848362 0
M  V30 11 N 2.293879 0.132171 -0.442563 0
M  V30 12 C 1.319060 1.131757 -0.818726 0
M  V30 13 N 1.575674 2.440323 -0.927461 0
M  V30 14 C 0.610088 3.291134 -1.286874 0
M  V30 15 N -0.659765 2.905120 -1.559418 0
M  V30 16 N -0.916817 1.602404 -1.452258 0
M  V30 17 C -2.126240 1.073354 -1.699050 0
M  V30 18 C -1.985406 -0.283790 -1.489740 0
M  V30 19 C -3.044913 -1.271045 -1.642280 0
M  V30 20 O -2.872215 -2.379506 -2.243061 0
M  V30 21 C -4.366667 -1.061451 -1.123374 0
M  V30 22 C -4.521603 -0.108837 -0.139888 0
M  V30 23 C -5.762719 0.150619 0.393032 0
M  V30 24 C -6.914094 -0.526222 -0.026451 0
M  V30 25 C -6.764423 -1.493600 -1.022871 0
M  V30 26 C -5.491247 -1.735983 -1.545935 0
M  V30 27 C -0.650972 -0.477327 -1.118785 0
M  V30 28 C -0.112064 -1.821595 -0.821532 0
M  V30 29 C 0.022301 0.711352 -1.094142 0
M  V30 30 C 2.652095 -1.399211 1.477954 0
M  V30 31 H 3.167571 -5.455397 4.206731 0
M  V30 32 H 1.985385 -4.683499 5.330547 0
M  V30 33 H 3.649724 -4.978459 5.921206 0
M  V30 34 H 4.017313 -2.755678 5.145520 0
M  V30 35 H 4.395984 -0.955549 4.334250 0
M  V30 36 H 4.768723 1.177262 3.310619 0
M  V30 37 H 4.931979 2.400591 1.451841 0
M  V30 38 H 3.198908 2.800466 1.322067 0
M  V30 39 H 4.151648 2.036049 -0.087364 0
M  V30 40 H 2.826297 -0.562564 -1.025724 0
M  V30 41 H 0.974062 4.331500 -1.331691 0
M  V30 42 H -3.056590 1.528457 -1.998323 0
M  V30 43 H -3.656983 0.460129 0.235499 0
M  V30 44 H -5.844670 0.905690 1.163508 0
M  V30 45 H -7.870687 -0.299359 0.409271 0
M  V30 46 H -7.657331 -2.005756 -1.340763 0
M  V30 47 H -5.374356 -2.487735 -2.321225 0
M  V30 48 H -0.350955 -2.188263 0.202669 0
M  V30 49 H -0.656145 -2.543303 -1.512545 0
M  V30 50 H 0.951164 -1.948405 -1.101588 0
M  V30 51 H 2.065854 -2.167391 1.008441 0
M  V30 END ATOM
M  V30 BEGIN BOND
M  V30 1 1 1 2
M  V30 2 1 2 3
M  V30 3 2 3 4
M  V30 4 1 3 5
M  V30 5 2 5 6
M  V30 6 1 6 7
M  V30 7 2 7 8
M  V30 8 1 8 9
M  V30 9 1 8 10
M  V30 10 1 10 11
M  V30 11 1 11 12
M  V30 12 2 12 13
M  V30 13 1 13 14
M  V30 14 2 14 15
M  V30 15 1 15 16
M  V30 16 1 16 17
M  V30 17 2 17 18
M  V30 18 1 18 19
M  V30 19 2 19 20
M  V30 20 1 19 21
M  V30 21 2 21 22
M  V30 22 1 22 23
M  V30 23 2 23 24
M  V30 24 1 24 25
M  V30 25 2 25 26
M  V30 26 1 18 27
M  V30 27 1 27 28
M  V30 28 2 27 29
M  V30 29 2 10 30
M  V30 30 1 30 5
M  V30 31 1 29 12
M  V30 32 1 29 16
M  V30 33 1 26 21
M  V30 34 1 1 31
M  V30 35 1 1 32
M  V30 36 1 1 33
M  V30 37 1 2 34
M  V30 38 1 6 35
M  V30 39 1 7 36
M  V30 40 1 9 37
M  V30 41 1 9 38
M  V30 42 1 9 39
M  V30 43 1 11 40
M  V30 44 1 14 41
M  V30 45 1 17 42
M  V30 46 1 22 43
M  V30 47 1 23 44
M  V30 48 1 24 45
M  V30 49 1 25 46
M  V30 50 1 26 47
M  V30 51 1 28 48
M  V30 52 1 28 49
M  V30 53 1 28 50
M  V30 54 1 30 51
M  V30 END BOND
M  V30 END CTAB
M  END
>  <Dataset>  (811) 
ChEMBL_Kinases

>  <Ligand_Instance>  (811) 
nan

>  <PDB_ID>  (811) 
nan

>  <Standardized_SMILES>  (811) 
CNC(=O)c1ccc(C)c(Nc2ncnn3cc(C(=O)c4ccccc4)c(C)c23)c1

>  <Name>  (811) 
nan

>  <Pocket>  (811) 
nan

>  <ATP_Site>  (811) 
nan

>  <Peripheral>  (811) 
nan

>  <Num_H_Atoms_ProtBoundConf>  (811) 
nan

>  <Num_Resolved_Atoms>  (811) 
nan

>  <Num_Not_Resolved_Atoms>  (811) 
nan

$$$$
CHEMBL1807454
     RDKit          3D

  0  0  0  0  0  0  0  0  0  0999 V3000
M  V30 BEGIN CTAB
M  V30 COUNTS 54 57 0 0 0
M  V30 BEGIN ATOM
M  V30 1 C 1.949518 -5.537563 4.515702 0
M  V30 2 C 2.287198 -4.058010 4.448305 0
M  V30 3 C 1.968712 -3.585124 3.038788 0
M  V30 4 C 2.275849 -2.143002 2.905775 0
M  V30 5 O 2.693819 -1.995575 4.059134 0
M  V30 6 C 2.141775 -1.203720 1.811532 0
M  V30 7 C 2.545126 0.101489 2.080123 0
M  V30 8 N 2.329013 0.779546 0.939956 0
M  V30 9 N 2.523449 2.049170 0.606766 0
M  V30 10 C 2.239531 2.541933 -0.601613 0
M  V30 11 N 1.729432 1.720002 -1.539268 0
M  V30 12 C 1.511519 0.422279 -1.256160 0
M  V30 13 N 0.968356 -0.414944 -2.269477 0
M  V30 14 C -0.476248 -0.466421 -2.326704 0
M  V30 15 C -1.217257 0.271721 -1.426146 0
M  V30 16 C -2.596406 0.235864 -1.463969 0
M  V30 17 C -3.456819 0.983652 -0.550655 0
M  V30 18 O -4.714451 0.909739 -0.634007 0
M  V30 19 N -2.965548 1.817512 0.460372 0
M  V30 20 C -3.768502 2.581520 1.393405 0
M  V30 21 C -3.224463 3.752141 2.093593 0
M  V30 22 C -3.271917 2.484169 2.853535 0
M  V30 23 C -3.180150 -0.559110 -2.428258 0
M  V30 24 C -2.463846 -1.306465 -3.340008 0
M  V30 25 C -1.091578 -1.264996 -3.295272 0
M  V30 26 C -0.283135 -2.057322 -4.262739 0
M  V30 27 C 1.820923 -0.039458 0.005194 0
M  V30 28 C 1.687109 -1.308774 0.520033 0
M  V30 29 C 1.194416 -2.561969 -0.064879 0
M  V30 30 H 2.614503 -6.134182 3.870727 0
M  V30 31 H 0.909257 -5.730517 4.198600 0
M  V30 32 H 2.123087 -5.869272 5.558569 0
M  V30 33 H 1.584263 -3.535214 5.128668 0
M  V30 34 H 3.329257 -3.873315 4.702415 0
M  V30 35 H 2.510220 -4.193280 2.285086 0
M  V30 36 H 0.879528 -3.707205 2.888220 0
M  V30 37 H 2.955143 0.592295 2.958203 0
M  V30 38 H 2.454071 3.596051 -0.719264 0
M  V30 39 H 1.519562 -0.975561 -2.954096 0
M  V30 40 H -0.742311 0.888574 -0.678447 0
M  V30 41 H -1.937562 1.936998 0.600296 0
M  V30 42 H -4.855378 2.467968 1.260942 0
M  V30 43 H -2.272278 4.191948 1.745609 0
M  V30 44 H -3.947429 4.520339 2.439651 0
M  V30 45 H -2.305067 1.981071 3.038105 0
M  V30 46 H -4.048487 2.312310 3.610492 0
M  V30 47 H -4.273210 -0.618954 -2.496260 0
M  V30 48 H -2.959276 -1.915136 -4.077744 0
M  V30 49 H 0.573231 -2.582080 -3.779529 0
M  V30 50 H 0.186310 -1.371184 -5.020643 0
M  V30 51 H -0.914238 -2.815445 -4.737862 0
M  V30 52 H 1.947201 -3.385645 0.126019 0
M  V30 53 H 0.255090 -2.907378 0.378161 0
M  V30 54 H 1.150045 -2.544925 -1.190277 0
M  V30 END ATOM
M  V30 BEGIN BOND
M  V30 1 1 1 2
M  V30 2 1 2 3
M  V30 3 1 3 4
M  V30 4 2 4 5
M  V30 5 1 4 6
M  V30 6 2 6 7
M  V30 7 1 7 8
M  V30 8 1 8 9
M  V30 9 2 9 10
M  V30 10 1 10 11
M  V30 11 2 11 12
M  V30 12 1 12 13
M  V30 13 1 13 14
M  V30 14 2 14 15
M  V30 15 1 15 16
M  V30 16 1 16 17
M  V30 17 2 17 18
M  V30 18 1 17 19
M  V30 19 1 19 20
M  V30 20 1 20 21
M  V30 21 1 21 22
M  V30 22 2 16 23
M  V30 23 1 23 24
M  V30 24 2 24 25
M  V30 25 1 25 26
M  V30 26 1 12 27
M  V30 27 2 27 28
M  V30 28 1 28 29
M  V30 29 1 28 6
M  V30 30 1 27 8
M  V30 31 1 25 14
M  V30 32 1 22 20
M  V30 33 1 1 30
M  V30 34 1 1 31
M  V30 35 1 1 32
M  V30 36 1 2 33
M  V30 37 1 2 34
M  V30 38 1 3 35
M  V30 39 1 3 36
M  V30 40 1 7 37
M  V30 41 1 10 38
M  V30 42 1 13 39
M  V30 43 1 15 40
M  V30 44 1 19 41
M  V30 45 1 20 42
M  V30 46 1 21 43
M  V30 47 1 21 44
M  V30 48 1 22 45
M  V30 49 1 22 46
M  V30 50 1 23 47
M  V30 51 1 24 48
M  V30 52 1 26 49
M  V30 53 1 26 50
M  V30 54 1 26 51
M  V30 55 1 29 52
M  V30 56 1 29 53
M  V30 57 1 29 54
M  V30 END BOND
M  V30 END CTAB
M  END
>  <Dataset>  (812) 
ChEMBL_Kinases

>  <Ligand_Instance>  (812) 
nan

>  <PDB_ID>  (812) 
nan

>  <Standardized_SMILES>  (812) 
CCCC(=O)c1cn2ncnc(Nc3cc(C(=O)NC4CC4)ccc3C)c2c1C

>  <Name>  (812) 
nan

>  <Pocket>  (812) 
nan

>  <ATP_Site>  (812) 
nan

>  <Peripheral>  (812) 
nan

>  <Num_H_Atoms_ProtBoundConf>  (812) 
nan

>  <Num_Resolved_Atoms>  (812) 
nan

>  <Num_Not_Resolved_Atoms>  (812) 
nan

$$$$
CHEMBL1807445
     RDKit          3D

  0  0  0  0  0  0  0  0  0  0999 V3000
M  V30 BEGIN CTAB
M  V30 COUNTS 57 60 0 0 0
M  V30 BEGIN ATOM
M  V30 1 C 1.098798 -1.915340 1.579207 0
M  V30 2 C 1.438032 -0.515615 1.233049 0
M  V30 3 C 2.620346 -0.005912 1.728458 0
M  V30 4 C 2.987645 1.288913 1.445857 0
M  V30 5 C 2.152668 2.052325 0.664135 0
M  V30 6 C 2.493927 3.429104 0.347013 0
M  V30 7 O 1.842807 4.242221 -0.396990 0
M  V30 8 N 3.652028 4.042605 0.864155 0
M  V30 9 C 4.256776 5.332744 0.753715 0
M  V30 10 C 5.670375 5.359077 0.284639 0
M  V30 11 C 4.211409 6.103341 2.062322 0
M  V30 12 C 0.973735 1.536272 0.172467 0
M  V30 13 C 0.575103 0.218775 0.445754 0
M  V30 14 N -0.659481 -0.287784 -0.076635 0
M  V30 15 C -1.591368 -0.712256 0.907668 0
M  V30 16 N -1.823597 0.252471 1.820583 0
M  V30 17 C -2.692046 0.045957 2.843831 0
M  V30 18 N -3.306775 -1.143609 2.914418 0
M  V30 19 N -3.096482 -2.102570 2.034536 0
M  V30 20 C -3.543631 -3.355538 1.850206 0
M  V30 21 C -2.975586 -3.940688 0.734473 0
M  V30 22 C -3.347819 -5.292219 0.344418 0
M  V30 23 O -3.301604 -6.149093 1.290490 0
M  V30 24 C -3.762235 -5.788150 -0.968207 0
M  V30 25 C -4.275104 -4.969667 -1.970649 0
M  V30 26 C -4.647380 -5.481672 -3.194698 0
M  V30 27 C -4.531315 -6.826516 -3.489242 0
M  V30 28 C -4.019455 -7.627198 -2.482449 0
M  V30 29 C -3.643394 -7.128852 -1.254135 0
M  V30 30 C -2.117944 -2.987994 0.190405 0
M  V30 31 C -1.317718 -3.262188 -1.002581 0
M  V30 32 C -2.245170 -1.917772 1.020713 0
M  V30 33 H 1.958590 -2.420032 2.111242 0
M  V30 34 H 0.287895 -1.939315 2.365397 0
M  V30 35 H 0.889270 -2.531522 0.708819 0
M  V30 36 H 3.278537 -0.630762 2.351114 0
M  V30 37 H 3.919806 1.638208 1.857723 0
M  V30 38 H 4.335368 3.574323 1.496194 0
M  V30 39 H 3.633572 5.920707 0.050861 0
M  V30 40 H 6.402526 5.553005 1.116133 0
M  V30 41 H 5.911784 4.328014 -0.113344 0
M  V30 42 H 5.779453 6.082394 -0.533972 0
M  V30 43 H 4.027055 7.179857 1.874474 0
M  V30 44 H 5.200938 6.050778 2.562036 0
M  V30 45 H 3.435456 5.698108 2.745202 0
M  V30 46 H 0.338223 2.156481 -0.438253 0
M  V30 47 H -0.537843 -0.191801 -1.104576 0
M  V30 48 H -2.866805 0.845532 3.575828 0
M  V30 49 H -4.274922 -3.789873 2.550582 0
M  V30 50 H -4.364022 -3.906051 -1.727412 0
M  V30 51 H -5.039210 -4.830834 -3.949386 0
M  V30 52 H -4.832131 -7.201634 -4.460013 0
M  V30 53 H -3.904981 -8.700968 -2.662264 0
M  V30 54 H -3.239678 -7.777439 -0.468327 0
M  V30 55 H -0.587595 -2.478901 -1.170102 0
M  V30 56 H -1.922827 -3.370049 -1.911383 0
M  V30 57 H -0.841991 -4.265154 -0.832411 0
M  V30 END ATOM
M  V30 BEGIN BOND
M  V30 1 1 1 2
M  V30 2 2 2 3
M  V30 3 1 3 4
M  V30 4 2 4 5
M  V30 5 1 5 6
M  V30 6 2 6 7
M  V30 7 1 6 8
M  V30 8 1 8 9
M  V30 9 1 9 10
M  V30 10 1 9 11
M  V30 11 1 5 12
M  V30 12 2 12 13
M  V30 13 1 13 14
M  V30 14 1 14 15
M  V30 15 2 15 16
M  V30 16 1 16 17
M  V30 17 2 17 18
M  V30 18 1 18 19
M  V30 19 1 19 20
M  V30 20 2 20 21
M  V30 21 1 21 22
M  V30 22 2 22 23
M  V30 23 1 22 24
M  V30 24 2 24 25
M  V30 25 1 25 26
M  V30 26 2 26 27
M  V30 27 1 27 28
M  V30 28 2 28 29
M  V30 29 1 21 30
M  V30 30 1 30 31
M  V30 31 2 30 32
M  V30 32 1 13 2
M  V30 33 1 32 15
M  V30 34 1 32 19
M  V30 35 1 29 24
M  V30 36 1 1 33
M  V30 37 1 1 34
M  V30 38 1 1 35
M  V30 39 1 3 36
M  V30 40 1 4 37
M  V30 41 1 8 38
M  V30 42 1 9 39
M  V30 43 1 10 40
M  V30 44 1 10 41
M  V30 45 1 10 42
M  V30 46 1 11 43
M  V30 47 1 11 44
M  V30 48 1 11 45
M  V30 49 1 12 46
M  V30 50 1 14 47
M  V30 51 1 17 48
M  V30 52 1 20 49
M  V30 53 1 25 50
M  V30 54 1 26 51
M  V30 55 1 27 52
M  V30 56 1 28 53
M  V30 57 1 29 54
M  V30 58 1 31 55
M  V30 59 1 31 56
M  V30 60 1 31 57
M  V30 END BOND
M  V30 END CTAB
M  END
>  <Dataset>  (813) 
ChEMBL_Kinases

>  <Ligand_Instance>  (813) 
nan

>  <PDB_ID>  (813) 
nan

>  <Standardized_SMILES>  (813) 
Cc1ccc(C(=O)NC(C)C)cc1Nc1ncnn2cc(C(=O)c3ccccc3)c(C)c12

>  <Name>  (813) 
nan

>  <Pocket>  (813) 
nan

>  <ATP_Site>  (813) 
nan

>  <Peripheral>  (813) 
nan

>  <Num_H_Atoms_ProtBoundConf>  (813) 
nan

>  <Num_Resolved_Atoms>  (813) 
nan

>  <Num_Not_Resolved_Atoms>  (813) 
nan

$$$$
CHEMBL1807446
     RDKit          3D

  0  0  0  0  0  0  0  0  0  0999 V3000
M  V30 BEGIN CTAB
M  V30 COUNTS 55 59 0 0 0
M  V30 BEGIN ATOM
M  V30 1 C 0.021169 -1.723465 2.427469 0
M  V30 2 C 0.849014 -0.585857 1.963619 0
M  V30 3 C 2.214747 -0.780008 2.030547 0
M  V30 4 C 3.113427 0.172921 1.655013 0
M  V30 5 C 2.668606 1.375098 1.188338 0
M  V30 6 C 3.410039 2.510367 0.643250 0
M  V30 7 O 3.355008 3.684558 0.294861 0
M  V30 8 N 4.782485 2.115796 0.393807 0
M  V30 9 C 5.882767 2.851488 -0.143944 0
M  V30 10 C 6.841513 2.212232 -1.084654 0
M  V30 11 C 7.283581 2.727164 0.299509 0
M  V30 12 C 1.329086 1.620790 1.102863 0
M  V30 13 C 0.422801 0.659630 1.480401 0
M  V30 14 N -0.992259 0.688589 1.475892 0
M  V30 15 C -2.229898 0.547866 2.123435 0
M  V30 16 N -2.535311 1.090067 3.322674 0
M  V30 17 C -3.728554 0.854213 3.880549 0
M  V30 18 N -4.571436 0.077984 3.206098 0
M  V30 19 N -4.356254 -0.481148 2.046610 0
M  V30 20 C -5.161266 -1.280831 1.327027 0
M  V30 21 C -4.406432 -1.584262 0.192476 0
M  V30 22 C -4.842721 -2.481164 -0.898811 0
M  V30 23 O -5.936088 -2.450493 -1.524273 0
M  V30 24 C -3.832494 -3.502946 -1.237205 0
M  V30 25 C -3.679153 -4.088189 -2.479731 0
M  V30 26 C -2.728843 -5.045974 -2.727133 0
M  V30 27 C -1.875663 -5.469110 -1.729141 0
M  V30 28 C -1.971671 -4.929942 -0.466749 0
M  V30 29 C -2.937145 -3.977172 -0.271984 0
M  V30 30 C -3.155442 -0.956661 0.249184 0
M  V30 31 C -2.112282 -1.017957 -0.772971 0
M  V30 32 C -3.158386 -0.266278 1.447295 0
M  V30 33 H 0.635403 -2.399997 3.080672 0
M  V30 34 H -0.316212 -2.381433 1.596765 0
M  V30 35 H -0.815746 -1.406268 3.093696 0
M  V30 36 H 2.661043 -1.696257 2.380413 0
M  V30 37 H 4.157057 0.015935 1.716433 0
M  V30 38 H 5.200991 1.153996 0.595725 0
M  V30 39 H 5.594006 3.908511 -0.435520 0
M  V30 40 H 7.182772 2.752755 -1.986870 0
M  V30 41 H 6.905643 1.114817 -1.168185 0
M  V30 42 H 7.615184 2.005894 1.055049 0
M  V30 43 H 7.948632 3.647712 0.225932 0
M  V30 44 H 0.745978 2.474870 0.776275 0
M  V30 45 H -1.126664 1.021442 0.505498 0
M  V30 46 H -4.049318 1.258779 4.851636 0
M  V30 47 H -6.161569 -1.619800 1.542173 0
M  V30 48 H -4.334070 -3.763833 -3.249162 0
M  V30 49 H -2.640886 -5.478609 -3.699671 0
M  V30 50 H -1.133432 -6.219999 -1.897280 0
M  V30 51 H -1.361460 -5.174218 0.387984 0
M  V30 52 H -3.055078 -3.497059 0.713878 0
M  V30 53 H -2.574627 -1.547957 -1.677810 0
M  V30 54 H -1.256379 -1.638792 -0.479789 0
M  V30 55 H -1.839131 -0.038729 -1.234913 0
M  V30 END ATOM
M  V30 BEGIN BOND
M  V30 1 1 1 2
M  V30 2 2 2 3
M  V30 3 1 3 4
M  V30 4 2 4 5
M  V30 5 1 5 6
M  V30 6 2 6 7
M  V30 7 1 6 8
M  V30 8 1 8 9
M  V30 9 1 9 10
M  V30 10 1 10 11
M  V30 11 1 5 12
M  V30 12 2 12 13
M  V30 13 1 13 14
M  V30 14 1 14 15
M  V30 15 2 15 16
M  V30 16 1 16 17
M  V30 17 2 17 18
M  V30 18 1 18 19
M  V30 19 1 19 20
M  V30 20 2 20 21
M  V30 21 1 21 22
M  V30 22 2 22 23
M  V30 23 1 22 24
M  V30 24 2 24 25
M  V30 25 1 25 26
M  V30 26 2 26 27
M  V30 27 1 27 28
M  V30 28 2 28 29
M  V30 29 1 21 30
M  V30 30 1 30 31
M  V30 31 2 30 32
M  V30 32 1 13 2
M  V30 33 1 32 15
M  V30 34 1 11 9
M  V30 35 1 32 19
M  V30 36 1 29 24
M  V30 37 1 1 33
M  V30 38 1 1 34
M  V30 39 1 1 35
M  V30 40 1 3 36
M  V30 41 1 4 37
M  V30 42 1 8 38
M  V30 43 1 9 39
M  V30 44 1 10 40
M  V30 45 1 10 41
M  V30 46 1 11 42
M  V30 47 1 11 43
M  V30 48 1 12 44
M  V30 49 1 14 45
M  V30 50 1 17 46
M  V30 51 1 20 47
M  V30 52 1 25 48
M  V30 53 1 26 49
M  V30 54 1 27 50
M  V30 55 1 28 51
M  V30 56 1 29 52
M  V30 57 1 31 53
M  V30 58 1 31 54
M  V30 59 1 31 55
M  V30 END BOND
M  V30 END CTAB
M  END
>  <Dataset>  (814) 
ChEMBL_Kinases

>  <Ligand_Instance>  (814) 
nan

>  <PDB_ID>  (814) 
nan

>  <Standardized_SMILES>  (814) 
Cc1ccc(C(=O)NC2CC2)cc1Nc1ncnn2cc(C(=O)c3ccccc3)c(C)c12

>  <Name>  (814) 
nan

>  <Pocket>  (814) 
nan

>  <ATP_Site>  (814) 
nan

>  <Peripheral>  (814) 
nan

>  <Num_H_Atoms_ProtBoundConf>  (814) 
nan

>  <Num_Resolved_Atoms>  (814) 
nan

>  <Num_Not_Resolved_Atoms>  (814) 
nan

$$$$
CHEMBL1807447
     RDKit          3D

  0  0  0  0  0  0  0  0  0  0999 V3000
M  V30 BEGIN CTAB
M  V30 COUNTS 54 58 0 0 0
M  V30 BEGIN ATOM
M  V30 1 C 0.082347 -0.852381 4.289785 0
M  V30 2 C 1.127635 -0.049496 3.607859 0
M  V30 3 C 2.158102 0.446770 4.417007 0
M  V30 4 C 3.153301 1.188521 3.809870 0
M  V30 5 C 3.186375 1.465185 2.459585 0
M  V30 6 C 4.272343 2.246840 1.879662 0
M  V30 7 O 5.193393 2.551915 2.679237 0
M  V30 8 N 4.225007 2.600854 0.506452 0
M  V30 9 C 5.197776 3.357081 -0.231784 0
M  V30 10 C 6.180558 2.580178 -0.865571 0
M  V30 11 C 7.012680 3.500757 -1.515922 0
M  V30 12 O 6.530469 4.695615 -1.263060 0
M  V30 13 N 5.486332 4.637579 -0.526085 0
M  V30 14 C 2.139658 0.943335 1.735232 0
M  V30 15 C 1.096071 0.191180 2.234600 0
M  V30 16 N 0.046569 -0.329006 1.413447 0
M  V30 17 C -1.309948 0.049014 1.597228 0
M  V30 18 N -1.550870 0.933742 2.550018 0
M  V30 19 C -2.838773 1.304093 2.736683 0
M  V30 20 N -3.794991 0.764721 1.958649 0
M  V30 21 N -3.512748 -0.119066 1.014329 0
M  V30 22 C -4.364424 -0.731311 0.172310 0
M  V30 23 C -3.620223 -1.584066 -0.654660 0
M  V30 24 C -4.171603 -2.437777 -1.697229 0
M  V30 25 O -4.991844 -1.783808 -2.432928 0
M  V30 26 C -3.928313 -3.846263 -1.992005 0
M  V30 27 C -3.410847 -4.771738 -1.101725 0
M  V30 28 C -3.184358 -6.095101 -1.407488 0
M  V30 29 C -3.509737 -6.466321 -2.688360 0
M  V30 30 C -4.024386 -5.601226 -3.614760 0
M  V30 31 C -4.233932 -4.283186 -3.261597 0
M  V30 32 C -2.299052 -1.448046 -0.265346 0
M  V30 33 C -1.105219 -2.114264 -0.814927 0
M  V30 34 C -2.238344 -0.540129 0.768250 0
M  V30 35 H -0.521039 -1.439565 3.562788 0
M  V30 36 H -0.628966 -0.260397 4.890642 0
M  V30 37 H 0.643016 -1.525967 4.982325 0
M  V30 38 H 2.182373 0.259118 5.492568 0
M  V30 39 H 3.946345 1.563121 4.475093 0
M  V30 40 H 3.456226 2.347257 -0.147158 0
M  V30 41 H 6.371217 1.518121 -0.924229 0
M  V30 42 H 7.895385 3.232657 -2.116506 0
M  V30 43 H 2.088253 1.108514 0.679604 0
M  V30 44 H 0.592084 -0.954286 0.783314 0
M  V30 45 H -3.052629 2.037548 3.523500 0
M  V30 46 H -5.453715 -0.588347 0.138154 0
M  V30 47 H -3.194193 -4.345125 -0.113455 0
M  V30 48 H -2.774531 -6.726950 -0.625001 0
M  V30 49 H -3.334045 -7.517422 -2.945688 0
M  V30 50 H -4.238860 -6.020475 -4.589787 0
M  V30 51 H -4.644698 -3.639811 -4.036155 0
M  V30 52 H -1.454414 -2.761095 -1.662960 0
M  V30 53 H -0.390011 -1.407304 -1.325715 0
M  V30 54 H -0.595842 -2.807240 -0.129392 0
M  V30 END ATOM
M  V30 BEGIN BOND
M  V30 1 1 1 2
M  V30 2 2 2 3
M  V30 3 1 3 4
M  V30 4 2 4 5
M  V30 5 1 5 6
M  V30 6 2 6 7
M  V30 7 1 6 8
M  V30 8 1 8 9
M  V30 9 1 9 10
M  V30 10 2 10 11
M  V30 11 1 11 12
M  V30 12 1 12 13
M  V30 13 1 5 14
M  V30 14 2 14 15
M  V30 15 1 15 16
M  V30 16 1 16 17
M  V30 17 2 17 18
M  V30 18 1 18 19
M  V30 19 2 19 20
M  V30 20 1 20 21
M  V30 21 1 21 22
M  V30 22 2 22 23
M  V30 23 1 23 24
M  V30 24 2 24 25
M  V30 25 1 24 26
M  V30 26 2 26 27
M  V30 27 1 27 28
M  V30 28 2 28 29
M  V30 29 1 29 30
M  V30 30 2 30 31
M  V30 31 1 23 32
M  V30 32 1 32 33
M  V30 33 2 32 34
M  V30 34 1 15 2
M  V30 35 1 34 17
M  V30 36 2 13 9
M  V30 37 1 34 21
M  V30 38 1 31 26
M  V30 39 1 1 35
M  V30 40 1 1 36
M  V30 41 1 1 37
M  V30 42 1 3 38
M  V30 43 1 4 39
M  V30 44 1 8 40
M  V30 45 1 10 41
M  V30 46 1 11 42
M  V30 47 1 14 43
M  V30 48 1 16 44
M  V30 49 1 19 45
M  V30 50 1 22 46
M  V30 51 1 27 47
M  V30 52 1 28 48
M  V30 53 1 29 49
M  V30 54 1 30 50
M  V30 55 1 31 51
M  V30 56 1 33 52
M  V30 57 1 33 53
M  V30 58 1 33 54
M  V30 END BOND
M  V30 END CTAB
M  END
>  <Dataset>  (815) 
ChEMBL_Kinases

>  <Ligand_Instance>  (815) 
nan

>  <PDB_ID>  (815) 
nan

>  <Standardized_SMILES>  (815) 
Cc1ccc(C(=O)Nc2ccon2)cc1Nc1ncnn2cc(C(=O)c3ccccc3)c(C)c12

>  <Name>  (815) 
nan

>  <Pocket>  (815) 
nan

>  <ATP_Site>  (815) 
nan

>  <Peripheral>  (815) 
nan

>  <Num_H_Atoms_ProtBoundConf>  (815) 
nan

>  <Num_Resolved_Atoms>  (815) 
nan

>  <Num_Not_Resolved_Atoms>  (815) 
nan

$$$$
CHEMBL1807448
     RDKit          3D

  0  0  0  0  0  0  0  0  0  0999 V3000
M  V30 BEGIN CTAB
M  V30 COUNTS 54 57 0 0 0
M  V30 BEGIN ATOM
M  V30 1 C 5.642814 -3.814988 3.455421 0
M  V30 2 O 5.038755 -2.538946 3.248164 0
M  V30 3 C 4.168464 -2.317120 2.182353 0
M  V30 4 O 3.779441 -3.099744 1.287243 0
M  V30 5 N 3.655660 -0.992370 2.125258 0
M  V30 6 C 2.742882 -0.516170 1.162347 0
M  V30 7 O 2.411942 -1.408414 0.304802 0
M  V30 8 C 2.191975 0.828308 1.091203 0
M  V30 9 C 2.491904 1.911664 1.887635 0
M  V30 10 C 1.910871 3.131979 1.762344 0
M  V30 11 C 0.954598 3.357720 0.794847 0
M  V30 12 C 0.311779 4.673039 0.635701 0
M  V30 13 C 0.628568 2.296914 -0.020312 0
M  V30 14 N -0.368729 2.455146 -1.044072 0
M  V30 15 C -0.745759 1.441397 -1.930148 0
M  V30 16 N -0.311224 1.468198 -3.203870 0
M  V30 17 C -0.646432 0.492570 -4.099002 0
M  V30 18 N -1.434453 -0.512263 -3.668951 0
M  V30 19 N -1.862277 -0.530690 -2.398097 0
M  V30 20 C -2.645905 -1.490016 -1.863043 0
M  V30 21 C -2.847671 -1.144792 -0.545535 0
M  V30 22 C -3.604680 -1.795304 0.541314 0
M  V30 23 O -4.385341 -1.249845 1.350043 0
M  V30 24 C -3.357278 -3.251665 0.617795 0
M  V30 25 C -4.325583 -4.041211 1.202255 0
M  V30 26 C -4.119991 -5.422234 1.290057 0
M  V30 27 C -2.965334 -5.996353 0.800435 0
M  V30 28 C -2.002602 -5.199277 0.217291 0
M  V30 29 C -2.196135 -3.837526 0.126422 0
M  V30 30 C -2.157873 0.044387 -0.333094 0
M  V30 31 C -2.066957 0.814052 0.925651 0
M  V30 32 C -1.552544 0.412715 -1.489139 0
M  V30 33 C 1.221964 1.076631 0.117330 0
M  V30 34 H 5.022454 -4.346091 4.205645 0
M  V30 35 H 5.791456 -4.380052 2.510899 0
M  V30 36 H 6.656555 -3.705434 3.896000 0
M  V30 37 H 3.902509 -0.236066 2.805558 0
M  V30 38 H 3.257250 1.711118 2.653077 0
M  V30 39 H 2.181161 3.949554 2.412164 0
M  V30 40 H 1.004692 5.416197 1.092462 0
M  V30 41 H 0.185837 4.976999 -0.425309 0
M  V30 42 H -0.632879 4.705687 1.224281 0
M  V30 43 H -0.851154 3.377273 -1.145816 0
M  V30 44 H -0.337054 0.448419 -5.134326 0
M  V30 45 H -3.083619 -2.383864 -2.279898 0
M  V30 46 H -5.220885 -3.584898 1.579430 0
M  V30 47 H -4.884063 -6.043931 1.750839 0
M  V30 48 H -2.760844 -7.062281 0.846068 0
M  V30 49 H -1.081723 -5.661550 -0.173065 0
M  V30 50 H -1.455929 -3.181124 -0.326648 0
M  V30 51 H -2.117562 1.911780 0.799360 0
M  V30 52 H -1.210025 0.476329 1.566781 0
M  V30 53 H -2.967519 0.578231 1.564917 0
M  V30 54 H 0.937453 0.264462 -0.544367 0
M  V30 END ATOM
M  V30 BEGIN BOND
M  V30 1 1 1 2
M  V30 2 1 2 3
M  V30 3 2 3 4
M  V30 4 1 3 5
M  V30 5 1 5 6
M  V30 6 2 6 7
M  V30 7 1 6 8
M  V30 8 2 8 9
M  V30 9 1 9 10
M  V30 10 2 10 11
M  V30 11 1 11 12
M  V30 12 1 11 13
M  V30 13 1 13 14
M  V30 14 1 14 15
M  V30 15 2 15 16
M  V30 16 1 16 17
M  V30 17 2 17 18
M  V30 18 1 18 19
M  V30 19 1 19 20
M  V30 20 2 20 21
M  V30 21 1 21 22
M  V30 22 2 22 23
M  V30 23 1 22 24
M  V30 24 2 24 25
M  V30 25 1 25 26
M  V30 26 2 26 27
M  V30 27 1 27 28
M  V30 28 2 28 29
M  V30 29 1 21 30
M  V30 30 1 30 31
M  V30 31 2 30 32
M  V30 32 2 13 33
M  V30 33 1 33 8
M  V30 34 1 32 15
M  V30 35 1 32 19
M  V30 36 1 29 24
M  V30 37 1 1 34
M  V30 38 1 1 35
M  V30 39 1 1 36
M  V30 40 1 5 37
M  V30 41 1 9 38
M  V30 42 1 10 39
M  V30 43 1 12 40
M  V30 44 1 12 41
M  V30 45 1 12 42
M  V30 46 1 14 43
M  V30 47 1 17 44
M  V30 48 1 20 45
M  V30 49 1 25 46
M  V30 50 1 26 47
M  V30 51 1 27 48
M  V30 52 1 28 49
M  V30 53 1 29 50
M  V30 54 1 31 51
M  V30 55 1 31 52
M  V30 56 1 31 53
M  V30 57 1 33 54
M  V30 END BOND
M  V30 END CTAB
M  END
>  <Dataset>  (816) 
ChEMBL_Kinases

>  <Ligand_Instance>  (816) 
nan

>  <PDB_ID>  (816) 
nan

>  <Standardized_SMILES>  (816) 
COC(=O)NC(=O)c1ccc(C)c(Nc2ncnn3cc(C(=O)c4ccccc4)c(C)c23)c1

>  <Name>  (816) 
nan

>  <Pocket>  (816) 
nan

>  <ATP_Site>  (816) 
nan

>  <Peripheral>  (816) 
nan

>  <Num_H_Atoms_ProtBoundConf>  (816) 
nan

>  <Num_Resolved_Atoms>  (816) 
nan

>  <Num_Not_Resolved_Atoms>  (816) 
nan

$$$$
CHEMBL1807449
     RDKit          3D

  0  0  0  0  0  0  0  0  0  0999 V3000
M  V30 BEGIN CTAB
M  V30 COUNTS 71 76 0 0 0
M  V30 BEGIN ATOM
M  V30 1 C 0.998680 -4.486156 4.361868 0
M  V30 2 C 1.215552 -3.960024 3.004608 0
M  V30 3 C 2.483150 -3.605098 2.597496 0
M  V30 4 C 2.702617 -3.120929 1.327202 0
M  V30 5 C 1.656844 -2.982320 0.439764 0
M  V30 6 C 2.000684 -2.467072 -0.877563 0
M  V30 7 O 3.203396 -2.089557 -1.082427 0
M  V30 8 N 1.199565 -2.302117 -2.031796 0
M  V30 9 C 2.106856 -1.748587 -3.010075 0
M  V30 10 C 2.845436 -2.681517 -3.748825 0
M  V30 11 C 3.705281 -2.146216 -4.671451 0
M  V30 12 F 4.450278 -3.024946 -5.418515 0
M  V30 13 C 3.844979 -0.792310 -4.870277 0
M  V30 14 C 3.123039 0.130465 -4.150861 0
M  V30 15 N 3.270676 1.527030 -4.357405 0
M  V30 16 C 4.337295 1.999065 -5.187055 0
M  V30 17 C 4.613546 3.456259 -4.974709 0
M  V30 18 O 3.923104 4.020259 -3.911862 0
M  V30 19 C 2.535534 3.835351 -4.105694 0
M  V30 20 C 2.278996 2.384892 -3.690801 0
M  V30 21 C 2.264298 -0.403608 -3.229095 0
M  V30 22 C 0.407460 -3.343568 0.876044 0
M  V30 23 C 0.124986 -3.833062 2.132254 0
M  V30 24 N -1.220869 -4.162014 2.492760 0
M  V30 25 C -2.160424 -3.776166 3.485785 0
M  V30 26 N -2.107015 -4.585555 4.556568 0
M  V30 27 C -2.927376 -4.356066 5.592442 0
M  V30 28 N -3.809304 -3.344674 5.609092 0
M  V30 29 N -3.876376 -2.526985 4.547313 0
M  V30 30 C -4.618120 -1.448463 4.229915 0
M  V30 31 C -4.288944 -0.972082 2.996871 0
M  V30 32 C -4.872272 0.153128 2.324220 0
M  V30 33 O -5.184496 -0.101722 1.114440 0
M  V30 34 C -5.177373 1.515358 2.733918 0
M  V30 35 C -5.248696 2.477981 1.751538 0
M  V30 36 C -5.529101 3.812718 2.037870 0
M  V30 37 C -5.743017 4.184714 3.348062 0
M  V30 38 C -5.685184 3.271233 4.365823 0
M  V30 39 C -5.403220 1.969246 4.014334 0
M  V30 40 C -3.277175 -1.802338 2.506420 0
M  V30 41 C -2.584918 -1.709552 1.197658 0
M  V30 42 C -3.063922 -2.735697 3.495850 0
M  V30 43 H 2.013118 -4.616329 4.849024 0
M  V30 44 H 0.507428 -3.713826 4.981932 0
M  V30 45 H 0.492717 -5.475358 4.363434 0
M  V30 46 H 3.304550 -3.719300 3.310136 0
M  V30 47 H 3.746548 -2.872424 1.114554 0
M  V30 48 H 0.198520 -2.602394 -1.909976 0
M  V30 49 H 2.708501 -3.734880 -3.563710 0
M  V30 50 H 4.547999 -0.488000 -5.616948 0
M  V30 51 H 5.301056 1.447732 -4.999106 0
M  V30 52 H 4.024858 1.860712 -6.256145 0
M  V30 53 H 5.705292 3.647396 -4.736786 0
M  V30 54 H 4.375162 4.073822 -5.885065 0
M  V30 55 H 2.347375 3.979683 -5.174322 0
M  V30 56 H 1.973989 4.510290 -3.436009 0
M  V30 57 H 2.441222 2.262725 -2.604056 0
M  V30 58 H 1.248942 2.150319 -3.964185 0
M  V30 59 H 1.651563 0.266616 -2.614618 0
M  V30 60 H -0.332016 -3.193713 0.094094 0
M  V30 61 H -1.717756 -4.875437 1.909353 0
M  V30 62 H -2.950483 -4.964103 6.505296 0
M  V30 63 H -5.347857 -1.113497 4.956924 0
M  V30 64 H -5.089050 2.245232 0.689237 0
M  V30 65 H -5.578689 4.555503 1.224874 0
M  V30 66 H -5.961754 5.239202 3.535088 0
M  V30 67 H -5.850471 3.544312 5.397189 0
M  V30 68 H -5.353252 1.244253 4.812223 0
M  V30 69 H -3.149639 -1.018837 0.525367 0
M  V30 70 H -1.576079 -1.315615 1.270023 0
M  V30 71 H -2.558972 -2.682813 0.670074 0
M  V30 END ATOM
M  V30 BEGIN BOND
M  V30 1 1 1 2
M  V30 2 2 2 3
M  V30 3 1 3 4
M  V30 4 2 4 5
M  V30 5 1 5 6
M  V30 6 2 6 7
M  V30 7 1 6 8
M  V30 8 1 8 9
M  V30 9 2 9 10
M  V30 10 1 10 11
M  V30 11 1 11 12
M  V30 12 2 11 13
M  V30 13 1 13 14
M  V30 14 1 14 15
M  V30 15 1 15 16
M  V30 16 1 16 17
M  V30 17 1 17 18
M  V30 18 1 18 19
M  V30 19 1 19 20
M  V30 20 2 14 21
M  V30 21 1 5 22
M  V30 22 2 22 23
M  V30 23 1 23 24
M  V30 24 1 24 25
M  V30 25 2 25 26
M  V30 26 1 26 27
M  V30 27 2 27 28
M  V30 28 1 28 29
M  V30 29 1 29 30
M  V30 30 2 30 31
M  V30 31 1 31 32
M  V30 32 2 32 33
M  V30 33 1 32 34
M  V30 34 2 34 35
M  V30 35 1 35 36
M  V30 36 2 36 37
M  V30 37 1 37 38
M  V30 38 2 38 39
M  V30 39 1 31 40
M  V30 40 1 40 41
M  V30 41 2 40 42
M  V30 42 1 23 2
M  V30 43 1 42 25
M  V30 44 1 21 9
M  V30 45 1 42 29
M  V30 46 1 20 15
M  V30 47 1 39 34
M  V30 48 1 1 43
M  V30 49 1 1 44
M  V30 50 1 1 45
M  V30 51 1 3 46
M  V30 52 1 4 47
M  V30 53 1 8 48
M  V30 54 1 10 49
M  V30 55 1 13 50
M  V30 56 1 16 51
M  V30 57 1 16 52
M  V30 58 1 17 53
M  V30 59 1 17 54
M  V30 60 1 19 55
M  V30 61 1 19 56
M  V30 62 1 20 57
M  V30 63 1 20 58
M  V30 64 1 21 59
M  V30 65 1 22 60
M  V30 66 1 24 61
M  V30 67 1 27 62
M  V30 68 1 30 63
M  V30 69 1 35 64
M  V30 70 1 36 65
M  V30 71 1 37 66
M  V30 72 1 38 67
M  V30 73 1 39 68
M  V30 74 1 41 69
M  V30 75 1 41 70
M  V30 76 1 41 71
M  V30 END BOND
M  V30 END CTAB
M  END
>  <Dataset>  (817) 
ChEMBL_Kinases

>  <Ligand_Instance>  (817) 
nan

>  <PDB_ID>  (817) 
nan

>  <Standardized_SMILES>  (817) 
Cc1ccc(C(=O)Nc2cc(F)cc(N3CCOCC3)c2)cc1Nc1ncnn2cc(C(=O)c3ccccc3)c(C)c12

>  <Name>  (817) 
nan

>  <Pocket>  (817) 
nan

>  <ATP_Site>  (817) 
nan

>  <Peripheral>  (817) 
nan

>  <Num_H_Atoms_ProtBoundConf>  (817) 
nan

>  <Num_Resolved_Atoms>  (817) 
nan

>  <Num_Not_Resolved_Atoms>  (817) 
nan

$$$$
CHEMBL1807450
     RDKit          3D

  0  0  0  0  0  0  0  0  0  0999 V3000
M  V30 BEGIN CTAB
M  V30 COUNTS 55 58 0 0 0
M  V30 BEGIN ATOM
M  V30 1 C 0.365447 -2.357284 1.397257 0
M  V30 2 C 1.468498 -1.389282 1.473926 0
M  V30 3 C 2.735136 -1.828586 1.793177 0
M  V30 4 C 3.793112 -0.916856 1.883848 0
M  V30 5 C 3.570555 0.432747 1.652379 0
M  V30 6 C 4.721448 1.318075 1.769587 0
M  V30 7 O 5.828517 0.774112 2.055156 0
M  V30 8 N 4.720023 2.725940 1.594759 0
M  V30 9 C 5.871972 3.575909 1.718130 0
M  V30 10 C 6.981820 3.242005 0.746191 0
M  V30 11 O 6.566707 3.354441 -0.569834 0
M  V30 12 C 2.287320 0.824117 1.335950 0
M  V30 13 C 1.206664 -0.060065 1.236727 0
M  V30 14 N -0.037722 0.545529 0.909060 0
M  V30 15 C -1.293676 0.581504 1.575130 0
M  V30 16 N -1.258929 1.269910 2.730244 0
M  V30 17 C -2.402118 1.367756 3.449305 0
M  V30 18 N -3.554202 0.807649 3.051931 0
M  V30 19 N -3.603293 0.128507 1.918691 0
M  V30 20 C -4.542033 -0.541229 1.227434 0
M  V30 21 C -3.993122 -1.074755 0.050302 0
M  V30 22 C -4.902810 -1.839490 -0.779842 0
M  V30 23 O -6.055479 -1.362814 -1.068617 0
M  V30 24 C -4.739708 -3.150081 -1.392060 0
M  V30 25 C -5.408626 -3.510878 -2.537836 0
M  V30 26 C -5.246595 -4.763971 -3.093086 0
M  V30 27 C -4.433159 -5.717958 -2.565323 0
M  V30 28 C -3.740398 -5.407489 -1.418408 0
M  V30 29 C -3.914315 -4.154727 -0.879097 0
M  V30 30 C -2.663914 -0.711488 0.027378 0
M  V30 31 C -1.791619 -1.090174 -1.078622 0
M  V30 32 C -2.487493 0.013639 1.183824 0
M  V30 33 H -0.535970 -1.954825 1.888691 0
M  V30 34 H 0.163631 -2.759836 0.398633 0
M  V30 35 H 0.615803 -3.275380 2.017807 0
M  V30 36 H 2.885269 -2.882587 1.970516 0
M  V30 37 H 4.746899 -1.347611 2.139731 0
M  V30 38 H 3.756099 3.093115 1.356732 0
M  V30 39 H 5.531390 4.613595 1.474245 0
M  V30 40 H 6.259726 3.637911 2.765780 0
M  V30 41 H 7.901326 3.833808 0.967198 0
M  V30 42 H 7.275060 2.174561 0.882219 0
M  V30 43 H 6.791171 2.584691 -1.142778 0
M  V30 44 H 2.147681 1.876527 1.161754 0
M  V30 45 H -0.265236 1.128609 0.047828 0
M  V30 46 H -2.485698 1.900670 4.398353 0
M  V30 47 H -5.552260 -0.575095 1.657025 0
M  V30 48 H -6.079727 -2.812780 -3.028238 0
M  V30 49 H -5.770109 -5.077239 -4.009034 0
M  V30 50 H -4.280609 -6.708103 -2.969219 0
M  V30 51 H -3.082277 -6.110987 -0.949839 0
M  V30 52 H -3.357617 -3.909079 0.037388 0
M  V30 53 H -2.020479 -0.380566 -1.935712 0
M  V30 54 H -2.031325 -2.087813 -1.508086 0
M  V30 55 H -0.715673 -0.987231 -0.911408 0
M  V30 END ATOM
M  V30 BEGIN BOND
M  V30 1 1 1 2
M  V30 2 2 2 3
M  V30 3 1 3 4
M  V30 4 2 4 5
M  V30 5 1 5 6
M  V30 6 2 6 7
M  V30 7 1 6 8
M  V30 8 1 8 9
M  V30 9 1 9 10
M  V30 10 1 10 11
M  V30 11 1 5 12
M  V30 12 2 12 13
M  V30 13 1 13 14
M  V30 14 1 14 15
M  V30 15 2 15 16
M  V30 16 1 16 17
M  V30 17 2 17 18
M  V30 18 1 18 19
M  V30 19 1 19 20
M  V30 20 2 20 21
M  V30 21 1 21 22
M  V30 22 2 22 23
M  V30 23 1 22 24
M  V30 24 2 24 25
M  V30 25 1 25 26
M  V30 26 2 26 27
M  V30 27 1 27 28
M  V30 28 2 28 29
M  V30 29 1 21 30
M  V30 30 1 30 31
M  V30 31 2 30 32
M  V30 32 1 13 2
M  V30 33 1 32 15
M  V30 34 1 32 19
M  V30 35 1 29 24
M  V30 36 1 1 33
M  V30 37 1 1 34
M  V30 38 1 1 35
M  V30 39 1 3 36
M  V30 40 1 4 37
M  V30 41 1 8 38
M  V30 42 1 9 39
M  V30 43 1 9 40
M  V30 44 1 10 41
M  V30 45 1 10 42
M  V30 46 1 11 43
M  V30 47 1 12 44
M  V30 48 1 14 45
M  V30 49 1 17 46
M  V30 50 1 20 47
M  V30 51 1 25 48
M  V30 52 1 26 49
M  V30 53 1 27 50
M  V30 54 1 28 51
M  V30 55 1 29 52
M  V30 56 1 31 53
M  V30 57 1 31 54
M  V30 58 1 31 55
M  V30 END BOND
M  V30 END CTAB
M  END
>  <Dataset>  (818) 
ChEMBL_Kinases

>  <Ligand_Instance>  (818) 
nan

>  <PDB_ID>  (818) 
nan

>  <Standardized_SMILES>  (818) 
Cc1ccc(C(=O)NCCO)cc1Nc1ncnn2cc(C(=O)c3ccccc3)c(C)c12

>  <Name>  (818) 
nan

>  <Pocket>  (818) 
nan

>  <ATP_Site>  (818) 
nan

>  <Peripheral>  (818) 
nan

>  <Num_H_Atoms_ProtBoundConf>  (818) 
nan

>  <Num_Resolved_Atoms>  (818) 
nan

>  <Num_Not_Resolved_Atoms>  (818) 
nan

$$$$
CHEMBL1807451
     RDKit          3D

  0  0  0  0  0  0  0  0  0  0999 V3000
M  V30 BEGIN CTAB
M  V30 COUNTS 58 61 0 0 0
M  V30 BEGIN ATOM
M  V30 1 C 4.042555 -0.949022 5.854635 0
M  V30 2 O 4.362658 -1.554331 4.660097 0
M  V30 3 C 3.828827 -0.963075 3.543618 0
M  V30 4 C 4.270111 0.496355 3.376133 0
M  V30 5 N 3.666655 1.051330 2.165140 0
M  V30 6 C 2.289885 1.171701 1.882171 0
M  V30 7 O 1.459528 0.770679 2.739137 0
M  V30 8 C 1.778292 1.732701 0.650299 0
M  V30 9 C 2.562474 2.316819 -0.314478 0
M  V30 10 C 2.048915 2.825763 -1.481488 0
M  V30 11 C 0.696678 2.781733 -1.759941 0
M  V30 12 C 0.090323 3.315600 -2.994525 0
M  V30 13 C -0.123757 2.203220 -0.815996 0
M  V30 14 N -1.547082 2.099802 -1.033262 0
M  V30 15 C -2.324100 1.487309 -0.009123 0
M  V30 16 N -3.032889 2.244160 0.850417 0
M  V30 17 C -3.736714 1.595336 1.801785 0
M  V30 18 N -3.693731 0.250392 1.840815 0
M  V30 19 N -2.999348 -0.490236 0.999362 0
M  V30 20 C -2.849580 -1.832280 0.911723 0
M  V30 21 C -2.003746 -2.133495 -0.146554 0
M  V30 22 C -1.528710 -3.418323 -0.643456 0
M  V30 23 O -0.266574 -3.347154 -0.848762 0
M  V30 24 C -2.261669 -4.646769 -0.904845 0
M  V30 25 C -3.515806 -5.014203 -0.461008 0
M  V30 26 C -4.057507 -6.240022 -0.814632 0
M  V30 27 C -3.387022 -7.129402 -1.606633 0
M  V30 28 C -2.134617 -6.778885 -2.057677 0
M  V30 29 C -1.610205 -5.566573 -1.701748 0
M  V30 30 C -1.659744 -0.899261 -0.683415 0
M  V30 31 C -0.772695 -0.720053 -1.832614 0
M  V30 32 C -2.277277 0.113573 0.028078 0
M  V30 33 C 0.434935 1.700546 0.350768 0
M  V30 34 H 4.386471 0.106024 5.926419 0
M  V30 35 H 4.495101 -1.528136 6.682802 0
M  V30 36 H 2.928869 -0.944997 6.066339 0
M  V30 37 H 2.710199 -0.985112 3.582655 0
M  V30 38 H 4.157048 -1.537356 2.654158 0
M  V30 39 H 5.367519 0.544659 3.246538 0
M  V30 40 H 3.929241 1.117425 4.234054 0
M  V30 41 H 4.288173 1.408568 1.400333 0
M  V30 42 H 3.613529 2.403939 -0.201646 0
M  V30 43 H 2.677892 3.279261 -2.223921 0
M  V30 44 H -0.402374 2.493284 -3.518014 0
M  V30 45 H 0.890119 3.744768 -3.653413 0
M  V30 46 H -0.629722 4.117281 -2.811373 0
M  V30 47 H -1.923987 2.480678 -1.930506 0
M  V30 48 H -4.364036 2.009805 2.580040 0
M  V30 49 H -3.312286 -2.529787 1.563684 0
M  V30 50 H -4.016421 -4.299220 0.155142 0
M  V30 51 H -5.047789 -6.501168 -0.448762 0
M  V30 52 H -3.832950 -8.080174 -1.869066 0
M  V30 53 H -1.601631 -7.475421 -2.682503 0
M  V30 54 H -0.608902 -5.369656 -2.103892 0
M  V30 55 H 0.274906 -0.592647 -1.442326 0
M  V30 56 H -0.702778 -1.676331 -2.432808 0
M  V30 57 H -1.054870 0.062232 -2.533054 0
M  V30 58 H -0.225773 1.240297 1.102363 0
M  V30 END ATOM
M  V30 BEGIN BOND
M  V30 1 1 1 2
M  V30 2 1 2 3
M  V30 3 1 3 4
M  V30 4 1 4 5
M  V30 5 1 5 6
M  V30 6 2 6 7
M  V30 7 1 6 8
M  V30 8 2 8 9
M  V30 9 1 9 10
M  V30 10 2 10 11
M  V30 11 1 11 12
M  V30 12 1 11 13
M  V30 13 1 13 14
M  V30 14 1 14 15
M  V30 15 2 15 16
M  V30 16 1 16 17
M  V30 17 2 17 18
M  V30 18 1 18 19
M  V30 19 1 19 20
M  V30 20 2 20 21
M  V30 21 1 21 22
M  V30 22 2 22 23
M  V30 23 1 22 24
M  V30 24 2 24 25
M  V30 25 1 25 26
M  V30 26 2 26 27
M  V30 27 1 27 28
M  V30 28 2 28 29
M  V30 29 1 21 30
M  V30 30 1 30 31
M  V30 31 2 30 32
M  V30 32 2 13 33
M  V30 33 1 33 8
M  V30 34 1 32 15
M  V30 35 1 32 19
M  V30 36 1 29 24
M  V30 37 1 1 34
M  V30 38 1 1 35
M  V30 39 1 1 36
M  V30 40 1 3 37
M  V30 41 1 3 38
M  V30 42 1 4 39
M  V30 43 1 4 40
M  V30 44 1 5 41
M  V30 45 1 9 42
M  V30 46 1 10 43
M  V30 47 1 12 44
M  V30 48 1 12 45
M  V30 49 1 12 46
M  V30 50 1 14 47
M  V30 51 1 17 48
M  V30 52 1 20 49
M  V30 53 1 25 50
M  V30 54 1 26 51
M  V30 55 1 27 52
M  V30 56 1 28 53
M  V30 57 1 29 54
M  V30 58 1 31 55
M  V30 59 1 31 56
M  V30 60 1 31 57
M  V30 61 1 33 58
M  V30 END BOND
M  V30 END CTAB
M  END
>  <Dataset>  (819) 
ChEMBL_Kinases

>  <Ligand_Instance>  (819) 
nan

>  <PDB_ID>  (819) 
nan

>  <Standardized_SMILES>  (819) 
COCCNC(=O)c1ccc(C)c(Nc2ncnn3cc(C(=O)c4ccccc4)c(C)c23)c1

>  <Name>  (819) 
nan

>  <Pocket>  (819) 
nan

>  <ATP_Site>  (819) 
nan

>  <Peripheral>  (819) 
nan

>  <Num_H_Atoms_ProtBoundConf>  (819) 
nan

>  <Num_Resolved_Atoms>  (819) 
nan

>  <Num_Not_Resolved_Atoms>  (819) 
nan

$$$$
CHEMBL1807453
     RDKit          3D

  0  0  0  0  0  0  0  0  0  0999 V3000
M  V30 BEGIN CTAB
M  V30 COUNTS 45 48 0 0 0
M  V30 BEGIN ATOM
M  V30 1 C 0.597195 -1.432773 4.920933 0
M  V30 2 C 1.069382 -1.074560 3.550657 0
M  V30 3 C 2.322525 -1.509975 3.099128 0
M  V30 4 C 2.749176 -1.174951 1.831696 0
M  V30 5 C 1.990866 -0.416583 0.965066 0
M  V30 6 C 2.356095 -0.021323 -0.390988 0
M  V30 7 O 1.603846 0.706626 -1.096635 0
M  V30 8 N 3.570973 -0.423868 -1.007617 0
M  V30 9 C 3.954565 -0.043132 -2.355681 0
M  V30 10 C 5.380922 -0.005302 -2.754041 0
M  V30 11 C 4.543576 -1.166731 -3.153264 0
M  V30 12 C 0.762372 -0.008352 1.451290 0
M  V30 13 C 0.291263 -0.316742 2.707732 0
M  V30 14 N -0.999756 0.156769 3.103546 0
M  V30 15 C -1.754393 0.940505 2.184590 0
M  V30 16 N -1.682265 2.305252 2.216608 0
M  V30 17 C -2.403939 3.016197 1.333539 0
M  V30 18 N -3.202063 2.452630 0.410032 0
M  V30 19 N -3.290214 1.134226 0.357322 0
M  V30 20 C -4.010483 0.352746 -0.468769 0
M  V30 21 C -3.735475 -0.949013 -0.094404 0
M  V30 22 C -4.308869 -2.113683 -0.734176 0
M  V30 23 O -5.115945 -2.147794 -1.690171 0
M  V30 24 C -2.841739 -0.986794 0.967722 0
M  V30 25 C -2.266442 -2.150603 1.688721 0
M  V30 26 C -2.587864 0.360985 1.219558 0
M  V30 27 H 1.406368 -2.030980 5.417913 0
M  V30 28 H 0.463262 -0.536368 5.571890 0
M  V30 29 H -0.342163 -2.017602 4.906780 0
M  V30 30 H 2.976163 -2.114751 3.734340 0
M  V30 31 H 3.719117 -1.499717 1.454525 0
M  V30 32 H 4.225433 -1.027219 -0.463121 0
M  V30 33 H 3.253933 0.625209 -2.905395 0
M  V30 34 H 5.711687 0.655815 -3.564883 0
M  V30 35 H 6.165494 -0.175710 -1.959845 0
M  V30 36 H 4.227174 -1.283858 -4.211201 0
M  V30 37 H 4.785336 -2.125870 -2.644574 0
M  V30 38 H 0.130008 0.592390 0.800957 0
M  V30 39 H -1.352961 -0.092207 4.070299 0
M  V30 40 H -2.312851 4.077653 1.399108 0
M  V30 41 H -4.676051 0.657696 -1.271067 0
M  V30 42 H -4.069228 -3.126329 -0.414443 0
M  V30 43 H -1.289787 -2.454397 1.259070 0
M  V30 44 H -2.969978 -3.000302 1.510380 0
M  V30 45 H -2.215430 -1.980212 2.767017 0
M  V30 END ATOM
M  V30 BEGIN BOND
M  V30 1 1 1 2
M  V30 2 2 2 3
M  V30 3 1 3 4
M  V30 4 2 4 5
M  V30 5 1 5 6
M  V30 6 2 6 7
M  V30 7 1 6 8
M  V30 8 1 8 9
M  V30 9 1 9 10
M  V30 10 1 10 11
M  V30 11 1 5 12
M  V30 12 2 12 13
M  V30 13 1 13 14
M  V30 14 1 14 15
M  V30 15 2 15 16
M  V30 16 1 16 17
M  V30 17 2 17 18
M  V30 18 1 18 19
M  V30 19 1 19 20
M  V30 20 2 20 21
M  V30 21 1 21 22
M  V30 22 2 22 23
M  V30 23 1 21 24
M  V30 24 1 24 25
M  V30 25 2 24 26
M  V30 26 1 13 2
M  V30 27 1 26 15
M  V30 28 1 11 9
M  V30 29 1 26 19
M  V30 30 1 1 27
M  V30 31 1 1 28
M  V30 32 1 1 29
M  V30 33 1 3 30
M  V30 34 1 4 31
M  V30 35 1 8 32
M  V30 36 1 9 33
M  V30 37 1 10 34
M  V30 38 1 10 35
M  V30 39 1 11 36
M  V30 40 1 11 37
M  V30 41 1 12 38
M  V30 42 1 14 39
M  V30 43 1 17 40
M  V30 44 1 20 41
M  V30 45 1 22 42
M  V30 46 1 25 43
M  V30 47 1 25 44
M  V30 48 1 25 45
M  V30 END BOND
M  V30 END CTAB
M  END
>  <Dataset>  (820) 
ChEMBL_Kinases

>  <Ligand_Instance>  (820) 
nan

>  <PDB_ID>  (820) 
nan

>  <Standardized_SMILES>  (820) 
Cc1ccc(C(=O)NC2CC2)cc1Nc1ncnn2cc(C=O)c(C)c12

>  <Name>  (820) 
nan

>  <Pocket>  (820) 
nan

>  <ATP_Site>  (820) 
nan

>  <Peripheral>  (820) 
nan

>  <Num_H_Atoms_ProtBoundConf>  (820) 
nan

>  <Num_Resolved_Atoms>  (820) 
nan

>  <Num_Not_Resolved_Atoms>  (820) 
nan

$$$$
CHEMBL1807444
     RDKit          3D

  0  0  0  0  0  0  0  0  0  0999 V3000
M  V30 BEGIN CTAB
M  V30 COUNTS 54 57 0 0 0
M  V30 BEGIN ATOM
M  V30 1 C 4.112126 -2.936709 5.421073 0
M  V30 2 C 5.157423 -3.190898 4.366120 0
M  V30 3 N 5.248383 -2.019655 3.481674 0
M  V30 4 C 4.007982 -1.809624 2.864002 0
M  V30 5 O 3.147305 -2.683711 3.232200 0
M  V30 6 C 3.711665 -0.736428 1.915345 0
M  V30 7 C 4.529222 0.280330 1.472178 0
M  V30 8 C 4.060491 1.197530 0.556281 0
M  V30 9 C 2.780954 1.134984 0.057927 0
M  V30 10 C 2.362550 2.155816 -0.930805 0
M  V30 11 C 1.907152 0.131540 0.467790 0
M  V30 12 N 0.566176 0.042250 -0.048591 0
M  V30 13 C -0.384377 1.066893 0.135646 0
M  V30 14 N 0.004763 2.117524 0.865143 0
M  V30 15 C -0.873971 3.124578 1.077372 0
M  V30 16 N -2.128308 3.048330 0.548047 0
M  V30 17 N -2.456590 1.977547 -0.168762 0
M  V30 18 C -3.649364 1.756633 -0.748458 0
M  V30 19 C -3.584687 0.542835 -1.388225 0
M  V30 20 C -4.682980 -0.091748 -2.118126 0
M  V30 21 O -5.435483 0.419765 -3.017924 0
M  V30 22 C -4.954870 -1.485897 -1.772940 0
M  V30 23 C -4.547424 -2.020122 -0.547568 0
M  V30 24 C -4.764165 -3.339252 -0.151139 0
M  V30 25 C -5.428635 -4.134399 -1.060626 0
M  V30 26 C -5.850083 -3.652393 -2.282222 0
M  V30 27 C -5.619439 -2.320144 -2.657074 0
M  V30 28 C -2.299946 0.022318 -1.181436 0
M  V30 29 C -1.739326 -1.227571 -1.684371 0
M  V30 30 C -1.634353 0.947947 -0.416373 0
M  V30 31 C 2.439117 -0.766974 1.395880 0
M  V30 32 H 3.262330 -3.624098 5.352255 0
M  V30 33 H 4.590242 -3.086610 6.419738 0
M  V30 34 H 3.746702 -1.886286 5.415953 0
M  V30 35 H 6.152558 -3.322429 4.830587 0
M  V30 36 H 4.843129 -4.083542 3.784989 0
M  V30 37 H 6.025677 -1.336045 3.229607 0
M  V30 38 H 5.530090 0.252393 1.921063 0
M  V30 39 H 4.777947 1.971554 0.259644 0
M  V30 40 H 3.163318 2.231742 -1.720586 0
M  V30 41 H 1.455467 1.846536 -1.496815 0
M  V30 42 H 2.192799 3.150719 -0.520658 0
M  V30 43 H 0.638085 -0.884108 -0.489304 0
M  V30 44 H -0.529000 3.964880 1.672967 0
M  V30 45 H -4.546727 2.393709 -0.744276 0
M  V30 46 H -4.030469 -1.337417 0.116280 0
M  V30 47 H -4.392552 -3.608794 0.825550 0
M  V30 48 H -5.576925 -5.156892 -0.712083 0
M  V30 49 H -6.370321 -4.374289 -2.931218 0
M  V30 50 H -5.965172 -1.980576 -3.622533 0
M  V30 51 H -0.811426 -1.105915 -2.277714 0
M  V30 52 H -1.518710 -1.891697 -0.832174 0
M  V30 53 H -2.450771 -1.677709 -2.431674 0
M  V30 54 H 1.703383 -1.529872 1.677064 0
M  V30 END ATOM
M  V30 BEGIN BOND
M  V30 1 1 1 2
M  V30 2 1 2 3
M  V30 3 1 3 4
M  V30 4 2 4 5
M  V30 5 1 4 6
M  V30 6 2 6 7
M  V30 7 1 7 8
M  V30 8 2 8 9
M  V30 9 1 9 10
M  V30 10 1 9 11
M  V30 11 1 11 12
M  V30 12 1 12 13
M  V30 13 2 13 14
M  V30 14 1 14 15
M  V30 15 2 15 16
M  V30 16 1 16 17
M  V30 17 1 17 18
M  V30 18 2 18 19
M  V30 19 1 19 20
M  V30 20 2 20 21
M  V30 21 1 20 22
M  V30 22 2 22 23
M  V30 23 1 23 24
M  V30 24 2 24 25
M  V30 25 1 25 26
M  V30 26 2 26 27
M  V30 27 1 19 28
M  V30 28 1 28 29
M  V30 29 2 28 30
M  V30 30 2 11 31
M  V30 31 1 31 6
M  V30 32 1 30 13
M  V30 33 1 30 17
M  V30 34 1 27 22
M  V30 35 1 1 32
M  V30 36 1 1 33
M  V30 37 1 1 34
M  V30 38 1 2 35
M  V30 39 1 2 36
M  V30 40 1 3 37
M  V30 41 1 7 38
M  V30 42 1 8 39
M  V30 43 1 10 40
M  V30 44 1 10 41
M  V30 45 1 10 42
M  V30 46 1 12 43
M  V30 47 1 15 44
M  V30 48 1 18 45
M  V30 49 1 23 46
M  V30 50 1 24 47
M  V30 51 1 25 48
M  V30 52 1 26 49
M  V30 53 1 27 50
M  V30 54 1 29 51
M  V30 55 1 29 52
M  V30 56 1 29 53
M  V30 57 1 31 54
M  V30 END BOND
M  V30 END CTAB
M  END
>  <Dataset>  (821) 
ChEMBL_Kinases

>  <Ligand_Instance>  (821) 
nan

>  <PDB_ID>  (821) 
nan

>  <Standardized_SMILES>  (821) 
CCNC(=O)c1ccc(C)c(Nc2ncnn3cc(C(=O)c4ccccc4)c(C)c23)c1

>  <Name>  (821) 
nan

>  <Pocket>  (821) 
nan

>  <ATP_Site>  (821) 
nan

>  <Peripheral>  (821) 
nan

>  <Num_H_Atoms_ProtBoundConf>  (821) 
nan

>  <Num_Resolved_Atoms>  (821) 
nan

>  <Num_Not_Resolved_Atoms>  (821) 
nan

$$$$
CHEMBL1801315
     RDKit          3D

  0  0  0  0  0  0  0  0  0  0999 V3000
M  V30 BEGIN CTAB
M  V30 COUNTS 41 45 0 0 0
M  V30 BEGIN ATOM
M  V30 1 O 4.040771 -4.138866 -3.290760 0
M  V30 2 C 3.709545 -4.324371 -2.072092 0
M  V30 3 N 4.133969 -5.460794 -1.322075 0
M  V30 4 O 3.300260 -5.807183 -0.320474 0
M  V30 5 C 3.029220 -4.786157 0.566929 0
M  V30 6 C 2.514977 -3.556969 -0.093353 0
M  V30 7 N 1.734377 -2.558758 0.364002 0
M  V30 8 C 1.582583 -1.702036 -0.661731 0
M  V30 9 C 2.263874 -2.146909 -1.778116 0
M  V30 10 C 2.309100 -1.499112 -2.991649 0
M  V30 11 C 1.610534 -0.295753 -3.103931 0
M  V30 12 C 0.921946 0.174115 -2.009625 0
M  V30 13 C 0.213689 1.350675 -2.050293 0
M  V30 14 N -0.474072 1.850388 -1.008452 0
M  V30 15 C -0.525399 1.226237 0.181997 0
M  V30 16 C -1.273843 1.775829 1.306080 0
M  V30 17 C -1.385086 1.246676 2.500648 0
M  V30 18 C -2.135005 1.799820 3.622806 0
M  V30 19 C -2.186138 1.157979 4.842320 0
M  V30 20 C -2.891136 1.668968 5.912460 0
M  V30 21 C -3.584196 2.857658 5.810044 0
M  V30 22 C -3.552180 3.523638 4.602248 0
M  V30 23 C -2.836565 2.982169 3.554318 0
M  V30 24 C 0.179345 0.044738 0.240594 0
M  V30 25 C 0.894841 -0.496836 -0.806739 0
M  V30 26 C 2.857536 -3.325733 -1.419971 0
M  V30 27 H 5.038937 -5.904482 -1.622604 0
M  V30 28 H 2.285393 -5.196180 1.286159 0
M  V30 29 H 3.923922 -4.522046 1.197150 0
M  V30 30 H 1.313107 -2.438602 1.314924 0
M  V30 31 H 2.858589 -1.898174 -3.824335 0
M  V30 32 H 1.602679 0.271335 -4.036406 0
M  V30 33 H 0.188357 1.937162 -2.967563 0
M  V30 34 H -1.790403 2.711329 1.146338 0
M  V30 35 H -0.867886 0.311171 2.658624 0
M  V30 36 H -1.652332 0.210304 4.975252 0
M  V30 37 H -2.905858 1.125278 6.867227 0
M  V30 38 H -4.137435 3.259717 6.648025 0
M  V30 39 H -4.098837 4.454456 4.532864 0
M  V30 40 H -2.857549 3.549090 2.658197 0
M  V30 41 H 0.199204 -0.525820 1.146043 0
M  V30 END ATOM
M  V30 BEGIN BOND
M  V30 1 2 1 2
M  V30 2 1 2 3
M  V30 3 1 3 4
M  V30 4 1 4 5
M  V30 5 1 5 6
M  V30 6 1 6 7
M  V30 7 1 7 8
M  V30 8 2 8 9
M  V30 9 1 9 10
M  V30 10 2 10 11
M  V30 11 1 11 12
M  V30 12 2 12 13
M  V30 13 1 13 14
M  V30 14 2 14 15
M  V30 15 1 15 16
M  V30 16 2 16 17
M  V30 17 1 17 18
M  V30 18 2 18 19
M  V30 19 1 19 20
M  V30 20 2 20 21
M  V30 21 1 21 22
M  V30 22 2 22 23
M  V30 23 1 15 24
M  V30 24 2 24 25
M  V30 25 1 9 26
M  V30 26 1 26 2
M  V30 27 2 26 6
M  V30 28 1 25 8
M  V30 29 1 25 12
M  V30 30 1 23 18
M  V30 31 1 3 27
M  V30 32 1 5 28
M  V30 33 1 5 29
M  V30 34 1 7 30
M  V30 35 1 10 31
M  V30 36 1 11 32
M  V30 37 1 13 33
M  V30 38 1 16 34
M  V30 39 1 17 35
M  V30 40 1 19 36
M  V30 41 1 20 37
M  V30 42 1 21 38
M  V30 43 1 22 39
M  V30 44 1 23 40
M  V30 45 1 24 41
M  V30 END BOND
M  V30 END CTAB
M  END
>  <Dataset>  (822) 
ChEMBL_Kinases

>  <Ligand_Instance>  (822) 
nan

>  <PDB_ID>  (822) 
nan

>  <Standardized_SMILES>  (822) 
O=C1NOCc2[nH]c3c(ccc4cnc(/C=C/c5ccccc5)cc43)c21

>  <Name>  (822) 
nan

>  <Pocket>  (822) 
nan

>  <ATP_Site>  (822) 
nan

>  <Peripheral>  (822) 
nan

>  <Num_H_Atoms_ProtBoundConf>  (822) 
nan

>  <Num_Resolved_Atoms>  (822) 
nan

>  <Num_Not_Resolved_Atoms>  (822) 
nan

$$$$
CHEMBL1801314
     RDKit          3D

  0  0  0  0  0  0  0  0  0  0999 V3000
M  V30 BEGIN CTAB
M  V30 COUNTS 46 49 0 0 0
M  V30 BEGIN ATOM
M  V30 1 C -0.181628 -5.692942 4.081077 0
M  V30 2 N 0.622965 -4.688088 3.415751 0
M  V30 3 C 0.245684 -4.498955 2.050478 0
M  V30 4 C 1.047603 -3.475052 1.326980 0
M  V30 5 N 0.652297 -2.230357 1.035840 0
M  V30 6 C 1.676101 -1.646800 0.387357 0
M  V30 7 C 2.763900 -2.515373 0.246498 0
M  V30 8 C 3.914191 -2.100764 -0.392079 0
M  V30 9 C 4.035147 -0.821833 -0.912959 0
M  V30 10 C 2.936369 -0.002659 -0.749368 0
M  V30 11 C 2.965162 1.292377 -1.236628 0
M  V30 12 N 1.947055 2.166824 -1.126992 0
M  V30 13 C 0.795028 1.831228 -0.516806 0
M  V30 14 C -0.307159 2.781328 -0.398813 0
M  V30 15 C -1.471918 2.577693 0.162739 0
M  V30 16 C -2.569296 3.533140 0.276549 0
M  V30 17 C -3.752354 3.188222 0.896145 0
M  V30 18 C -4.807651 4.067858 1.018875 0
M  V30 19 C -4.723445 5.337019 0.524041 0
M  V30 20 C -3.557816 5.721778 -0.102632 0
M  V30 21 C -2.500921 4.817572 -0.217109 0
M  V30 22 C 0.729768 0.552407 -0.020083 0
M  V30 23 C 1.761013 -0.360764 -0.120971 0
M  V30 24 C 2.328158 -3.672257 0.857045 0
M  V30 25 C 3.201173 -4.827977 0.907874 0
M  V30 26 O 4.360737 -4.935071 0.457850 0
M  V30 27 O 3.071649 -6.087579 1.418593 0
M  V30 28 H -0.013578 -5.735564 5.155551 0
M  V30 29 H -0.124944 -6.691653 3.578258 0
M  V30 30 H -1.255459 -5.382564 3.946577 0
M  V30 31 H 1.620514 -4.979971 3.459847 0
M  V30 32 H 0.232355 -5.470986 1.477302 0
M  V30 33 H -0.841543 -4.205095 2.062816 0
M  V30 34 H -0.267823 -1.806349 1.269354 0
M  V30 35 H 4.737942 -2.795077 -0.485373 0
M  V30 36 H 4.922332 -0.462516 -1.420164 0
M  V30 37 H 3.810825 1.710380 -1.747499 0
M  V30 38 H -0.152358 3.774807 -0.822865 0
M  V30 39 H -1.618537 1.591371 0.581189 0
M  V30 40 H -3.837954 2.179674 1.297079 0
M  V30 41 H -5.712428 3.740385 1.515702 0
M  V30 42 H -5.541582 6.016580 0.620142 0
M  V30 43 H -3.444674 6.735090 -0.517043 0
M  V30 44 H -1.617263 5.171526 -0.714549 0
M  V30 45 H -0.151835 0.192367 0.484701 0
M  V30 46 H 2.962494 -6.939853 0.877621 0
M  V30 END ATOM
M  V30 BEGIN BOND
M  V30 1 1 1 2
M  V30 2 1 2 3
M  V30 3 1 3 4
M  V30 4 1 4 5
M  V30 5 1 5 6
M  V30 6 2 6 7
M  V30 7 1 7 8
M  V30 8 2 8 9
M  V30 9 1 9 10
M  V30 10 2 10 11
M  V30 11 1 11 12
M  V30 12 2 12 13
M  V30 13 1 13 14
M  V30 14 2 14 15
M  V30 15 1 15 16
M  V30 16 2 16 17
M  V30 17 1 17 18
M  V30 18 2 18 19
M  V30 19 1 19 20
M  V30 20 2 20 21
M  V30 21 1 13 22
M  V30 22 2 22 23
M  V30 23 1 7 24
M  V30 24 1 24 25
M  V30 25 2 25 26
M  V30 26 1 25 27
M  V30 27 2 24 4
M  V30 28 1 23 6
M  V30 29 1 23 10
M  V30 30 1 21 16
M  V30 31 1 1 28
M  V30 32 1 1 29
M  V30 33 1 1 30
M  V30 34 1 2 31
M  V30 35 1 3 32
M  V30 36 1 3 33
M  V30 37 1 5 34
M  V30 38 1 8 35
M  V30 39 1 9 36
M  V30 40 1 11 37
M  V30 41 1 14 38
M  V30 42 1 15 39
M  V30 43 1 17 40
M  V30 44 1 18 41
M  V30 45 1 19 42
M  V30 46 1 20 43
M  V30 47 1 21 44
M  V30 48 1 22 45
M  V30 49 1 27 46
M  V30 END BOND
M  V30 END CTAB
M  END
>  <Dataset>  (823) 
ChEMBL_Kinases

>  <Ligand_Instance>  (823) 
nan

>  <PDB_ID>  (823) 
nan

>  <Standardized_SMILES>  (823) 
CNCc1[nH]c2c(ccc3cnc(/C=C/c4ccccc4)cc32)c1C(=O)O

>  <Name>  (823) 
nan

>  <Pocket>  (823) 
nan

>  <ATP_Site>  (823) 
nan

>  <Peripheral>  (823) 
nan

>  <Num_H_Atoms_ProtBoundConf>  (823) 
nan

>  <Num_Resolved_Atoms>  (823) 
nan

>  <Num_Not_Resolved_Atoms>  (823) 
nan

$$$$
CHEMBL1801313
     RDKit          3D

  0  0  0  0  0  0  0  0  0  0999 V3000
M  V30 BEGIN CTAB
M  V30 COUNTS 43 46 0 0 0
M  V30 BEGIN ATOM
M  V30 1 N -1.329239 -4.012458 3.264619 0
M  V30 2 C -1.940435 -4.521348 2.052435 0
M  V30 3 C -1.601036 -3.617291 0.901944 0
M  V30 4 N -0.840274 -2.485820 0.947794 0
M  V30 5 C -0.794602 -1.985469 -0.317627 0
M  V30 6 C -1.520745 -2.784953 -1.184004 0
M  V30 7 C -1.632171 -2.494531 -2.528452 0
M  V30 8 C -1.001497 -1.372552 -3.030017 0
M  V30 9 C -0.273883 -0.564978 -2.180854 0
M  V30 10 C 0.382948 0.570571 -2.606587 0
M  V30 11 N 1.094831 1.366241 -1.792122 0
M  V30 12 C 1.228709 1.119257 -0.475792 0
M  V30 13 C 2.005974 1.991297 0.403830 0
M  V30 14 C 2.189322 1.828825 1.690743 0
M  V30 15 C 2.968025 2.710070 2.549738 0
M  V30 16 C 3.625525 3.845247 2.128690 0
M  V30 17 C 4.352116 4.656146 2.963488 0
M  V30 18 C 4.452508 4.351333 4.300642 0
M  V30 19 C 3.807526 3.219243 4.767980 0
M  V30 20 C 3.098459 2.447333 3.896360 0
M  V30 21 C 0.580935 -0.008052 -0.034178 0
M  V30 22 C -0.160426 -0.852946 -0.834631 0
M  V30 23 C -2.019345 -3.804509 -0.398780 0
M  V30 24 C -2.866042 -4.935677 -0.825593 0
M  V30 25 O -2.696762 -6.105918 -1.250328 0
M  V30 26 O -4.227660 -4.596312 -0.723543 0
M  V30 27 H -0.752422 -4.738966 3.743277 0
M  V30 28 H -1.991073 -3.536923 3.908335 0
M  V30 29 H -3.041321 -4.588339 2.186037 0
M  V30 30 H -1.565055 -5.548116 1.809546 0
M  V30 31 H -0.380673 -2.083600 1.800575 0
M  V30 32 H -2.216526 -3.149330 -3.192155 0
M  V30 33 H -1.053884 -1.094950 -4.075785 0
M  V30 34 H 0.334791 0.854372 -3.651829 0
M  V30 35 H 2.472989 2.853031 -0.057919 0
M  V30 36 H 1.720482 0.971349 2.131944 0
M  V30 37 H 3.570801 4.118912 1.084696 0
M  V30 38 H 4.853632 5.546813 2.569658 0
M  V30 39 H 5.030389 5.002396 4.946622 0
M  V30 40 H 3.871760 2.952570 5.833519 0
M  V30 41 H 2.591054 1.549674 4.284655 0
M  V30 42 H 0.621096 -0.296564 0.989535 0
M  V30 43 H -4.973833 -5.154460 -1.107676 0
M  V30 END ATOM
M  V30 BEGIN BOND
M  V30 1 1 1 2
M  V30 2 1 2 3
M  V30 3 1 3 4
M  V30 4 1 4 5
M  V30 5 2 5 6
M  V30 6 1 6 7
M  V30 7 2 7 8
M  V30 8 1 8 9
M  V30 9 2 9 10
M  V30 10 1 10 11
M  V30 11 2 11 12
M  V30 12 1 12 13
M  V30 13 2 13 14
M  V30 14 1 14 15
M  V30 15 2 15 16
M  V30 16 1 16 17
M  V30 17 2 17 18
M  V30 18 1 18 19
M  V30 19 2 19 20
M  V30 20 1 12 21
M  V30 21 2 21 22
M  V30 22 1 6 23
M  V30 23 1 23 24
M  V30 24 2 24 25
M  V30 25 1 24 26
M  V30 26 2 23 3
M  V30 27 1 22 5
M  V30 28 1 22 9
M  V30 29 1 20 15
M  V30 30 1 1 27
M  V30 31 1 1 28
M  V30 32 1 2 29
M  V30 33 1 2 30
M  V30 34 1 4 31
M  V30 35 1 7 32
M  V30 36 1 8 33
M  V30 37 1 10 34
M  V30 38 1 13 35
M  V30 39 1 14 36
M  V30 40 1 16 37
M  V30 41 1 17 38
M  V30 42 1 18 39
M  V30 43 1 19 40
M  V30 44 1 20 41
M  V30 45 1 21 42
M  V30 46 1 26 43
M  V30 END BOND
M  V30 END CTAB
M  END
>  <Dataset>  (824) 
ChEMBL_Kinases

>  <Ligand_Instance>  (824) 
nan

>  <PDB_ID>  (824) 
nan

>  <Standardized_SMILES>  (824) 
NCc1[nH]c2c(ccc3cnc(/C=C/c4ccccc4)cc32)c1C(=O)O

>  <Name>  (824) 
nan

>  <Pocket>  (824) 
nan

>  <ATP_Site>  (824) 
nan

>  <Peripheral>  (824) 
nan

>  <Num_H_Atoms_ProtBoundConf>  (824) 
nan

>  <Num_Resolved_Atoms>  (824) 
nan

>  <Num_Not_Resolved_Atoms>  (824) 
nan

$$$$
CHEMBL1801312
     RDKit          3D

  0  0  0  0  0  0  0  0  0  0999 V3000
M  V30 BEGIN CTAB
M  V30 COUNTS 53 58 0 0 0
M  V30 BEGIN ATOM
M  V30 1 C 0.899956 3.483150 3.563249 0
M  V30 2 N 2.061220 2.657435 3.375022 0
M  V30 3 C 2.456641 2.434940 2.001240 0
M  V30 4 C 2.614899 0.982233 2.182636 0
M  V30 5 C 4.037537 0.631312 2.488543 0
M  V30 6 N 4.851159 0.121795 1.469632 0
M  V30 7 C 4.227879 -0.867455 0.667321 0
M  V30 8 O 4.964435 -1.705016 0.042393 0
M  V30 9 C 2.747238 -0.877878 0.595078 0
M  V30 10 C 1.959758 -1.730279 -0.174378 0
M  V30 11 C 0.672439 -1.278744 0.085581 0
M  V30 12 N 0.653114 -0.236471 0.938183 0
M  V30 13 C -0.491542 0.515673 1.374805 0
M  V30 14 C 1.929218 0.038232 1.280852 0
M  V30 15 C -0.347094 -2.048328 -0.620271 0
M  V30 16 C -1.683935 -1.775160 -0.452554 0
M  V30 17 C -2.728860 -2.455278 -1.043871 0
M  V30 18 C -4.144609 -2.162260 -0.864521 0
M  V30 19 C -4.647948 -1.153187 -0.070864 0
M  V30 20 C -5.973742 -0.871639 0.102945 0
M  V30 21 C -6.909645 -1.640127 -0.554508 0
M  V30 22 C -6.449436 -2.661091 -1.359491 0
M  V30 23 C -5.097736 -2.897089 -1.495517 0
M  V30 24 F -4.734343 -3.928149 -2.312543 0
M  V30 25 N -2.395253 -3.492560 -1.867891 0
M  V30 26 C -1.112978 -3.828652 -2.087487 0
M  V30 27 C -0.115828 -3.109140 -1.466886 0
M  V30 28 C 1.250895 -3.531686 -1.754991 0
M  V30 29 C 2.343707 -2.842748 -1.054462 0
M  V30 30 C 1.918462 1.238750 3.534925 0
M  V30 31 H 0.707418 4.010327 2.593241 0
M  V30 32 H 0.001414 2.862182 3.823471 0
M  V30 33 H 1.088820 4.283812 4.303759 0
M  V30 34 H 1.745852 2.854060 1.292666 0
M  V30 35 H 3.436783 2.986008 1.844159 0
M  V30 36 H 4.036798 -0.126864 3.329211 0
M  V30 37 H 4.534484 1.525144 2.964827 0
M  V30 38 H 5.831751 0.433040 1.303289 0
M  V30 39 H -0.141152 1.529955 1.768077 0
M  V30 40 H -1.166489 0.033293 2.067371 0
M  V30 41 H -1.117378 0.914878 0.510205 0
M  V30 42 H -2.030040 -0.998973 0.188243 0
M  V30 43 H -3.962905 -0.516438 0.470160 0
M  V30 44 H -6.306097 -0.056892 0.746737 0
M  V30 45 H -7.957586 -1.417759 -0.417260 0
M  V30 46 H -7.192281 -3.264810 -1.876281 0
M  V30 47 H -0.902587 -4.654052 -2.744948 0
M  V30 48 H 1.303707 -4.624514 -1.466384 0
M  V30 49 H 1.411633 -3.559101 -2.867259 0
M  V30 50 H 3.040392 -2.405153 -1.830330 0
M  V30 51 H 3.016823 -3.548886 -0.483109 0
M  V30 52 H 0.906262 0.825713 3.619057 0
M  V30 53 H 2.544830 0.890465 4.406532 0
M  V30 END ATOM
M  V30 BEGIN BOND
M  V30 1 1 1 2
M  V30 2 1 2 3
M  V30 3 1 3 4
M  V30 4 1 4 5
M  V30 5 1 5 6
M  V30 6 1 6 7
M  V30 7 2 7 8
M  V30 8 1 7 9
M  V30 9 1 9 10
M  V30 10 2 10 11
M  V30 11 1 11 12
M  V30 12 1 12 13
M  V30 13 1 12 14
M  V30 14 1 11 15
M  V30 15 2 15 16
M  V30 16 1 16 17
M  V30 17 1 17 18
M  V30 18 2 18 19
M  V30 19 1 19 20
M  V30 20 2 20 21
M  V30 21 1 21 22
M  V30 22 2 22 23
M  V30 23 1 23 24
M  V30 24 2 17 25
M  V30 25 1 25 26
M  V30 26 2 26 27
M  V30 27 1 27 28
M  V30 28 1 28 29
M  V30 29 1 4 30
M  V30 30 1 30 2
M  V30 31 1 14 4
M  V30 32 1 27 15
M  V30 33 2 14 9
M  V30 34 1 23 18
M  V30 35 1 29 10
M  V30 36 1 1 31
M  V30 37 1 1 32
M  V30 38 1 1 33
M  V30 39 1 3 34
M  V30 40 1 3 35
M  V30 41 1 5 36
M  V30 42 1 5 37
M  V30 43 1 6 38
M  V30 44 1 13 39
M  V30 45 1 13 40
M  V30 46 1 13 41
M  V30 47 1 16 42
M  V30 48 1 19 43
M  V30 49 1 20 44
M  V30 50 1 21 45
M  V30 51 1 22 46
M  V30 52 1 26 47
M  V30 53 1 28 48
M  V30 54 1 28 49
M  V30 55 1 29 50
M  V30 56 1 29 51
M  V30 57 1 30 52
M  V30 58 1 30 53
M  V30 END BOND
M  V30 END CTAB
M  END
>  <Dataset>  (825) 
ChEMBL_Kinases

>  <Ligand_Instance>  (825) 
nan

>  <PDB_ID>  (825) 
nan

>  <Standardized_SMILES>  (825) 
CN1CC2(CNC(=O)c3c4c(n(C)c32)-c2cc(-c3ccccc3F)ncc2CC4)C1

>  <Name>  (825) 
nan

>  <Pocket>  (825) 
nan

>  <ATP_Site>  (825) 
nan

>  <Peripheral>  (825) 
nan

>  <Num_H_Atoms_ProtBoundConf>  (825) 
nan

>  <Num_Resolved_Atoms>  (825) 
nan

>  <Num_Not_Resolved_Atoms>  (825) 
nan

$$$$
CHEMBL1801311
     RDKit          3D

  0  0  0  0  0  0  0  0  0  0999 V3000
M  V30 BEGIN CTAB
M  V30 COUNTS 50 55 0 0 0
M  V30 BEGIN ATOM
M  V30 1 C -0.330250 0.339935 -1.082503 0
M  V30 2 N 0.534653 0.376228 0.073394 0
M  V30 3 C 0.514691 -0.366916 1.182406 0
M  V30 4 C 1.466697 0.000438 2.103050 0
M  V30 5 C 2.126703 1.062983 1.500420 0
M  V30 6 C 1.528375 1.265884 0.242243 0
M  V30 7 C 2.231620 2.320236 -0.508026 0
M  V30 8 C 1.975278 2.571299 -1.921733 0
M  V30 9 N 3.432725 2.831789 -2.073789 0
M  V30 10 C 3.602322 1.828160 -1.043277 0
M  V30 11 C 2.505684 3.533423 0.349351 0
M  V30 12 N 3.622885 3.106377 1.231572 0
M  V30 13 C 3.186068 1.971798 2.018098 0
M  V30 14 O 3.731466 1.766998 3.165016 0
M  V30 15 C 1.778097 -0.556270 3.436769 0
M  V30 16 C 0.913020 -1.689833 3.867746 0
M  V30 17 C -0.058958 -2.025480 2.809583 0
M  V30 18 C -0.846997 -3.118051 3.189574 0
M  V30 19 N -1.812418 -3.625241 2.404261 0
M  V30 20 C -2.078648 -3.093609 1.176592 0
M  V30 21 C -3.135376 -3.678666 0.362138 0
M  V30 22 C -3.512789 -3.247842 -0.891427 0
M  V30 23 C -4.522148 -3.837922 -1.622440 0
M  V30 24 C -5.215027 -4.916001 -1.111579 0
M  V30 25 C -4.861942 -5.372502 0.141606 0
M  V30 26 C -3.846842 -4.756823 0.843305 0
M  V30 27 F -3.568499 -5.280619 2.077866 0
M  V30 28 C -1.306159 -2.021104 0.801050 0
M  V30 29 C -0.319028 -1.484493 1.578365 0
M  V30 30 H -1.428621 0.453840 -0.802599 0
M  V30 31 H -0.208383 -0.529441 -1.736154 0
M  V30 32 H -0.206468 1.289375 -1.697666 0
M  V30 33 H 1.787000 1.724568 -2.621386 0
M  V30 34 H 1.372724 3.480915 -2.111870 0
M  V30 35 H 3.697633 3.791229 -1.882032 0
M  V30 36 H 4.446921 2.097883 -0.377353 0
M  V30 37 H 3.599662 0.811521 -1.433540 0
M  V30 38 H 2.777294 4.406370 -0.237055 0
M  V30 39 H 1.634771 3.707061 0.987258 0
M  V30 40 H 4.607479 3.400932 1.425839 0
M  V30 41 H 2.851135 -0.907286 3.463828 0
M  V30 42 H 1.753977 0.292042 4.190170 0
M  V30 43 H 1.562212 -2.562834 4.124371 0
M  V30 44 H 0.356625 -1.350724 4.781906 0
M  V30 45 H -0.779757 -3.675991 4.136924 0
M  V30 46 H -2.990509 -2.407920 -1.317501 0
M  V30 47 H -4.746454 -3.420244 -2.610657 0
M  V30 48 H -5.985146 -5.301882 -1.766136 0
M  V30 49 H -5.414638 -6.209847 0.515079 0
M  V30 50 H -1.521135 -1.635180 -0.161795 0
M  V30 END ATOM
M  V30 BEGIN BOND
M  V30 1 1 1 2
M  V30 2 1 2 3
M  V30 3 2 3 4
M  V30 4 1 4 5
M  V30 5 2 5 6
M  V30 6 1 6 7
M  V30 7 1 7 8
M  V30 8 1 8 9
M  V30 9 1 9 10
M  V30 10 1 7 11
M  V30 11 1 11 12
M  V30 12 1 12 13
M  V30 13 2 13 14
M  V30 14 1 4 15
M  V30 15 1 15 16
M  V30 16 1 16 17
M  V30 17 2 17 18
M  V30 18 1 18 19
M  V30 19 2 19 20
M  V30 20 1 20 21
M  V30 21 2 21 22
M  V30 22 1 22 23
M  V30 23 2 23 24
M  V30 24 1 24 25
M  V30 25 2 25 26
M  V30 26 1 26 27
M  V30 27 1 20 28
M  V30 28 2 28 29
M  V30 29 1 6 2
M  V30 30 1 10 7
M  V30 31 1 29 17
M  V30 32 1 29 3
M  V30 33 1 13 5
M  V30 34 1 26 21
M  V30 35 1 1 30
M  V30 36 1 1 31
M  V30 37 1 1 32
M  V30 38 1 8 33
M  V30 39 1 8 34
M  V30 40 1 9 35
M  V30 41 1 10 36
M  V30 42 1 10 37
M  V30 43 1 11 38
M  V30 44 1 11 39
M  V30 45 1 12 40
M  V30 46 1 15 41
M  V30 47 1 15 42
M  V30 48 1 16 43
M  V30 49 1 16 44
M  V30 50 1 18 45
M  V30 51 1 22 46
M  V30 52 1 23 47
M  V30 53 1 24 48
M  V30 54 1 25 49
M  V30 55 1 28 50
M  V30 END BOND
M  V30 END CTAB
M  END
>  <Dataset>  (826) 
ChEMBL_Kinases

>  <Ligand_Instance>  (826) 
nan

>  <PDB_ID>  (826) 
nan

>  <Standardized_SMILES>  (826) 
Cn1c2c(c3c1C1(CNC1)CNC3=O)CCc1cnc(-c3ccccc3F)cc1-2

>  <Name>  (826) 
nan

>  <Pocket>  (826) 
nan

>  <ATP_Site>  (826) 
nan

>  <Peripheral>  (826) 
nan

>  <Num_H_Atoms_ProtBoundConf>  (826) 
nan

>  <Num_Resolved_Atoms>  (826) 
nan

>  <Num_Not_Resolved_Atoms>  (826) 
nan

$$$$
CHEMBL1801310
     RDKit          3D

  0  0  0  0  0  0  0  0  0  0999 V3000
M  V30 BEGIN CTAB
M  V30 COUNTS 49 54 0 0 0
M  V30 BEGIN ATOM
M  V30 1 C 0.326461 -3.038900 -2.574707 0
M  V30 2 N 1.677304 -2.615781 -2.878551 0
M  V30 3 C 2.646828 -2.785922 -1.815063 0
M  V30 4 C 2.792295 -1.302010 -1.600457 0
M  V30 5 C 4.150323 -0.758788 -1.912084 0
M  V30 6 N 4.977197 -0.525942 -0.773723 0
M  V30 7 C 4.381771 -0.000406 0.405930 0
M  V30 8 O 5.076776 0.566744 1.279228 0
M  V30 9 C 2.944096 -0.095383 0.654579 0
M  V30 10 C 2.238282 -0.741605 -0.366231 0
M  V30 11 O 0.972491 -0.750898 -0.005219 0
M  V30 12 C 0.831490 -0.163762 1.156306 0
M  V30 13 C 2.035605 0.283108 1.647917 0
M  V30 14 C 2.447369 0.988721 2.868473 0
M  V30 15 C 1.261206 1.253184 3.733297 0
M  V30 16 C -0.023512 0.761584 3.176836 0
M  V30 17 C -1.121849 1.024622 4.005363 0
M  V30 18 N -2.364509 0.648553 3.658528 0
M  V30 19 C -2.638451 0.007970 2.518952 0
M  V30 20 C -4.007904 -0.373985 2.198697 0
M  V30 21 C -4.418980 -1.034394 1.062164 0
M  V30 22 C -5.731806 -1.353451 0.844975 0
M  V30 23 C -6.723351 -1.029944 1.757050 0
M  V30 24 C -6.358479 -0.368783 2.908782 0
M  V30 25 F -7.262179 -0.015925 3.850643 0
M  V30 26 C -5.030021 -0.067052 3.088281 0
M  V30 27 C -1.603771 -0.273126 1.674917 0
M  V30 28 C -0.323022 0.101234 2.007122 0
M  V30 29 C 1.893390 -1.185958 -2.811181 0
M  V30 30 H 0.041877 -2.917420 -1.520408 0
M  V30 31 H -0.401042 -2.442120 -3.191527 0
M  V30 32 H 0.210208 -4.091856 -2.900777 0
M  V30 33 H 3.537751 -3.309900 -2.214093 0
M  V30 34 H 2.229573 -3.275550 -0.894547 0
M  V30 35 H 4.666213 -1.542842 -2.540650 0
M  V30 36 H 4.105747 0.138533 -2.577355 0
M  V30 37 H 5.996943 -0.699366 -0.698248 0
M  V30 38 H 2.917694 1.982471 2.629440 0
M  V30 39 H 3.212117 0.435532 3.450501 0
M  V30 40 H 1.180147 2.344743 3.998984 0
M  V30 41 H 1.448172 0.767326 4.736300 0
M  V30 42 H -1.047782 1.535969 4.958098 0
M  V30 43 H -3.659624 -1.294538 0.340056 0
M  V30 44 H -6.055663 -1.874292 -0.051461 0
M  V30 45 H -7.758969 -1.280362 1.588137 0
M  V30 46 H -4.758709 0.459298 4.010887 0
M  V30 47 H -1.730593 -0.786793 0.733456 0
M  V30 48 H 2.410447 -0.847720 -3.741919 0
M  V30 49 H 1.003344 -0.562270 -2.630099 0
M  V30 END ATOM
M  V30 BEGIN BOND
M  V30 1 1 1 2
M  V30 2 1 2 3
M  V30 3 1 3 4
M  V30 4 1 4 5
M  V30 5 1 5 6
M  V30 6 1 6 7
M  V30 7 2 7 8
M  V30 8 1 7 9
M  V30 9 2 9 10
M  V30 10 1 10 11
M  V30 11 1 11 12
M  V30 12 2 12 13
M  V30 13 1 13 14
M  V30 14 1 14 15
M  V30 15 1 15 16
M  V30 16 2 16 17
M  V30 17 1 17 18
M  V30 18 2 18 19
M  V30 19 1 19 20
M  V30 20 2 20 21
M  V30 21 1 21 22
M  V30 22 2 22 23
M  V30 23 1 23 24
M  V30 24 1 24 25
M  V30 25 2 24 26
M  V30 26 1 19 27
M  V30 27 2 27 28
M  V30 28 1 4 29
M  V30 29 1 29 2
M  V30 30 1 10 4
M  V30 31 1 28 12
M  V30 32 1 13 9
M  V30 33 1 28 16
M  V30 34 1 26 20
M  V30 35 1 1 30
M  V30 36 1 1 31
M  V30 37 1 1 32
M  V30 38 1 3 33
M  V30 39 1 3 34
M  V30 40 1 5 35
M  V30 41 1 5 36
M  V30 42 1 6 37
M  V30 43 1 14 38
M  V30 44 1 14 39
M  V30 45 1 15 40
M  V30 46 1 15 41
M  V30 47 1 17 42
M  V30 48 1 21 43
M  V30 49 1 22 44
M  V30 50 1 23 45
M  V30 51 1 26 46
M  V30 52 1 27 47
M  V30 53 1 29 48
M  V30 54 1 29 49
M  V30 END BOND
M  V30 END CTAB
M  END
>  <Dataset>  (827) 
ChEMBL_Kinases

>  <Ligand_Instance>  (827) 
nan

>  <PDB_ID>  (827) 
nan

>  <Standardized_SMILES>  (827) 
CN1CC2(CNC(=O)c3c2oc2c3CCc3cnc(-c4cccc(F)c4)cc3-2)C1

>  <Name>  (827) 
nan

>  <Pocket>  (827) 
nan

>  <ATP_Site>  (827) 
nan

>  <Peripheral>  (827) 
nan

>  <Num_H_Atoms_ProtBoundConf>  (827) 
nan

>  <Num_Resolved_Atoms>  (827) 
nan

>  <Num_Not_Resolved_Atoms>  (827) 
nan

$$$$
CHEMBL1801309
     RDKit          3D

  0  0  0  0  0  0  0  0  0  0999 V3000
M  V30 BEGIN CTAB
M  V30 COUNTS 46 51 0 0 0
M  V30 BEGIN ATOM
M  V30 1 O 5.157824 -0.637465 2.280146 0
M  V30 2 C 4.597927 -0.473894 1.157436 0
M  V30 3 N 5.297999 -0.254094 -0.062333 0
M  V30 4 C 4.680191 -0.715894 -1.291389 0
M  V30 5 C 3.324557 -0.099105 -1.392814 0
M  V30 6 C 2.555662 -0.401208 -2.653273 0
M  V30 7 N 2.873703 0.936708 -3.119132 0
M  V30 8 C 3.338082 1.347265 -1.815974 0
M  V30 9 C 2.567214 -0.328932 -0.137117 0
M  V30 10 O 1.266013 -0.396217 0.010257 0
M  V30 11 C 0.921645 -0.610700 1.257972 0
M  V30 12 C 2.097091 -0.694530 2.013417 0
M  V30 13 C 3.120649 -0.513536 1.110105 0
M  V30 14 C 2.198600 -0.925269 3.452319 0
M  V30 15 C 0.905277 -1.082998 4.157273 0
M  V30 16 C -0.288103 -0.987686 3.327507 0
M  V30 17 C -1.516378 -1.128391 3.941105 0
M  V30 18 N -2.670237 -1.055514 3.257313 0
M  V30 19 C -2.742567 -0.842831 1.935449 0
M  V30 20 C -4.022171 -0.771867 1.237614 0
M  V30 21 C -4.178710 -0.559923 -0.096923 0
M  V30 22 C -5.402551 -0.497557 -0.730588 0
M  V30 23 C -6.525668 -0.662191 0.051397 0
M  V30 24 C -6.447977 -0.881497 1.415049 0
M  V30 25 F -7.573361 -1.037249 2.141978 0
M  V30 26 C -5.178004 -0.930639 1.976880 0
M  V30 27 C -1.539050 -0.696718 1.283556 0
M  V30 28 C -0.344449 -0.768560 1.969320 0
M  V30 29 H 6.219258 0.230288 0.017921 0
M  V30 30 H 5.321847 -0.518994 -2.173187 0
M  V30 31 H 4.518038 -1.814832 -1.172344 0
M  V30 32 H 3.060880 -1.215986 -3.206569 0
M  V30 33 H 1.498422 -0.623627 -2.489577 0
M  V30 34 H 1.972852 1.456006 -3.335849 0
M  V30 35 H 2.620294 1.936650 -1.223633 0
M  V30 36 H 4.365695 1.744359 -1.776456 0
M  V30 37 H 2.862685 -1.798574 3.661628 0
M  V30 38 H 2.745867 -0.037813 3.885066 0
M  V30 39 H 0.864558 -2.080143 4.674136 0
M  V30 40 H 0.815621 -0.350595 5.008746 0
M  V30 41 H -1.606255 -1.304830 5.007063 0
M  V30 42 H -3.308860 -0.431862 -0.705952 0
M  V30 43 H -5.444102 -0.325277 -1.797866 0
M  V30 44 H -7.481407 -0.614093 -0.439733 0
M  V30 45 H -5.112266 -1.103995 3.055699 0
M  V30 46 H -1.498037 -0.522663 0.222259 0
M  V30 END ATOM
M  V30 BEGIN BOND
M  V30 1 2 1 2
M  V30 2 1 2 3
M  V30 3 1 3 4
M  V30 4 1 4 5
M  V30 5 1 5 6
M  V30 6 1 6 7
M  V30 7 1 7 8
M  V30 8 1 5 9
M  V30 9 1 9 10
M  V30 10 1 10 11
M  V30 11 2 11 12
M  V30 12 1 12 13
M  V30 13 1 12 14
M  V30 14 1 14 15
M  V30 15 1 15 16
M  V30 16 2 16 17
M  V30 17 1 17 18
M  V30 18 2 18 19
M  V30 19 1 19 20
M  V30 20 2 20 21
M  V30 21 1 21 22
M  V30 22 2 22 23
M  V30 23 1 23 24
M  V30 24 1 24 25
M  V30 25 2 24 26
M  V30 26 1 19 27
M  V30 27 2 27 28
M  V30 28 1 13 2
M  V30 29 1 28 16
M  V30 30 1 8 5
M  V30 31 2 13 9
M  V30 32 1 26 20
M  V30 33 1 28 11
M  V30 34 1 3 29
M  V30 35 1 4 30
M  V30 36 1 4 31
M  V30 37 1 6 32
M  V30 38 1 6 33
M  V30 39 1 7 34
M  V30 40 1 8 35
M  V30 41 1 8 36
M  V30 42 1 14 37
M  V30 43 1 14 38
M  V30 44 1 15 39
M  V30 45 1 15 40
M  V30 46 1 17 41
M  V30 47 1 21 42
M  V30 48 1 22 43
M  V30 49 1 23 44
M  V30 50 1 26 45
M  V30 51 1 27 46
M  V30 END BOND
M  V30 END CTAB
M  END
>  <Dataset>  (828) 
ChEMBL_Kinases

>  <Ligand_Instance>  (828) 
nan

>  <PDB_ID>  (828) 
nan

>  <Standardized_SMILES>  (828) 
O=C1NCC2(CNC2)c2oc3c(c21)CCc1cnc(-c2cccc(F)c2)cc1-3

>  <Name>  (828) 
nan

>  <Pocket>  (828) 
nan

>  <ATP_Site>  (828) 
nan

>  <Peripheral>  (828) 
nan

>  <Num_H_Atoms_ProtBoundConf>  (828) 
nan

>  <Num_Resolved_Atoms>  (828) 
nan

>  <Num_Not_Resolved_Atoms>  (828) 
nan

$$$$
CHEMBL1801308
     RDKit          3D

  0  0  0  0  0  0  0  0  0  0999 V3000
M  V30 BEGIN CTAB
M  V30 COUNTS 69 75 0 0 0
M  V30 BEGIN ATOM
M  V30 1 C 3.194532 -3.275997 5.068071 0
M  V30 2 N 4.409699 -2.483611 4.925293 0
M  V30 3 C 4.782599 -2.230174 3.539048 0
M  V30 4 C 4.915025 -0.751941 3.819604 0
M  V30 5 C 6.338774 -0.299469 4.020441 0
M  V30 6 N 6.370293 1.096140 4.362765 0
M  V30 7 C 5.743566 1.962454 3.404422 0
M  V30 8 O 6.107633 3.167954 3.217680 0
M  V30 9 C 4.631939 1.432279 2.604179 0
M  V30 10 C 4.252805 0.113075 2.826962 0
M  V30 11 N 3.215045 -0.199807 1.999398 0
M  V30 12 C 2.957420 0.888406 1.285559 0
M  V30 13 C 3.796038 1.925412 1.612674 0
M  V30 14 C 3.866094 3.306446 1.078775 0
M  V30 15 C 2.868201 3.588236 0.015663 0
M  V30 16 C 1.984735 2.425562 -0.293568 0
M  V30 17 C 1.070488 2.736584 -1.278995 0
M  V30 18 N 0.173803 1.815595 -1.708791 0
M  V30 19 C 0.178671 0.571562 -1.159467 0
M  V30 20 C -0.806700 -0.373640 -1.663939 0
M  V30 21 C -0.885095 -1.676031 -1.172364 0
M  V30 22 C -1.852263 -2.491820 -1.721561 0
M  V30 23 C -2.753242 -2.118329 -2.724890 0
M  V30 24 O -3.560583 -3.152850 -3.031825 0
M  V30 25 C -4.598813 -3.266166 -3.938327 0
M  V30 26 C -5.793365 -2.400798 -3.742604 0
M  V30 27 N -6.485107 -2.599223 -2.484150 0
M  V30 28 C -5.744238 -2.158012 -1.354924 0
M  V30 29 C -6.623535 -1.892508 -0.145102 0
M  V30 30 O -7.594146 -0.950395 -0.541575 0
M  V30 31 C -8.475112 -1.661494 -1.344174 0
M  V30 32 C -7.793398 -2.057233 -2.605023 0
M  V30 33 C -2.625566 -0.810737 -3.172660 0
M  V30 34 C -1.673447 0.036742 -2.650977 0
M  V30 35 N 1.068145 0.267765 -0.199954 0
M  V30 36 C 1.970772 1.158183 0.248640 0
M  V30 37 C 4.156547 -1.043596 5.082800 0
M  V30 38 H 3.186337 -4.128757 4.367254 0
M  V30 39 H 3.152162 -3.674274 6.101243 0
M  V30 40 H 2.289830 -2.635508 4.925173 0
M  V30 41 H 5.736889 -2.729143 3.279847 0
M  V30 42 H 3.941227 -2.451031 2.854903 0
M  V30 43 H 6.890882 -0.462317 3.085164 0
M  V30 44 H 6.851818 -0.879164 4.810608 0
M  V30 45 H 6.783134 1.572757 5.208665 0
M  V30 46 H 2.700693 -1.086617 1.907543 0
M  V30 47 H 4.904469 3.402355 0.649723 0
M  V30 48 H 3.752106 4.054565 1.896281 0
M  V30 49 H 3.394362 3.896746 -0.926734 0
M  V30 50 H 2.237072 4.459177 0.334529 0
M  V30 51 H 0.972128 3.705286 -1.795046 0
M  V30 52 H -0.179314 -1.933089 -0.401419 0
M  V30 53 H -1.792826 -3.483367 -1.236083 0
M  V30 54 H -4.197542 -3.029649 -4.966749 0
M  V30 55 H -4.958789 -4.317838 -4.026939 0
M  V30 56 H -5.514148 -1.348314 -3.808338 0
M  V30 57 H -6.517143 -2.546642 -4.607680 0
M  V30 58 H -4.977982 -2.889943 -1.046766 0
M  V30 59 H -5.210242 -1.197830 -1.566314 0
M  V30 60 H -7.117467 -2.786914 0.250046 0
M  V30 61 H -6.007337 -1.426124 0.635494 0
M  V30 62 H -9.345762 -1.029790 -1.617846 0
M  V30 63 H -8.765286 -2.557658 -0.772328 0
M  V30 64 H -8.407495 -2.795415 -3.179877 0
M  V30 65 H -7.731136 -1.127284 -3.239700 0
M  V30 66 H -3.331630 -0.568653 -3.947830 0
M  V30 67 H -1.661338 1.037226 -3.072902 0
M  V30 68 H 4.662442 -0.672250 5.974249 0
M  V30 69 H 3.080511 -0.774883 5.059050 0
M  V30 END ATOM
M  V30 BEGIN BOND
M  V30 1 1 1 2
M  V30 2 1 2 3
M  V30 3 1 3 4
M  V30 4 1 4 5
M  V30 5 1 5 6
M  V30 6 1 6 7
M  V30 7 2 7 8
M  V30 8 1 7 9
M  V30 9 2 9 10
M  V30 10 1 10 11
M  V30 11 1 11 12
M  V30 12 2 12 13
M  V30 13 1 13 14
M  V30 14 1 14 15
M  V30 15 1 15 16
M  V30 16 2 16 17
M  V30 17 1 17 18
M  V30 18 2 18 19
M  V30 19 1 19 20
M  V30 20 2 20 21
M  V30 21 1 21 22
M  V30 22 2 22 23
M  V30 23 1 23 24
M  V30 24 1 24 25
M  V30 25 1 25 26
M  V30 26 1 26 27
M  V30 27 1 27 28
M  V30 28 1 28 29
M  V30 29 1 29 30
M  V30 30 1 30 31
M  V30 31 1 31 32
M  V30 32 1 23 33
M  V30 33 2 33 34
M  V30 34 1 19 35
M  V30 35 2 35 36
M  V30 36 1 4 37
M  V30 37 1 37 2
M  V30 38 1 10 4
M  V30 39 1 36 12
M  V30 40 1 13 9
M  V30 41 1 36 16
M  V30 42 1 34 20
M  V30 43 1 32 27
M  V30 44 1 1 38
M  V30 45 1 1 39
M  V30 46 1 1 40
M  V30 47 1 3 41
M  V30 48 1 3 42
M  V30 49 1 5 43
M  V30 50 1 5 44
M  V30 51 1 6 45
M  V30 52 1 11 46
M  V30 53 1 14 47
M  V30 54 1 14 48
M  V30 55 1 15 49
M  V30 56 1 15 50
M  V30 57 1 17 51
M  V30 58 1 21 52
M  V30 59 1 22 53
M  V30 60 1 25 54
M  V30 61 1 25 55
M  V30 62 1 26 56
M  V30 63 1 26 57
M  V30 64 1 28 58
M  V30 65 1 28 59
M  V30 66 1 29 60
M  V30 67 1 29 61
M  V30 68 1 31 62
M  V30 69 1 31 63
M  V30 70 1 32 64
M  V30 71 1 32 65
M  V30 72 1 33 66
M  V30 73 1 34 67
M  V30 74 1 37 68
M  V30 75 1 37 69
M  V30 END BOND
M  V30 END CTAB
M  END
>  <Dataset>  (829) 
ChEMBL_Kinases

>  <Ligand_Instance>  (829) 
nan

>  <PDB_ID>  (829) 
nan

>  <Standardized_SMILES>  (829) 
CN1CC2(CNC(=O)c3c2[nH]c2c3CCc3cnc(-c4ccc(OCCN5CCOCC5)cc4)nc3-2)C1

>  <Name>  (829) 
nan

>  <Pocket>  (829) 
nan

>  <ATP_Site>  (829) 
nan

>  <Peripheral>  (829) 
nan

>  <Num_H_Atoms_ProtBoundConf>  (829) 
nan

>  <Num_Resolved_Atoms>  (829) 
nan

>  <Num_Not_Resolved_Atoms>  (829) 
nan

$$$$
CHEMBL1801307
     RDKit          3D

  0  0  0  0  0  0  0  0  0  0999 V3000
M  V30 BEGIN CTAB
M  V30 COUNTS 48 53 0 0 0
M  V30 BEGIN ATOM
M  V30 1 C 1.195304 -4.838348 -0.647270 0
M  V30 2 N 1.523646 -3.447336 -0.461559 0
M  V30 3 C 2.907156 -3.190191 -0.029584 0
M  V30 4 C 2.756727 -1.878456 -0.813450 0
M  V30 5 C 4.006731 -1.326907 -1.388215 0
M  V30 6 N 4.772312 -0.692863 -0.334172 0
M  V30 7 C 4.081801 0.299861 0.421682 0
M  V30 8 O 4.672953 1.267531 0.970034 0
M  V30 9 C 2.622752 0.206319 0.577656 0
M  V30 10 C 2.018005 -0.861443 -0.034418 0
M  V30 11 N 0.681112 -0.814514 0.195873 0
M  V30 12 C 0.454586 0.274865 0.946147 0
M  V30 13 C 1.622551 0.951051 1.216672 0
M  V30 14 C 1.895648 2.187687 1.989710 0
M  V30 15 C 0.645456 2.781096 2.564113 0
M  V30 16 C -0.577398 2.007471 2.238822 0
M  V30 17 C -1.746840 2.558405 2.775756 0
M  V30 18 N -2.950258 1.988976 2.581224 0
M  V30 19 C -3.096115 0.863992 1.863446 0
M  V30 20 C -4.344302 0.162240 1.588630 0
M  V30 21 C -5.503826 0.700607 2.115836 0
M  V30 22 C -6.707698 0.080132 1.887822 0
M  V30 23 C -6.753493 -1.073655 1.136144 0
M  V30 24 F -7.860754 -1.805416 0.820515 0
M  V30 25 N -5.615181 -1.581878 0.631924 0
M  V30 26 C -4.429916 -0.996354 0.839742 0
M  V30 27 N -1.979031 0.321813 1.340105 0
M  V30 28 C -0.758550 0.854846 1.508162 0
M  V30 29 C 1.920332 -2.750047 -1.694239 0
M  V30 30 H 1.513872 -5.445490 0.204808 0
M  V30 31 H 0.068824 -4.887238 -0.643038 0
M  V30 32 H 1.534377 -5.209879 -1.637315 0
M  V30 33 H 2.984840 -2.931716 1.043419 0
M  V30 34 H 3.638283 -3.890685 -0.443866 0
M  V30 35 H 4.599897 -2.163975 -1.846893 0
M  V30 36 H 3.768040 -0.598761 -2.162586 0
M  V30 37 H 5.778628 -0.862633 -0.042888 0
M  V30 38 H -0.079341 -1.450693 -0.109094 0
M  V30 39 H 2.473713 2.927459 1.394664 0
M  V30 40 H 2.581477 1.939964 2.848605 0
M  V30 41 H 0.730325 2.859072 3.679604 0
M  V30 42 H 0.579332 3.826695 2.187691 0
M  V30 43 H -1.785824 3.459999 3.374276 0
M  V30 44 H -5.544767 1.599393 2.712833 0
M  V30 45 H -7.685219 0.398718 2.243338 0
M  V30 46 H -3.491749 -1.366918 0.455939 0
M  V30 47 H 1.078504 -2.271378 -2.210777 0
M  V30 48 H 2.547106 -3.348630 -2.361107 0
M  V30 END ATOM
M  V30 BEGIN BOND
M  V30 1 1 1 2
M  V30 2 1 2 3
M  V30 3 1 3 4
M  V30 4 1 4 5
M  V30 5 1 5 6
M  V30 6 1 6 7
M  V30 7 2 7 8
M  V30 8 1 7 9
M  V30 9 2 9 10
M  V30 10 1 10 11
M  V30 11 1 11 12
M  V30 12 2 12 13
M  V30 13 1 13 14
M  V30 14 1 14 15
M  V30 15 1 15 16
M  V30 16 2 16 17
M  V30 17 1 17 18
M  V30 18 2 18 19
M  V30 19 1 19 20
M  V30 20 2 20 21
M  V30 21 1 21 22
M  V30 22 2 22 23
M  V30 23 1 23 24
M  V30 24 1 23 25
M  V30 25 2 25 26
M  V30 26 1 19 27
M  V30 27 2 27 28
M  V30 28 1 4 29
M  V30 29 1 29 2
M  V30 30 1 10 4
M  V30 31 1 28 12
M  V30 32 1 13 9
M  V30 33 1 28 16
M  V30 34 1 26 20
M  V30 35 1 1 30
M  V30 36 1 1 31
M  V30 37 1 1 32
M  V30 38 1 3 33
M  V30 39 1 3 34
M  V30 40 1 5 35
M  V30 41 1 5 36
M  V30 42 1 6 37
M  V30 43 1 11 38
M  V30 44 1 14 39
M  V30 45 1 14 40
M  V30 46 1 15 41
M  V30 47 1 15 42
M  V30 48 1 17 43
M  V30 49 1 21 44
M  V30 50 1 22 45
M  V30 51 1 26 46
M  V30 52 1 29 47
M  V30 53 1 29 48
M  V30 END BOND
M  V30 END CTAB
M  END
>  <Dataset>  (830) 
ChEMBL_Kinases

>  <Ligand_Instance>  (830) 
nan

>  <PDB_ID>  (830) 
nan

>  <Standardized_SMILES>  (830) 
CN1CC2(CNC(=O)c3c2[nH]c2c3CCc3cnc(-c4ccc(F)nc4)nc3-2)C1

>  <Name>  (830) 
nan

>  <Pocket>  (830) 
nan

>  <ATP_Site>  (830) 
nan

>  <Peripheral>  (830) 
nan

>  <Num_H_Atoms_ProtBoundConf>  (830) 
nan

>  <Num_Resolved_Atoms>  (830) 
nan

>  <Num_Not_Resolved_Atoms>  (830) 
nan

$$$$
CHEMBL1801306
     RDKit          3D

  0  0  0  0  0  0  0  0  0  0999 V3000
M  V30 BEGIN CTAB
M  V30 COUNTS 53 58 0 0 0
M  V30 BEGIN ATOM
M  V30 1 C 2.426011 -6.678777 6.008738 0
M  V30 2 O 1.611306 -5.948759 5.137829 0
M  V30 3 C 1.960430 -4.824894 4.432656 0
M  V30 4 C 3.164302 -4.144212 4.398967 0
M  V30 5 C 3.320718 -3.019346 3.616655 0
M  V30 6 C 2.293527 -2.526283 2.839376 0
M  V30 7 C 2.487474 -1.328785 2.017467 0
M  V30 8 N 3.621014 -0.628040 1.940891 0
M  V30 9 C 3.718447 0.468722 1.156409 0
M  V30 10 C 2.651311 0.912172 0.400608 0
M  V30 11 C 1.489338 0.176090 0.492341 0
M  V30 12 N 1.440612 -0.895314 1.277141 0
M  V30 13 C 0.352205 0.630342 -0.301903 0
M  V30 14 N -0.902083 0.169090 -0.451529 0
M  V30 15 C -1.504869 1.001518 -1.316762 0
M  V30 16 C -0.639300 1.995965 -1.722407 0
M  V30 17 C 0.551773 1.740003 -1.058096 0
M  V30 18 C 1.759740 2.592596 -1.223702 0
M  V30 19 C 2.934005 2.148582 -0.412481 0
M  V30 20 C -1.170640 2.972603 -2.667761 0
M  V30 21 O -0.399787 3.879939 -3.045365 0
M  V30 22 N -2.513497 2.880465 -3.130126 0
M  V30 23 C -3.215808 1.618071 -3.009850 0
M  V30 24 C -2.918990 0.856640 -1.767819 0
M  V30 25 C -3.934802 0.925880 -0.651561 0
M  V30 26 N -3.990122 -0.541847 -0.577155 0
M  V30 27 C -5.345391 -0.988023 -0.440341 0
M  V30 28 C -3.404866 -0.573251 -1.889274 0
M  V30 29 C 1.081643 -3.201650 2.865898 0
M  V30 30 C 0.933454 -4.326816 3.651698 0
M  V30 31 H 1.809245 -7.537988 6.380109 0
M  V30 32 H 2.736281 -6.140760 6.923878 0
M  V30 33 H 3.272041 -7.124826 5.446794 0
M  V30 34 H 3.927359 -4.590614 5.036512 0
M  V30 35 H 4.285976 -2.554658 3.650492 0
M  V30 36 H 4.707861 0.948040 1.188874 0
M  V30 37 H -1.247540 -0.682761 0.052766 0
M  V30 38 H 1.530160 3.642719 -0.980520 0
M  V30 39 H 2.073877 2.570457 -2.309547 0
M  V30 40 H 3.798297 1.985025 -1.080961 0
M  V30 41 H 3.201522 2.995659 0.286221 0
M  V30 42 H -2.963384 3.725842 -3.546332 0
M  V30 43 H -2.970301 0.948111 -3.883750 0
M  V30 44 H -4.317554 1.754707 -3.064491 0
M  V30 45 H -3.522615 1.323462 0.294691 0
M  V30 46 H -4.895446 1.400879 -0.916211 0
M  V30 47 H -5.892524 -1.028924 -1.397722 0
M  V30 48 H -5.851226 -0.358886 0.327710 0
M  V30 49 H -5.392908 -2.033673 -0.021773 0
M  V30 50 H -2.577845 -1.296768 -2.058551 0
M  V30 51 H -4.180548 -0.723771 -2.665609 0
M  V30 52 H 0.268440 -2.801932 2.243506 0
M  V30 53 H -0.070257 -4.776002 3.590974 0
M  V30 END ATOM
M  V30 BEGIN BOND
M  V30 1 1 1 2
M  V30 2 1 2 3
M  V30 3 2 3 4
M  V30 4 1 4 5
M  V30 5 2 5 6
M  V30 6 1 6 7
M  V30 7 2 7 8
M  V30 8 1 8 9
M  V30 9 2 9 10
M  V30 10 1 10 11
M  V30 11 2 11 12
M  V30 12 1 11 13
M  V30 13 1 13 14
M  V30 14 1 14 15
M  V30 15 2 15 16
M  V30 16 1 16 17
M  V30 17 1 17 18
M  V30 18 1 18 19
M  V30 19 1 16 20
M  V30 20 2 20 21
M  V30 21 1 20 22
M  V30 22 1 22 23
M  V30 23 1 23 24
M  V30 24 1 24 25
M  V30 25 1 25 26
M  V30 26 1 26 27
M  V30 27 1 26 28
M  V30 28 1 6 29
M  V30 29 2 29 30
M  V30 30 1 30 3
M  V30 31 1 12 7
M  V30 32 2 17 13
M  V30 33 1 28 24
M  V30 34 1 19 10
M  V30 35 1 24 15
M  V30 36 1 1 31
M  V30 37 1 1 32
M  V30 38 1 1 33
M  V30 39 1 4 34
M  V30 40 1 5 35
M  V30 41 1 9 36
M  V30 42 1 14 37
M  V30 43 1 18 38
M  V30 44 1 18 39
M  V30 45 1 19 40
M  V30 46 1 19 41
M  V30 47 1 22 42
M  V30 48 1 23 43
M  V30 49 1 23 44
M  V30 50 1 25 45
M  V30 51 1 25 46
M  V30 52 1 27 47
M  V30 53 1 27 48
M  V30 54 1 27 49
M  V30 55 1 28 50
M  V30 56 1 28 51
M  V30 57 1 29 52
M  V30 58 1 30 53
M  V30 END BOND
M  V30 END CTAB
M  END
>  <Dataset>  (831) 
ChEMBL_Kinases

>  <Ligand_Instance>  (831) 
nan

>  <PDB_ID>  (831) 
nan

>  <Standardized_SMILES>  (831) 
COc1ccc(-c2ncc3c(n2)-c2[nH]c4c(c2CC3)C(=O)NCC42CN(C)C2)cc1

>  <Name>  (831) 
nan

>  <Pocket>  (831) 
nan

>  <ATP_Site>  (831) 
nan

>  <Peripheral>  (831) 
nan

>  <Num_H_Atoms_ProtBoundConf>  (831) 
nan

>  <Num_Resolved_Atoms>  (831) 
nan

>  <Num_Not_Resolved_Atoms>  (831) 
nan

$$$$
CHEMBL1801305
     RDKit          3D

  0  0  0  0  0  0  0  0  0  0999 V3000
M  V30 BEGIN CTAB
M  V30 COUNTS 49 54 0 0 0
M  V30 BEGIN ATOM
M  V30 1 C 0.686197 -4.676301 0.481820 0
M  V30 2 N 1.911728 -4.452086 -0.265232 0
M  V30 3 C 2.875435 -3.637537 0.425761 0
M  V30 4 C 2.753680 -2.501574 -0.569993 0
M  V30 5 C 4.018394 -2.147745 -1.276410 0
M  V30 6 N 4.855019 -1.426903 -0.322516 0
M  V30 7 C 4.244064 -0.244827 0.234639 0
M  V30 8 O 4.956400 0.747695 0.583160 0
M  V30 9 C 2.799166 -0.161330 0.410523 0
M  V30 10 C 2.126357 -1.278564 0.005789 0
M  V30 11 N 0.812453 -1.060690 0.225524 0
M  V30 12 C 0.689212 0.167777 0.754665 0
M  V30 13 C 1.910866 0.788114 0.896712 0
M  V30 14 C 2.289565 2.104837 1.412681 0
M  V30 15 C 1.098928 2.877780 1.861586 0
M  V30 16 C -0.197145 2.175026 1.688581 0
M  V30 17 C -1.302464 2.923144 2.110813 0
M  V30 18 N -2.546735 2.419143 2.018379 0
M  V30 19 C -2.803463 1.200323 1.529126 0
M  V30 20 C -4.121492 0.591359 1.399545 0
M  V30 21 C -5.230036 1.286770 1.799785 0
M  V30 22 C -6.496099 0.711735 1.679476 0
M  V30 23 C -6.666594 -0.557429 1.160720 0
M  V30 24 C -5.540707 -1.242832 0.763029 0
M  V30 25 F -5.637743 -2.489975 0.246476 0
M  V30 26 C -4.303112 -0.688480 0.877364 0
M  V30 27 N -1.740929 0.465394 1.116558 0
M  V30 28 C -0.480814 0.923869 1.188235 0
M  V30 29 C 1.821156 -3.423407 -1.276816 0
M  V30 30 H 0.827980 -4.284504 1.509603 0
M  V30 31 H -0.166572 -4.113394 0.041891 0
M  V30 32 H 0.462625 -5.767189 0.549863 0
M  V30 33 H 3.882749 -4.067184 0.447985 0
M  V30 34 H 2.529512 -3.409843 1.460097 0
M  V30 35 H 3.776520 -1.555038 -2.170170 0
M  V30 36 H 4.489097 -3.095465 -1.607928 0
M  V30 37 H 5.831855 -1.624285 0.028755 0
M  V30 38 H 0.002446 -1.692010 0.038692 0
M  V30 39 H 2.757220 2.665196 0.547599 0
M  V30 40 H 3.021679 2.056656 2.246451 0
M  V30 41 H 1.209853 3.164206 2.951739 0
M  V30 42 H 1.077027 3.881447 1.339371 0
M  V30 43 H -1.224202 3.930191 2.527977 0
M  V30 44 H -5.172584 2.267865 2.207965 0
M  V30 45 H -7.385796 1.237491 1.987054 0
M  V30 46 H -7.651410 -1.025521 1.058369 0
M  V30 47 H -3.410274 -1.217878 0.567952 0
M  V30 48 H 2.176389 -3.817134 -2.251813 0
M  V30 49 H 0.777500 -3.034344 -1.395832 0
M  V30 END ATOM
M  V30 BEGIN BOND
M  V30 1 1 1 2
M  V30 2 1 2 3
M  V30 3 1 3 4
M  V30 4 1 4 5
M  V30 5 1 5 6
M  V30 6 1 6 7
M  V30 7 2 7 8
M  V30 8 1 7 9
M  V30 9 2 9 10
M  V30 10 1 10 11
M  V30 11 1 11 12
M  V30 12 2 12 13
M  V30 13 1 13 14
M  V30 14 1 14 15
M  V30 15 1 15 16
M  V30 16 2 16 17
M  V30 17 1 17 18
M  V30 18 2 18 19
M  V30 19 1 19 20
M  V30 20 2 20 21
M  V30 21 1 21 22
M  V30 22 2 22 23
M  V30 23 1 23 24
M  V30 24 1 24 25
M  V30 25 2 24 26
M  V30 26 1 19 27
M  V30 27 2 27 28
M  V30 28 1 4 29
M  V30 29 1 29 2
M  V30 30 1 10 4
M  V30 31 1 28 12
M  V30 32 1 13 9
M  V30 33 1 28 16
M  V30 34 1 26 20
M  V30 35 1 1 30
M  V30 36 1 1 31
M  V30 37 1 1 32
M  V30 38 1 3 33
M  V30 39 1 3 34
M  V30 40 1 5 35
M  V30 41 1 5 36
M  V30 42 1 6 37
M  V30 43 1 11 38
M  V30 44 1 14 39
M  V30 45 1 14 40
M  V30 46 1 15 41
M  V30 47 1 15 42
M  V30 48 1 17 43
M  V30 49 1 21 44
M  V30 50 1 22 45
M  V30 51 1 23 46
M  V30 52 1 26 47
M  V30 53 1 29 48
M  V30 54 1 29 49
M  V30 END BOND
M  V30 END CTAB
M  END
>  <Dataset>  (832) 
ChEMBL_Kinases

>  <Ligand_Instance>  (832) 
nan

>  <PDB_ID>  (832) 
nan

>  <Standardized_SMILES>  (832) 
CN1CC2(CNC(=O)c3c2[nH]c2c3CCc3cnc(-c4cccc(F)c4)nc3-2)C1

>  <Name>  (832) 
nan

>  <Pocket>  (832) 
nan

>  <ATP_Site>  (832) 
nan

>  <Peripheral>  (832) 
nan

>  <Num_H_Atoms_ProtBoundConf>  (832) 
nan

>  <Num_Resolved_Atoms>  (832) 
nan

>  <Num_Not_Resolved_Atoms>  (832) 
nan

$$$$
CHEMBL1801304
     RDKit          3D

  0  0  0  0  0  0  0  0  0  0999 V3000
M  V30 BEGIN CTAB
M  V30 COUNTS 59 64 0 0 0
M  V30 BEGIN ATOM
M  V30 1 C 5.085994 -2.867054 3.006640 0
M  V30 2 O 5.965840 -2.687840 1.969433 0
M  V30 3 C 5.297574 -2.522700 0.786067 0
M  V30 4 C 4.411190 -1.330901 0.835376 0
M  V30 5 O 5.136409 -0.128264 1.087917 0
M  V30 6 C 4.394759 1.045025 1.152846 0
M  V30 7 C 5.104468 2.202649 1.397367 0
M  V30 8 N 4.492784 3.409632 1.483091 0
M  V30 9 C 3.158403 3.512142 1.329819 0
M  V30 10 C 2.448802 2.353233 1.085142 0
M  V30 11 C 0.998454 2.480599 0.920716 0
M  V30 12 N 0.348410 3.656336 0.997448 0
M  V30 13 C -1.004141 3.734862 0.838734 0
M  V30 14 C -1.765438 2.586251 0.589020 0
M  V30 15 C -1.069026 1.398423 0.516442 0
M  V30 16 N 0.247760 1.364524 0.676690 0
M  V30 17 C -1.864378 0.204837 0.255760 0
M  V30 18 N -1.552295 -1.094102 0.120526 0
M  V30 19 C -2.699498 -1.752713 -0.111982 0
M  V30 20 C -3.755891 -0.866064 -0.125581 0
M  V30 21 C -3.220384 0.397136 0.111274 0
M  V30 22 C -4.025358 1.642563 0.176808 0
M  V30 23 C -3.206013 2.859079 0.446141 0
M  V30 24 C -5.087253 -1.422103 -0.367293 0
M  V30 25 O -6.077097 -0.617924 -0.383628 0
M  V30 26 N -5.255185 -2.830662 -0.577374 0
M  V30 27 C -4.235206 -3.649380 0.046301 0
M  V30 28 C -2.845718 -3.197879 -0.324584 0
M  V30 29 C -2.347318 -3.714416 -1.654754 0
M  V30 30 N -1.298657 -4.439993 -1.001343 0
M  V30 31 C 0.048444 -4.003198 -1.315301 0
M  V30 32 C -1.793495 -4.057950 0.291195 0
M  V30 33 C 3.039982 1.097376 0.990276 0
M  V30 34 H 4.417189 -3.760804 2.859969 0
M  V30 35 H 5.718737 -3.046065 3.928562 0
M  V30 36 H 4.461694 -2.004942 3.271070 0
M  V30 37 H 5.970165 -2.406091 -0.090727 0
M  V30 38 H 4.655038 -3.426988 0.570554 0
M  V30 39 H 3.590993 -1.507463 1.555177 0
M  V30 40 H 3.866151 -1.232847 -0.158410 0
M  V30 41 H 6.184403 2.220760 1.535013 0
M  V30 42 H 2.647031 4.467489 1.394255 0
M  V30 43 H -1.387442 4.761584 0.928824 0
M  V30 44 H -0.562075 -1.422703 0.200770 0
M  V30 45 H -4.846067 1.549042 0.931606 0
M  V30 46 H -4.535405 1.763724 -0.810596 0
M  V30 47 H -3.540613 3.303027 1.414926 0
M  V30 48 H -3.413038 3.644664 -0.313377 0
M  V30 49 H -6.071818 -3.115305 -1.142116 0
M  V30 50 H -4.402108 -4.693091 -0.294133 0
M  V30 51 H -4.403534 -3.595998 1.131947 0
M  V30 52 H -3.096874 -4.439603 -2.068166 0
M  V30 53 H -2.069102 -2.875069 -2.310856 0
M  V30 54 H 0.732547 -4.310378 -0.498063 0
M  V30 55 H 0.112764 -2.920459 -1.548725 0
M  V30 56 H 0.383715 -4.523599 -2.230075 0
M  V30 57 H -2.209174 -4.954219 0.797980 0
M  V30 58 H -1.097467 -3.447697 0.905108 0
M  V30 59 H 2.486239 0.196573 0.799842 0
M  V30 END ATOM
M  V30 BEGIN BOND
M  V30 1 1 1 2
M  V30 2 1 2 3
M  V30 3 1 3 4
M  V30 4 1 4 5
M  V30 5 1 5 6
M  V30 6 2 6 7
M  V30 7 1 7 8
M  V30 8 2 8 9
M  V30 9 1 9 10
M  V30 10 1 10 11
M  V30 11 2 11 12
M  V30 12 1 12 13
M  V30 13 2 13 14
M  V30 14 1 14 15
M  V30 15 2 15 16
M  V30 16 1 15 17
M  V30 17 1 17 18
M  V30 18 1 18 19
M  V30 19 2 19 20
M  V30 20 1 20 21
M  V30 21 1 21 22
M  V30 22 1 22 23
M  V30 23 1 20 24
M  V30 24 2 24 25
M  V30 25 1 24 26
M  V30 26 1 26 27
M  V30 27 1 27 28
M  V30 28 1 28 29
M  V30 29 1 29 30
M  V30 30 1 30 31
M  V30 31 1 30 32
M  V30 32 2 10 33
M  V30 33 1 33 6
M  V30 34 1 16 11
M  V30 35 2 21 17
M  V30 36 1 32 28
M  V30 37 1 23 14
M  V30 38 1 28 19
M  V30 39 1 1 34
M  V30 40 1 1 35
M  V30 41 1 1 36
M  V30 42 1 3 37
M  V30 43 1 3 38
M  V30 44 1 4 39
M  V30 45 1 4 40
M  V30 46 1 7 41
M  V30 47 1 9 42
M  V30 48 1 13 43
M  V30 49 1 18 44
M  V30 50 1 22 45
M  V30 51 1 22 46
M  V30 52 1 23 47
M  V30 53 1 23 48
M  V30 54 1 26 49
M  V30 55 1 27 50
M  V30 56 1 27 51
M  V30 57 1 29 52
M  V30 58 1 29 53
M  V30 59 1 31 54
M  V30 60 1 31 55
M  V30 61 1 31 56
M  V30 62 1 32 57
M  V30 63 1 32 58
M  V30 64 1 33 59
M  V30 END BOND
M  V30 END CTAB
M  END
>  <Dataset>  (833) 
ChEMBL_Kinases

>  <Ligand_Instance>  (833) 
nan

>  <PDB_ID>  (833) 
nan

>  <Standardized_SMILES>  (833) 
COCCOc1cncc(-c2ncc3c(n2)-c2[nH]c4c(c2CC3)C(=O)NCC42CN(C)C2)c1

>  <Name>  (833) 
nan

>  <Pocket>  (833) 
nan

>  <ATP_Site>  (833) 
nan

>  <Peripheral>  (833) 
nan

>  <Num_H_Atoms_ProtBoundConf>  (833) 
nan

>  <Num_Resolved_Atoms>  (833) 
nan

>  <Num_Not_Resolved_Atoms>  (833) 
nan

$$$$
CHEMBL1801303
     RDKit          3D

  0  0  0  0  0  0  0  0  0  0999 V3000
M  V30 BEGIN CTAB
M  V30 COUNTS 49 54 0 0 0
M  V30 BEGIN ATOM
M  V30 1 C 0.902483 -4.904857 -0.300356 0
M  V30 2 N 2.089376 -4.319032 -0.906987 0
M  V30 3 C 2.879244 -3.569294 0.045543 0
M  V30 4 C 2.759521 -2.291024 -0.760029 0
M  V30 5 C 4.049385 -1.844692 -1.379606 0
M  V30 6 N 4.857753 -1.242253 -0.342563 0
M  V30 7 C 4.244646 -0.142579 0.360908 0
M  V30 8 O 4.924430 0.797348 0.849292 0
M  V30 9 C 2.792555 -0.105997 0.518699 0
M  V30 10 C 2.121646 -1.170831 -0.043581 0
M  V30 11 N 0.804854 -0.993275 0.184070 0
M  V30 12 C 0.655783 0.150125 0.869360 0
M  V30 13 C 1.864351 0.759089 1.113565 0
M  V30 14 C 2.233260 2.003422 1.807906 0
M  V30 15 C 1.026240 2.709804 2.344345 0
M  V30 16 C -0.248333 2.011675 2.050041 0
M  V30 17 C -1.351195 2.705522 2.560451 0
M  V30 18 N -2.606084 2.199870 2.379506 0
M  V30 19 C -2.845538 1.054394 1.728031 0
M  V30 20 C -4.195000 0.532607 1.546380 0
M  V30 21 C -5.263461 1.206691 2.042120 0
M  V30 22 C -6.532198 0.698635 1.860995 0
M  V30 23 C -6.713355 -0.500187 1.172536 0
M  V30 24 C -5.621542 -1.179800 0.671376 0
M  V30 25 C -4.370680 -0.649534 0.867229 0
M  V30 26 F -3.265507 -1.290507 0.387574 0
M  V30 27 N -1.773177 0.385985 1.235379 0
M  V30 28 C -0.519131 0.837740 1.384676 0
M  V30 29 C 1.851015 -3.093401 -1.630833 0
M  V30 30 H 1.086341 -5.082406 0.769348 0
M  V30 31 H 0.681577 -5.891968 -0.757691 0
M  V30 32 H -0.011032 -4.266473 -0.462976 0
M  V30 33 H 3.898841 -3.962050 0.154108 0
M  V30 34 H 2.376458 -3.485143 1.044039 0
M  V30 35 H 4.632086 -2.703982 -1.772593 0
M  V30 36 H 3.838656 -1.090132 -2.156349 0
M  V30 37 H 5.823603 -1.513271 -0.051933 0
M  V30 38 H 0.014289 -1.593908 -0.094499 0
M  V30 39 H 2.834554 2.667790 1.121728 0
M  V30 40 H 2.924348 1.783108 2.647776 0
M  V30 41 H 1.103492 2.700263 3.471612 0
M  V30 42 H 0.999366 3.769009 1.982327 0
M  V30 43 H -1.315009 3.638819 3.105982 0
M  V30 44 H -5.191700 2.131833 2.579728 0
M  V30 45 H -7.470606 1.125820 2.199407 0
M  V30 46 H -7.666236 -0.987687 0.974176 0
M  V30 47 H -5.671717 -2.111785 0.127732 0
M  V30 48 H 0.787268 -2.777008 -1.565711 0
M  V30 49 H 2.166981 -3.213923 -2.686638 0
M  V30 END ATOM
M  V30 BEGIN BOND
M  V30 1 1 1 2
M  V30 2 1 2 3
M  V30 3 1 3 4
M  V30 4 1 4 5
M  V30 5 1 5 6
M  V30 6 1 6 7
M  V30 7 2 7 8
M  V30 8 1 7 9
M  V30 9 2 9 10
M  V30 10 1 10 11
M  V30 11 1 11 12
M  V30 12 2 12 13
M  V30 13 1 13 14
M  V30 14 1 14 15
M  V30 15 1 15 16
M  V30 16 2 16 17
M  V30 17 1 17 18
M  V30 18 2 18 19
M  V30 19 1 19 20
M  V30 20 2 20 21
M  V30 21 1 21 22
M  V30 22 2 22 23
M  V30 23 1 23 24
M  V30 24 2 24 25
M  V30 25 1 25 26
M  V30 26 1 19 27
M  V30 27 2 27 28
M  V30 28 1 4 29
M  V30 29 1 29 2
M  V30 30 1 10 4
M  V30 31 1 28 12
M  V30 32 1 13 9
M  V30 33 1 28 16
M  V30 34 1 25 20
M  V30 35 1 1 30
M  V30 36 1 1 31
M  V30 37 1 1 32
M  V30 38 1 3 33
M  V30 39 1 3 34
M  V30 40 1 5 35
M  V30 41 1 5 36
M  V30 42 1 6 37
M  V30 43 1 11 38
M  V30 44 1 14 39
M  V30 45 1 14 40
M  V30 46 1 15 41
M  V30 47 1 15 42
M  V30 48 1 17 43
M  V30 49 1 21 44
M  V30 50 1 22 45
M  V30 51 1 23 46
M  V30 52 1 24 47
M  V30 53 1 29 48
M  V30 54 1 29 49
M  V30 END BOND
M  V30 END CTAB
M  END
>  <Dataset>  (834) 
ChEMBL_Kinases

>  <Ligand_Instance>  (834) 
nan

>  <PDB_ID>  (834) 
nan

>  <Standardized_SMILES>  (834) 
CN1CC2(CNC(=O)c3c2[nH]c2c3CCc3cnc(-c4ccccc4F)nc3-2)C1

>  <Name>  (834) 
nan

>  <Pocket>  (834) 
nan

>  <ATP_Site>  (834) 
nan

>  <Peripheral>  (834) 
nan

>  <Num_H_Atoms_ProtBoundConf>  (834) 
nan

>  <Num_Resolved_Atoms>  (834) 
nan

>  <Num_Not_Resolved_Atoms>  (834) 
nan

$$$$
CHEMBL1801302
     RDKit          3D

  0  0  0  0  0  0  0  0  0  0999 V3000
M  V30 BEGIN CTAB
M  V30 COUNTS 48 53 0 0 0
M  V30 BEGIN ATOM
M  V30 1 C 5.545508 -6.628075 -0.791284 0
M  V30 2 O 4.318876 -6.003514 -1.158009 0
M  V30 3 C 3.820042 -4.901813 -0.479141 0
M  V30 4 C 4.444444 -4.300399 0.605485 0
M  V30 5 C 3.875017 -3.203411 1.223569 0
M  V30 6 C 2.675137 -2.711342 0.748775 0
M  V30 7 C 2.118196 -1.551182 1.438551 0
M  V30 8 N 2.734641 -0.963216 2.503871 0
M  V30 9 C 2.208930 0.111884 3.135383 0
M  V30 10 C 0.999246 0.660279 2.707629 0
M  V30 11 C 0.399057 0.057167 1.640487 0
M  V30 12 N 0.935516 -1.001517 1.033563 0
M  V30 13 C -0.861523 0.651323 1.218032 0
M  V30 14 N -1.731037 0.359203 0.239437 0
M  V30 15 C -2.751806 1.259802 0.306735 0
M  V30 16 C -2.506150 2.125974 1.349659 0
M  V30 17 C -1.297178 1.742610 1.938168 0
M  V30 18 C -0.701475 2.447317 3.103004 0
M  V30 19 C 0.594881 1.824210 3.521191 0
M  V30 20 C -3.519502 3.171588 1.565407 0
M  V30 21 O -3.327110 3.982893 2.512073 0
M  V30 22 N -4.670545 3.250095 0.725597 0
M  V30 23 C -5.122775 1.960959 0.180239 0
M  V30 24 C -3.950143 1.357127 -0.553946 0
M  V30 25 C -4.124911 0.436925 -1.677783 0
M  V30 26 C -3.688927 1.860068 -1.937136 0
M  V30 27 C 2.048630 -3.304031 -0.329021 0
M  V30 28 C 2.612015 -4.399831 -0.950752 0
M  V30 29 H 5.563583 -6.652367 0.336217 0
M  V30 30 H 6.385138 -6.011862 -1.112030 0
M  V30 31 H 5.574335 -7.685558 -1.092520 0
M  V30 32 H 5.381967 -4.714630 0.947368 0
M  V30 33 H 4.416073 -2.785335 2.062795 0
M  V30 34 H 2.879409 0.392495 3.943461 0
M  V30 35 H -1.585803 -0.435060 -0.421582 0
M  V30 36 H -1.409771 2.395397 3.980212 0
M  V30 37 H -0.536005 3.525289 2.890135 0
M  V30 38 H 1.411115 2.594359 3.465488 0
M  V30 39 H 0.550878 1.559278 4.614457 0
M  V30 40 H -5.073605 4.212105 0.584027 0
M  V30 41 H -5.947632 2.122775 -0.524953 0
M  V30 42 H -5.499304 1.298801 0.991460 0
M  V30 43 H -3.401391 -0.396352 -1.846897 0
M  V30 44 H -5.135901 0.182116 -2.058763 0
M  V30 45 H -4.441948 2.564547 -2.387583 0
M  V30 46 H -2.643644 2.083721 -2.233089 0
M  V30 47 H 1.093914 -2.871404 -0.666671 0
M  V30 48 H 2.085563 -4.836620 -1.796591 0
M  V30 END ATOM
M  V30 BEGIN BOND
M  V30 1 1 1 2
M  V30 2 1 2 3
M  V30 3 2 3 4
M  V30 4 1 4 5
M  V30 5 2 5 6
M  V30 6 1 6 7
M  V30 7 2 7 8
M  V30 8 1 8 9
M  V30 9 2 9 10
M  V30 10 1 10 11
M  V30 11 2 11 12
M  V30 12 1 11 13
M  V30 13 1 13 14
M  V30 14 1 14 15
M  V30 15 2 15 16
M  V30 16 1 16 17
M  V30 17 1 17 18
M  V30 18 1 18 19
M  V30 19 1 16 20
M  V30 20 2 20 21
M  V30 21 1 20 22
M  V30 22 1 22 23
M  V30 23 1 23 24
M  V30 24 1 24 25
M  V30 25 1 25 26
M  V30 26 1 6 27
M  V30 27 2 27 28
M  V30 28 1 28 3
M  V30 29 1 12 7
M  V30 30 2 17 13
M  V30 31 1 26 24
M  V30 32 1 19 10
M  V30 33 1 24 15
M  V30 34 1 1 29
M  V30 35 1 1 30
M  V30 36 1 1 31
M  V30 37 1 4 32
M  V30 38 1 5 33
M  V30 39 1 9 34
M  V30 40 1 14 35
M  V30 41 1 18 36
M  V30 42 1 18 37
M  V30 43 1 19 38
M  V30 44 1 19 39
M  V30 45 1 22 40
M  V30 46 1 23 41
M  V30 47 1 23 42
M  V30 48 1 25 43
M  V30 49 1 25 44
M  V30 50 1 26 45
M  V30 51 1 26 46
M  V30 52 1 27 47
M  V30 53 1 28 48
M  V30 END BOND
M  V30 END CTAB
M  END
>  <Dataset>  (835) 
ChEMBL_Kinases

>  <Ligand_Instance>  (835) 
nan

>  <PDB_ID>  (835) 
nan

>  <Standardized_SMILES>  (835) 
COc1ccc(-c2ncc3c(n2)-c2[nH]c4c(c2CC3)C(=O)NCC42CC2)cc1

>  <Name>  (835) 
nan

>  <Pocket>  (835) 
nan

>  <ATP_Site>  (835) 
nan

>  <Peripheral>  (835) 
nan

>  <Num_H_Atoms_ProtBoundConf>  (835) 
nan

>  <Num_Resolved_Atoms>  (835) 
nan

>  <Num_Not_Resolved_Atoms>  (835) 
nan

$$$$
CHEMBL1801301
     RDKit          3D

  0  0  0  0  0  0  0  0  0  0999 V3000
M  V30 BEGIN CTAB
M  V30 COUNTS 64 70 0 0 0
M  V30 BEGIN ATOM
M  V30 1 O 2.232779 5.509399 5.072805 0
M  V30 2 C 2.254339 4.264888 5.063608 0
M  V30 3 N 2.784530 3.514590 6.151168 0
M  V30 4 C 3.195252 2.151869 5.962139 0
M  V30 5 C 4.657176 1.814297 5.943107 0
M  V30 6 C 3.839954 1.525796 7.138360 0
M  V30 7 C 2.309871 1.348369 5.056319 0
M  V30 8 C 1.769235 2.139858 3.944480 0
M  V30 9 N 1.230449 1.659984 2.783419 0
M  V30 10 C 0.861787 2.709710 2.049810 0
M  V30 11 C 1.148656 3.886590 2.708952 0
M  V30 12 C 1.722906 3.519635 3.907431 0
M  V30 13 C 0.895242 5.248556 2.234831 0
M  V30 14 C 0.260822 5.345451 0.896344 0
M  V30 15 C -0.029812 4.082560 0.219833 0
M  V30 16 C -0.616661 4.137959 -1.025222 0
M  V30 17 N -0.914886 2.998372 -1.710479 0
M  V30 18 C -0.650958 1.781460 -1.204117 0
M  V30 19 C -0.959361 0.543129 -1.920007 0
M  V30 20 C -0.661473 -0.665443 -1.323483 0
M  V30 21 C -0.948098 -1.837866 -1.988045 0
M  V30 22 C -1.526839 -1.876076 -3.239383 0
M  V30 23 O -1.902676 -2.851435 -4.086755 0
M  V30 24 C -1.868495 -4.222328 -4.048126 0
M  V30 25 C -2.625592 -4.922252 -2.984773 0
M  V30 26 N -2.555020 -6.332257 -2.988878 0
M  V30 27 C -1.321064 -6.940135 -2.673380 0
M  V30 28 C -1.531969 -8.409037 -2.365121 0
M  V30 29 O -2.436224 -8.613283 -1.353482 0
M  V30 30 C -3.548315 -7.812841 -1.403256 0
M  V30 31 C -3.722574 -7.078833 -2.716299 0
M  V30 32 C -1.819761 -0.632000 -3.824307 0
M  V30 33 C -1.538962 0.577022 -3.170783 0
M  V30 34 N -0.079716 1.739634 0.008719 0
M  V30 35 C 0.237481 2.828948 0.731838 0
M  V30 36 H 2.847924 4.011099 7.054144 0
M  V30 37 H 4.987759 0.960508 5.295503 0
M  V30 38 H 5.338304 2.683610 5.940947 0
M  V30 39 H 4.042408 2.138679 8.041631 0
M  V30 40 H 3.531424 0.490435 7.380851 0
M  V30 41 H 1.487309 0.875577 5.653775 0
M  V30 42 H 2.880824 0.500293 4.641384 0
M  V30 43 H 1.086767 0.665194 2.435470 0
M  V30 44 H 0.306827 5.805909 3.011741 0
M  V30 45 H 1.898350 5.765601 2.230314 0
M  V30 46 H -0.726444 5.882812 1.005315 0
M  V30 47 H 0.876266 5.989833 0.205644 0
M  V30 48 H -0.852445 5.112883 -1.483314 0
M  V30 49 H -0.207392 -0.760069 -0.346290 0
M  V30 50 H -0.752060 -2.828127 -1.614720 0
M  V30 51 H -0.791353 -4.553002 -4.109495 0
M  V30 52 H -2.269600 -4.573327 -5.049600 0
M  V30 53 H -3.708264 -4.655420 -3.036214 0
M  V30 54 H -2.298090 -4.567190 -1.991130 0
M  V30 55 H -0.922998 -6.477540 -1.743834 0
M  V30 56 H -0.580070 -6.766647 -3.445780 0
M  V30 57 H -0.535452 -8.871383 -2.128787 0
M  V30 58 H -1.906954 -8.910772 -3.280024 0
M  V30 59 H -3.654132 -7.132391 -0.544330 0
M  V30 60 H -4.433598 -8.506772 -1.342555 0
M  V30 61 H -3.982275 -7.752180 -3.542103 0
M  V30 62 H -4.580968 -6.384795 -2.589351 0
M  V30 63 H -2.274903 -0.420918 -4.799112 0
M  V30 64 H -1.738723 1.558431 -3.563635 0
M  V30 END ATOM
M  V30 BEGIN BOND
M  V30 1 2 1 2
M  V30 2 1 2 3
M  V30 3 1 3 4
M  V30 4 1 4 5
M  V30 5 1 5 6
M  V30 6 1 4 7
M  V30 7 1 7 8
M  V30 8 1 8 9
M  V30 9 1 9 10
M  V30 10 2 10 11
M  V30 11 1 11 12
M  V30 12 1 11 13
M  V30 13 1 13 14
M  V30 14 1 14 15
M  V30 15 2 15 16
M  V30 16 1 16 17
M  V30 17 2 17 18
M  V30 18 1 18 19
M  V30 19 2 19 20
M  V30 20 1 20 21
M  V30 21 2 21 22
M  V30 22 1 22 23
M  V30 23 1 23 24
M  V30 24 1 24 25
M  V30 25 1 25 26
M  V30 26 1 26 27
M  V30 27 1 27 28
M  V30 28 1 28 29
M  V30 29 1 29 30
M  V30 30 1 30 31
M  V30 31 1 22 32
M  V30 32 2 32 33
M  V30 33 1 18 34
M  V30 34 2 34 35
M  V30 35 1 12 2
M  V30 36 1 35 15
M  V30 37 1 6 4
M  V30 38 2 12 8
M  V30 39 1 33 19
M  V30 40 1 35 10
M  V30 41 1 31 26
M  V30 42 1 3 36
M  V30 43 1 5 37
M  V30 44 1 5 38
M  V30 45 1 6 39
M  V30 46 1 6 40
M  V30 47 1 7 41
M  V30 48 1 7 42
M  V30 49 1 9 43
M  V30 50 1 13 44
M  V30 51 1 13 45
M  V30 52 1 14 46
M  V30 53 1 14 47
M  V30 54 1 16 48
M  V30 55 1 20 49
M  V30 56 1 21 50
M  V30 57 1 24 51
M  V30 58 1 24 52
M  V30 59 1 25 53
M  V30 60 1 25 54
M  V30 61 1 27 55
M  V30 62 1 27 56
M  V30 63 1 28 57
M  V30 64 1 28 58
M  V30 65 1 30 59
M  V30 66 1 30 60
M  V30 67 1 31 61
M  V30 68 1 31 62
M  V30 69 1 32 63
M  V30 70 1 33 64
M  V30 END BOND
M  V30 END CTAB
M  END
>  <Dataset>  (836) 
ChEMBL_Kinases

>  <Ligand_Instance>  (836) 
nan

>  <PDB_ID>  (836) 
nan

>  <Standardized_SMILES>  (836) 
O=C1NC2(CC2)Cc2[nH]c3c(c21)CCc1cnc(-c2ccc(OCCN4CCOCC4)cc2)nc1-3

>  <Name>  (836) 
nan

>  <Pocket>  (836) 
nan

>  <ATP_Site>  (836) 
nan

>  <Peripheral>  (836) 
nan

>  <Num_H_Atoms_ProtBoundConf>  (836) 
nan

>  <Num_Resolved_Atoms>  (836) 
nan

>  <Num_Not_Resolved_Atoms>  (836) 
nan

$$$$
CHEMBL1802388
     RDKit          3D

  0  0  0  0  0  0  0  0  0  0999 V3000
M  V30 BEGIN CTAB
M  V30 COUNTS 31 33 0 0 0
M  V30 BEGIN ATOM
M  V30 1 C 3.200318 -6.808151 2.413380 0
M  V30 2 C 2.321812 -6.140457 1.926719 0
M  V30 3 C 1.279940 -5.352185 1.337031 0
M  V30 4 O 0.326243 -5.969480 0.843508 0
M  V30 5 N 1.281812 -3.937818 1.289408 0
M  V30 6 C 0.321483 -3.056870 0.740832 0
M  V30 7 C -0.850133 -3.399267 0.115731 0
M  V30 8 C -1.763621 -2.509064 -0.407333 0
M  V30 9 C -1.494688 -1.160503 -0.303612 0
M  V30 10 C -0.323502 -0.792190 0.320247 0
M  V30 11 C 0.566999 -1.708131 0.831900 0
M  V30 12 C -0.286119 0.662874 0.297536 0
M  V30 13 C 0.650704 1.473004 0.746572 0
M  V30 14 C 0.695216 2.926921 0.733798 0
M  V30 15 C 1.574393 3.922932 0.354679 0
M  V30 16 N 1.026495 5.123425 0.676291 0
M  V30 17 C -0.184058 4.865729 1.250838 0
M  V30 18 N -0.389881 3.524838 1.288096 0
M  V30 19 C -1.464052 1.146650 -0.356093 0
M  V30 20 O -1.834774 2.313611 -0.594468 0
M  V30 21 N -2.219583 -0.001937 -0.730844 0
M  V30 22 H 3.959532 -7.402183 2.850215 0
M  V30 23 H 2.141082 -3.549933 1.739863 0
M  V30 24 H -1.108718 -4.437048 0.008284 0
M  V30 25 H -2.664904 -2.817909 -0.885896 0
M  V30 26 H 1.459602 -1.343610 1.304439 0
M  V30 27 H 1.545627 1.022199 1.205059 0
M  V30 28 H 2.503476 3.604119 -0.110545 0
M  V30 29 H -0.631989 5.836904 1.513281 0
M  V30 30 H -1.334355 3.417573 1.751669 0
M  V30 31 H -3.149720 0.021643 -1.235121 0
M  V30 END ATOM
M  V30 BEGIN BOND
M  V30 1 3 1 2
M  V30 2 1 2 3
M  V30 3 2 3 4
M  V30 4 1 3 5
M  V30 5 1 5 6
M  V30 6 2 6 7
M  V30 7 1 7 8
M  V30 8 2 8 9
M  V30 9 1 9 10
M  V30 10 2 10 11
M  V30 11 1 10 12
M  V30 12 2 12 13
M  V30 13 1 13 14
M  V30 14 2 14 15
M  V30 15 1 15 16
M  V30 16 2 16 17
M  V30 17 1 17 18
M  V30 18 1 12 19
M  V30 19 2 19 20
M  V30 20 1 19 21
M  V30 21 1 11 6
M  V30 22 1 18 14
M  V30 23 1 21 9
M  V30 24 1 1 22
M  V30 25 1 5 23
M  V30 26 1 7 24
M  V30 27 1 8 25
M  V30 28 1 11 26
M  V30 29 1 13 27
M  V30 30 1 15 28
M  V30 31 1 17 29
M  V30 32 1 18 30
M  V30 33 1 21 31
M  V30 END BOND
M  V30 END CTAB
M  END
>  <Dataset>  (837) 
ChEMBL_Kinases

>  <Ligand_Instance>  (837) 
nan

>  <PDB_ID>  (837) 
nan

>  <Standardized_SMILES>  (837) 
C#CC(=O)Nc1ccc2c(c1)/C(=C/c1cnc[nH]1)C(=O)N2

>  <Name>  (837) 
nan

>  <Pocket>  (837) 
nan

>  <ATP_Site>  (837) 
nan

>  <Peripheral>  (837) 
nan

>  <Num_H_Atoms_ProtBoundConf>  (837) 
nan

>  <Num_Resolved_Atoms>  (837) 
nan

>  <Num_Not_Resolved_Atoms>  (837) 
nan

$$$$
CHEMBL1801284
     RDKit          3D

  0  0  0  0  0  0  0  0  0  0999 V3000
M  V30 BEGIN CTAB
M  V30 COUNTS 47 52 0 0 0
M  V30 BEGIN ATOM
M  V30 1 O 2.832494 3.886850 0.952321 0
M  V30 2 C 2.610119 3.050401 0.012411 0
M  V30 3 N 3.158103 3.182180 -1.316011 0
M  V30 4 C 2.266390 2.631257 -2.345451 0
M  V30 5 C 2.089326 1.177800 -2.025836 0
M  V30 6 C 3.326322 0.341968 -2.288722 0
M  V30 7 N 2.830906 0.108893 -3.629775 0
M  V30 8 C 1.489951 0.334352 -3.104934 0
M  V30 9 C 1.499029 0.989188 -0.682855 0
M  V30 10 N 0.698654 0.001734 -0.244156 0
M  V30 11 C 0.423440 0.265286 1.045899 0
M  V30 12 C 1.053032 1.430342 1.434317 0
M  V30 13 C 1.743744 1.896858 0.327262 0
M  V30 14 C 1.037002 2.101654 2.748823 0
M  V30 15 C 0.221576 1.409533 3.784768 0
M  V30 16 C -0.429967 0.177226 3.334520 0
M  V30 17 C -1.199087 -0.511690 4.247429 0
M  V30 18 N -1.845028 -1.657064 3.944242 0
M  V30 19 C -1.802118 -2.234889 2.730042 0
M  V30 20 C -2.545169 -3.467382 2.541818 0
M  V30 21 C -3.245358 -3.963143 3.620809 0
M  V30 22 C -3.981817 -5.128122 3.541025 0
M  V30 23 C -4.055981 -5.859106 2.374706 0
M  V30 24 C -3.365191 -5.380161 1.291019 0
M  V30 25 C -2.637912 -4.216046 1.395586 0
M  V30 26 F -1.996295 -3.817487 0.301684 0
M  V30 27 C -1.035249 -1.547206 1.821302 0
M  V30 28 C -0.365725 -0.388434 2.081927 0
M  V30 29 H 4.106175 3.649218 -1.347285 0
M  V30 30 H 1.283760 3.133145 -2.345701 0
M  V30 31 H 2.712165 2.769277 -3.330489 0
M  V30 32 H 4.238082 0.943076 -2.221539 0
M  V30 33 H 3.303150 -0.554141 -1.636556 0
M  V30 34 H 2.946193 -0.857898 -4.000040 0
M  V30 35 H 1.046487 -0.613030 -2.714342 0
M  V30 36 H 0.789722 0.820210 -3.806147 0
M  V30 37 H 0.328859 -0.839590 -0.768872 0
M  V30 38 H 0.780941 3.175233 2.679315 0
M  V30 39 H 2.106408 2.095703 3.112161 0
M  V30 40 H -0.556078 2.124997 4.152638 0
M  V30 41 H 0.817385 1.176080 4.715962 0
M  V30 42 H -1.321599 -0.154152 5.274892 0
M  V30 43 H -3.260140 -3.474648 4.585378 0
M  V30 44 H -4.524182 -5.500830 4.398148 0
M  V30 45 H -4.622419 -6.775153 2.275584 0
M  V30 46 H -3.407614 -5.935320 0.365240 0
M  V30 47 H -0.952400 -1.941242 0.839083 0
M  V30 END ATOM
M  V30 BEGIN BOND
M  V30 1 2 1 2
M  V30 2 1 2 3
M  V30 3 1 3 4
M  V30 4 1 4 5
M  V30 5 1 5 6
M  V30 6 1 6 7
M  V30 7 1 7 8
M  V30 8 1 5 9
M  V30 9 1 9 10
M  V30 10 1 10 11
M  V30 11 2 11 12
M  V30 12 1 12 13
M  V30 13 1 12 14
M  V30 14 1 14 15
M  V30 15 1 15 16
M  V30 16 2 16 17
M  V30 17 1 17 18
M  V30 18 2 18 19
M  V30 19 1 19 20
M  V30 20 2 20 21
M  V30 21 1 21 22
M  V30 22 2 22 23
M  V30 23 1 23 24
M  V30 24 2 24 25
M  V30 25 1 25 26
M  V30 26 1 19 27
M  V30 27 2 27 28
M  V30 28 1 13 2
M  V30 29 1 28 16
M  V30 30 1 8 5
M  V30 31 2 13 9
M  V30 32 1 25 20
M  V30 33 1 28 11
M  V30 34 1 3 29
M  V30 35 1 4 30
M  V30 36 1 4 31
M  V30 37 1 6 32
M  V30 38 1 6 33
M  V30 39 1 7 34
M  V30 40 1 8 35
M  V30 41 1 8 36
M  V30 42 1 10 37
M  V30 43 1 14 38
M  V30 44 1 14 39
M  V30 45 1 15 40
M  V30 46 1 15 41
M  V30 47 1 17 42
M  V30 48 1 21 43
M  V30 49 1 22 44
M  V30 50 1 23 45
M  V30 51 1 24 46
M  V30 52 1 27 47
M  V30 END BOND
M  V30 END CTAB
M  END
>  <Dataset>  (838) 
ChEMBL_Kinases

>  <Ligand_Instance>  (838) 
nan

>  <PDB_ID>  (838) 
nan

>  <Standardized_SMILES>  (838) 
O=C1NCC2(CNC2)c2[nH]c3c(c21)CCc1cnc(-c2ccccc2F)cc1-3

>  <Name>  (838) 
nan

>  <Pocket>  (838) 
nan

>  <ATP_Site>  (838) 
nan

>  <Peripheral>  (838) 
nan

>  <Num_H_Atoms_ProtBoundConf>  (838) 
nan

>  <Num_Resolved_Atoms>  (838) 
nan

>  <Num_Not_Resolved_Atoms>  (838) 
nan

$$$$
CHEMBL1801285
     RDKit          3D

  0  0  0  0  0  0  0  0  0  0999 V3000
M  V30 BEGIN CTAB
M  V30 COUNTS 47 52 0 0 0
M  V30 BEGIN ATOM
M  V30 1 O 2.695560 3.954359 0.767262 0
M  V30 2 C 2.466860 3.082506 -0.138493 0
M  V30 3 N 2.973439 3.195104 -1.483933 0
M  V30 4 C 2.070591 2.599583 -2.480424 0
M  V30 5 C 1.953051 1.150742 -2.123814 0
M  V30 6 C 3.263339 0.436118 -2.388782 0
M  V30 7 N 2.710093 0.035762 -3.672406 0
M  V30 8 C 1.350018 0.265188 -3.181058 0
M  V30 9 C 1.396732 0.962353 -0.765431 0
M  V30 10 N 0.635518 -0.027109 -0.255371 0
M  V30 11 C 0.391604 0.266909 1.034292 0
M  V30 12 C 1.003809 1.460745 1.357741 0
M  V30 13 C 1.644573 1.904611 0.211401 0
M  V30 14 C 1.003799 2.168092 2.661726 0
M  V30 15 C 0.233480 1.462357 3.721303 0
M  V30 16 C -0.391437 0.190552 3.293697 0
M  V30 17 C -1.098407 -0.431121 4.315356 0
M  V30 18 N -1.735066 -1.614640 4.086177 0
M  V30 19 C -1.695620 -2.204569 2.878193 0
M  V30 20 C -2.408583 -3.470113 2.731819 0
M  V30 21 C -3.074321 -3.985053 3.823802 0
M  V30 22 C -3.776156 -5.174537 3.783503 0
M  V30 23 C -3.814847 -5.881378 2.599654 0
M  V30 24 C -3.161858 -5.400710 1.483599 0
M  V30 25 F -3.214224 -6.112519 0.332520 0
M  V30 26 C -2.471676 -4.206541 1.568253 0
M  V30 27 C -1.002754 -1.613668 1.843058 0
M  V30 28 C -0.366173 -0.434685 2.064137 0
M  V30 29 H 3.908973 3.683098 -1.561084 0
M  V30 30 H 1.100298 3.138308 -2.508996 0
M  V30 31 H 2.506895 2.708332 -3.480139 0
M  V30 32 H 4.145075 1.110169 -2.541668 0
M  V30 33 H 3.447832 -0.380264 -1.680207 0
M  V30 34 H 2.922876 -0.919782 -3.990336 0
M  V30 35 H 1.016011 -0.703555 -2.710825 0
M  V30 36 H 0.649818 0.717747 -3.885115 0
M  V30 37 H 0.282824 -0.877853 -0.742069 0
M  V30 38 H 0.580397 3.177323 2.492111 0
M  V30 39 H 2.069743 2.240601 3.007861 0
M  V30 40 H -0.590088 2.117176 4.068127 0
M  V30 41 H 0.840588 1.267159 4.645461 0
M  V30 42 H -1.197319 -0.047667 5.325169 0
M  V30 43 H -3.082802 -3.479956 4.780507 0
M  V30 44 H -4.290041 -5.552444 4.662458 0
M  V30 45 H -4.379335 -6.825199 2.590993 0
M  V30 46 H -1.960707 -3.829667 0.696306 0
M  V30 47 H -0.962297 -2.066135 0.885263 0
M  V30 END ATOM
M  V30 BEGIN BOND
M  V30 1 2 1 2
M  V30 2 1 2 3
M  V30 3 1 3 4
M  V30 4 1 4 5
M  V30 5 1 5 6
M  V30 6 1 6 7
M  V30 7 1 7 8
M  V30 8 1 5 9
M  V30 9 1 9 10
M  V30 10 1 10 11
M  V30 11 2 11 12
M  V30 12 1 12 13
M  V30 13 1 12 14
M  V30 14 1 14 15
M  V30 15 1 15 16
M  V30 16 2 16 17
M  V30 17 1 17 18
M  V30 18 2 18 19
M  V30 19 1 19 20
M  V30 20 2 20 21
M  V30 21 1 21 22
M  V30 22 2 22 23
M  V30 23 1 23 24
M  V30 24 1 24 25
M  V30 25 2 24 26
M  V30 26 1 19 27
M  V30 27 2 27 28
M  V30 28 1 13 2
M  V30 29 1 28 16
M  V30 30 1 8 5
M  V30 31 2 13 9
M  V30 32 1 26 20
M  V30 33 1 28 11
M  V30 34 1 3 29
M  V30 35 1 4 30
M  V30 36 1 4 31
M  V30 37 1 6 32
M  V30 38 1 6 33
M  V30 39 1 7 34
M  V30 40 1 8 35
M  V30 41 1 8 36
M  V30 42 1 10 37
M  V30 43 1 14 38
M  V30 44 1 14 39
M  V30 45 1 15 40
M  V30 46 1 15 41
M  V30 47 1 17 42
M  V30 48 1 21 43
M  V30 49 1 22 44
M  V30 50 1 23 45
M  V30 51 1 26 46
M  V30 52 1 27 47
M  V30 END BOND
M  V30 END CTAB
M  END
>  <Dataset>  (839) 
ChEMBL_Kinases

>  <Ligand_Instance>  (839) 
nan

>  <PDB_ID>  (839) 
nan

>  <Standardized_SMILES>  (839) 
O=C1NCC2(CNC2)c2[nH]c3c(c21)CCc1cnc(-c2cccc(F)c2)cc1-3

>  <Name>  (839) 
nan

>  <Pocket>  (839) 
nan

>  <ATP_Site>  (839) 
nan

>  <Peripheral>  (839) 
nan

>  <Num_H_Atoms_ProtBoundConf>  (839) 
nan

>  <Num_Resolved_Atoms>  (839) 
nan

>  <Num_Not_Resolved_Atoms>  (839) 
nan

$$$$
CHEMBL1801286
     RDKit          3D

  0  0  0  0  0  0  0  0  0  0999 V3000
M  V30 BEGIN CTAB
M  V30 COUNTS 63 68 0 0 0
M  V30 BEGIN ATOM
M  V30 1 C 6.380294 -0.143075 4.370506 0
M  V30 2 O 7.190283 0.940657 4.161834 0
M  V30 3 C 6.595450 2.074124 3.671508 0
M  V30 4 C 5.928396 1.905029 2.321785 0
M  V30 5 C 5.342140 3.222854 1.930873 0
M  V30 6 O 4.683714 3.278302 0.715913 0
M  V30 7 C 3.571957 2.587030 0.326850 0
M  V30 8 C 3.301682 2.980323 -0.996439 0
M  V30 9 N 2.247779 2.486592 -1.717173 0
M  V30 10 C 1.413009 1.571257 -1.140072 0
M  V30 11 C 1.648308 1.163918 0.154787 0
M  V30 12 C 0.842742 0.197993 0.892603 0
M  V30 13 C -0.253434 -0.384206 0.292308 0
M  V30 14 C -1.056638 -1.304478 0.934009 0
M  V30 15 C -0.792862 -1.690352 2.230793 0
M  V30 16 C 0.308777 -1.093548 2.808419 0
M  V30 17 N 1.071623 -0.200366 2.156997 0
M  V30 18 C -1.529135 -2.653314 3.081490 0
M  V30 19 C -2.709840 -3.286836 2.444717 0
M  V30 20 C -2.945698 -2.830897 1.043796 0
M  V30 21 C -2.217684 -1.923925 0.303408 0
M  V30 22 N -2.765180 -1.795097 -0.915259 0
M  V30 23 C -3.852496 -2.619022 -0.971391 0
M  V30 24 C -3.978462 -3.270046 0.238635 0
M  V30 25 C -5.098161 -4.210892 0.385665 0
M  V30 26 O -5.249842 -4.818440 1.456432 0
M  V30 27 N -5.950167 -4.359896 -0.743310 0
M  V30 28 C -5.710512 -3.826937 -2.042324 0
M  V30 29 C -4.708304 -2.747854 -2.154277 0
M  V30 30 C -4.007427 -2.613724 -3.486091 0
M  V30 31 N -4.779309 -1.463037 -3.868572 0
M  V30 32 C -4.010347 -0.280207 -4.226865 0
M  V30 33 C -5.321837 -1.413981 -2.524914 0
M  V30 34 C 2.710315 1.665697 0.872357 0
M  V30 35 H 7.048166 -0.959994 4.781643 0
M  V30 36 H 5.941231 -0.514866 3.404787 0
M  V30 37 H 5.555554 0.016471 5.072975 0
M  V30 38 H 5.876181 2.442014 4.433250 0
M  V30 39 H 7.400510 2.836544 3.561839 0
M  V30 40 H 5.226998 1.078624 2.415955 0
M  V30 41 H 6.768132 1.626759 1.622728 0
M  V30 42 H 6.197298 3.957928 1.927148 0
M  V30 43 H 4.709820 3.560031 2.782780 0
M  V30 44 H 3.820946 3.685871 -1.653616 0
M  V30 45 H 0.579515 1.160195 -1.665456 0
M  V30 46 H -0.577224 -0.179634 -0.709949 0
M  V30 47 H 0.692335 -1.252558 3.813164 0
M  V30 48 H -1.863803 -2.051474 3.975496 0
M  V30 49 H -0.835853 -3.451151 3.451546 0
M  V30 50 H -2.620553 -4.388644 2.504557 0
M  V30 51 H -3.628408 -3.050642 3.047760 0
M  V30 52 H -2.348977 -1.140840 -1.635728 0
M  V30 53 H -6.830397 -4.903204 -0.627835 0
M  V30 54 H -5.348558 -4.693197 -2.670901 0
M  V30 55 H -6.654831 -3.499595 -2.557726 0
M  V30 56 H -4.228659 -3.474560 -4.154479 0
M  V30 57 H -2.904850 -2.470309 -3.427857 0
M  V30 58 H -4.309691 0.591582 -3.610244 0
M  V30 59 H -2.932420 -0.439657 -4.189940 0
M  V30 60 H -4.265145 0.021557 -5.279716 0
M  V30 61 H -4.967851 -0.565135 -1.900021 0
M  V30 62 H -6.444867 -1.458176 -2.571743 0
M  V30 63 H 2.990805 1.439842 1.870879 0
M  V30 END ATOM
M  V30 BEGIN BOND
M  V30 1 1 1 2
M  V30 2 1 2 3
M  V30 3 1 3 4
M  V30 4 1 4 5
M  V30 5 1 5 6
M  V30 6 1 6 7
M  V30 7 2 7 8
M  V30 8 1 8 9
M  V30 9 2 9 10
M  V30 10 1 10 11
M  V30 11 1 11 12
M  V30 12 2 12 13
M  V30 13 1 13 14
M  V30 14 2 14 15
M  V30 15 1 15 16
M  V30 16 2 16 17
M  V30 17 1 15 18
M  V30 18 1 18 19
M  V30 19 1 19 20
M  V30 20 2 20 21
M  V30 21 1 21 22
M  V30 22 1 22 23
M  V30 23 2 23 24
M  V30 24 1 24 25
M  V30 25 2 25 26
M  V30 26 1 25 27
M  V30 27 1 27 28
M  V30 28 1 28 29
M  V30 29 1 29 30
M  V30 30 1 30 31
M  V30 31 1 31 32
M  V30 32 1 31 33
M  V30 33 2 11 34
M  V30 34 1 34 7
M  V30 35 1 17 12
M  V30 36 1 24 20
M  V30 37 1 33 29
M  V30 38 1 21 14
M  V30 39 1 29 23
M  V30 40 1 1 35
M  V30 41 1 1 36
M  V30 42 1 1 37
M  V30 43 1 3 38
M  V30 44 1 3 39
M  V30 45 1 4 40
M  V30 46 1 4 41
M  V30 47 1 5 42
M  V30 48 1 5 43
M  V30 49 1 8 44
M  V30 50 1 10 45
M  V30 51 1 13 46
M  V30 52 1 16 47
M  V30 53 1 18 48
M  V30 54 1 18 49
M  V30 55 1 19 50
M  V30 56 1 19 51
M  V30 57 1 22 52
M  V30 58 1 27 53
M  V30 59 1 28 54
M  V30 60 1 28 55
M  V30 61 1 30 56
M  V30 62 1 30 57
M  V30 63 1 32 58
M  V30 64 1 32 59
M  V30 65 1 32 60
M  V30 66 1 33 61
M  V30 67 1 33 62
M  V30 68 1 34 63
M  V30 END BOND
M  V30 END CTAB
M  END
>  <Dataset>  (840) 
ChEMBL_Kinases

>  <Ligand_Instance>  (840) 
nan

>  <PDB_ID>  (840) 
nan

>  <Standardized_SMILES>  (840) 
COCCCOc1cncc(-c2cc3c(cn2)CCc2c-3[nH]c3c2C(=O)NCC32CN(C)C2)c1

>  <Name>  (840) 
nan

>  <Pocket>  (840) 
nan

>  <ATP_Site>  (840) 
nan

>  <Peripheral>  (840) 
nan

>  <Num_H_Atoms_ProtBoundConf>  (840) 
nan

>  <Num_Resolved_Atoms>  (840) 
nan

>  <Num_Not_Resolved_Atoms>  (840) 
nan

$$$$
CHEMBL1801287
     RDKit          3D

  0  0  0  0  0  0  0  0  0  0999 V3000
M  V30 BEGIN CTAB
M  V30 COUNTS 50 55 0 0 0
M  V30 BEGIN ATOM
M  V30 1 C 1.432859 -4.536772 0.407658 0
M  V30 2 N 2.696435 -4.163895 -0.194696 0
M  V30 3 C 3.497743 -3.258389 0.577758 0
M  V30 4 C 3.300543 -2.129081 -0.390710 0
M  V30 5 C 4.562471 -1.557398 -0.989714 0
M  V30 6 N 5.182349 -0.772853 0.088644 0
M  V30 7 C 4.354373 0.296574 0.573837 0
M  V30 8 O 4.877022 1.381474 1.002852 0
M  V30 9 C 2.899582 0.188144 0.596101 0
M  V30 10 C 2.448226 -1.020574 0.112227 0
M  V30 11 N 1.104919 -0.994450 0.185841 0
M  V30 12 C 0.733951 0.189898 0.697923 0
M  V30 13 C 1.825737 0.977759 0.976045 0
M  V30 14 C 1.978708 2.335721 1.534902 0
M  V30 15 C 0.646592 2.919916 1.847799 0
M  V30 16 C -0.508128 2.041579 1.531711 0
M  V30 17 C -1.730810 2.647155 1.841446 0
M  V30 18 N -2.900002 1.993922 1.621816 0
M  V30 19 C -2.931703 0.754675 1.104557 0
M  V30 20 C -4.230617 0.126814 0.901562 0
M  V30 21 C -5.346975 0.840202 1.251587 0
M  V30 22 C -6.628625 0.314548 1.090602 0
M  V30 23 C -6.780505 -0.955431 0.566023 0
M  V30 24 C -5.653018 -1.687567 0.207637 0
M  V30 25 F -5.778800 -2.940517 -0.311037 0
M  V30 26 C -4.423599 -1.135502 0.382086 0
M  V30 27 C -1.756126 0.118099 0.783987 0
M  V30 28 C -0.567890 0.773170 1.003485 0
M  V30 29 C 2.592267 -3.148263 -1.226569 0
M  V30 30 H 1.356801 -4.171730 1.451444 0
M  V30 31 H 0.595737 -4.125861 -0.193394 0
M  V30 32 H 1.345059 -5.648483 0.359901 0
M  V30 33 H 2.999400 -3.083505 1.574376 0
M  V30 34 H 4.537803 -3.622315 0.698290 0
M  V30 35 H 5.224930 -2.411236 -1.242884 0
M  V30 36 H 4.303648 -0.945519 -1.857149 0
M  V30 37 H 6.120262 -0.839341 0.580257 0
M  V30 38 H 0.411091 -1.725134 -0.087009 0
M  V30 39 H 2.478532 2.988025 0.754300 0
M  V30 40 H 2.593618 2.320287 2.462946 0
M  V30 41 H 0.554729 3.899279 1.301256 0
M  V30 42 H 0.624453 3.197861 2.946442 0
M  V30 43 H -1.863845 3.653099 2.268625 0
M  V30 44 H -5.363603 1.834323 1.668452 0
M  V30 45 H -7.560291 0.817582 1.344077 0
M  V30 46 H -7.741547 -1.394384 0.426571 0
M  V30 47 H -3.554256 -1.712732 0.100427 0
M  V30 48 H -1.723482 -0.870427 0.368714 0
M  V30 49 H 1.520918 -2.900965 -1.402587 0
M  V30 50 H 3.144585 -3.499218 -2.129148 0
M  V30 END ATOM
M  V30 BEGIN BOND
M  V30 1 1 1 2
M  V30 2 1 2 3
M  V30 3 1 3 4
M  V30 4 1 4 5
M  V30 5 1 5 6
M  V30 6 1 6 7
M  V30 7 2 7 8
M  V30 8 1 7 9
M  V30 9 2 9 10
M  V30 10 1 10 11
M  V30 11 1 11 12
M  V30 12 2 12 13
M  V30 13 1 13 14
M  V30 14 1 14 15
M  V30 15 1 15 16
M  V30 16 2 16 17
M  V30 17 1 17 18
M  V30 18 2 18 19
M  V30 19 1 19 20
M  V30 20 2 20 21
M  V30 21 1 21 22
M  V30 22 2 22 23
M  V30 23 1 23 24
M  V30 24 1 24 25
M  V30 25 2 24 26
M  V30 26 1 19 27
M  V30 27 2 27 28
M  V30 28 1 4 29
M  V30 29 1 29 2
M  V30 30 1 10 4
M  V30 31 1 28 12
M  V30 32 1 13 9
M  V30 33 1 28 16
M  V30 34 1 26 20
M  V30 35 1 1 30
M  V30 36 1 1 31
M  V30 37 1 1 32
M  V30 38 1 3 33
M  V30 39 1 3 34
M  V30 40 1 5 35
M  V30 41 1 5 36
M  V30 42 1 6 37
M  V30 43 1 11 38
M  V30 44 1 14 39
M  V30 45 1 14 40
M  V30 46 1 15 41
M  V30 47 1 15 42
M  V30 48 1 17 43
M  V30 49 1 21 44
M  V30 50 1 22 45
M  V30 51 1 23 46
M  V30 52 1 26 47
M  V30 53 1 27 48
M  V30 54 1 29 49
M  V30 55 1 29 50
M  V30 END BOND
M  V30 END CTAB
M  END
>  <Dataset>  (841) 
ChEMBL_Kinases

>  <Ligand_Instance>  (841) 
nan

>  <PDB_ID>  (841) 
nan

>  <Standardized_SMILES>  (841) 
CN1CC2(CNC(=O)c3c2[nH]c2c3CCc3cnc(-c4cccc(F)c4)cc3-2)C1

>  <Name>  (841) 
nan

>  <Pocket>  (841) 
nan

>  <ATP_Site>  (841) 
nan

>  <Peripheral>  (841) 
nan

>  <Num_H_Atoms_ProtBoundConf>  (841) 
nan

>  <Num_Resolved_Atoms>  (841) 
nan

>  <Num_Not_Resolved_Atoms>  (841) 
nan

$$$$
CHEMBL1801288
     RDKit          3D

  0  0  0  0  0  0  0  0  0  0999 V3000
M  V30 BEGIN CTAB
M  V30 COUNTS 54 59 0 0 0
M  V30 BEGIN ATOM
M  V30 1 C 5.433744 -3.964632 6.342490 0
M  V30 2 O 4.243691 -4.117611 5.600980 0
M  V30 3 C 3.768377 -3.151271 4.724237 0
M  V30 4 C 4.393691 -1.945177 4.477757 0
M  V30 5 C 3.830324 -1.037414 3.572861 0
M  V30 6 C 2.651972 -1.300416 2.901698 0
M  V30 7 C 2.155129 -0.281526 1.980173 0
M  V30 8 C 0.991560 -0.430658 1.254802 0
M  V30 9 C 0.596552 0.578809 0.409320 0
M  V30 10 C 1.322286 1.725044 0.266424 0
M  V30 11 C 2.487174 1.844398 1.009506 0
M  V30 12 N 2.882193 0.842901 1.850476 0
M  V30 13 C 1.063673 2.913217 -0.583248 0
M  V30 14 C -0.176945 2.827677 -1.406300 0
M  V30 15 C -0.912975 1.546744 -1.191645 0
M  V30 16 C -0.624354 0.470279 -0.380645 0
M  V30 17 N -1.572562 -0.462457 -0.512513 0
M  V30 18 C -2.480575 -0.013871 -1.399060 0
M  V30 19 C -2.109347 1.236693 -1.849122 0
M  V30 20 C -2.993170 1.890424 -2.834982 0
M  V30 21 O -2.664814 3.019602 -3.246177 0
M  V30 22 N -4.177083 1.220670 -3.279887 0
M  V30 23 C -4.727779 0.225629 -2.412630 0
M  V30 24 C -3.694265 -0.711508 -1.849040 0
M  V30 25 C -3.343818 -1.779338 -2.866966 0
M  V30 26 N -3.944462 -2.739986 -1.957430 0
M  V30 27 C -2.962562 -3.705143 -1.495415 0
M  V30 28 C -4.224764 -1.755759 -0.916342 0
M  V30 29 C 2.029322 -2.505938 3.149701 0
M  V30 30 C 2.591169 -3.415062 4.054284 0
M  V30 31 H 6.287474 -3.634547 5.691824 0
M  V30 32 H 5.352939 -3.212261 7.151343 0
M  V30 33 H 5.743191 -4.937432 6.749171 0
M  V30 34 H 5.313614 -1.757833 5.011873 0
M  V30 35 H 4.421399 -0.141287 3.477659 0
M  V30 36 H 0.391829 -1.324076 1.342559 0
M  V30 37 H 3.158819 2.694655 0.996269 0
M  V30 38 H 0.978252 3.814554 0.080969 0
M  V30 39 H 1.930986 3.106883 -1.230553 0
M  V30 40 H -0.838125 3.705222 -1.199611 0
M  V30 41 H 0.125065 2.890735 -2.492995 0
M  V30 42 H -1.532538 -1.364717 0.026474 0
M  V30 43 H -4.552851 1.497424 -4.190118 0
M  V30 44 H -5.465851 -0.366171 -2.978265 0
M  V30 45 H -5.210242 0.706552 -1.511869 0
M  V30 46 H -3.859808 -1.677944 -3.843159 0
M  V30 47 H -2.277270 -1.960887 -3.043198 0
M  V30 48 H -3.401037 -4.742092 -1.510860 0
M  V30 49 H -2.566496 -3.486518 -0.488325 0
M  V30 50 H -2.095446 -3.710759 -2.219443 0
M  V30 51 H -5.297721 -1.663606 -0.656217 0
M  V30 52 H -3.664696 -1.923347 0.029336 0
M  V30 53 H 1.107176 -2.723868 2.631293 0
M  V30 54 H 2.010911 -4.336453 4.171235 0
M  V30 END ATOM
M  V30 BEGIN BOND
M  V30 1 1 1 2
M  V30 2 1 2 3
M  V30 3 2 3 4
M  V30 4 1 4 5
M  V30 5 2 5 6
M  V30 6 1 6 7
M  V30 7 2 7 8
M  V30 8 1 8 9
M  V30 9 2 9 10
M  V30 10 1 10 11
M  V30 11 2 11 12
M  V30 12 1 10 13
M  V30 13 1 13 14
M  V30 14 1 14 15
M  V30 15 2 15 16
M  V30 16 1 16 17
M  V30 17 1 17 18
M  V30 18 2 18 19
M  V30 19 1 19 20
M  V30 20 2 20 21
M  V30 21 1 20 22
M  V30 22 1 22 23
M  V30 23 1 23 24
M  V30 24 1 24 25
M  V30 25 1 25 26
M  V30 26 1 26 27
M  V30 27 1 26 28
M  V30 28 1 6 29
M  V30 29 2 29 30
M  V30 30 1 30 3
M  V30 31 1 12 7
M  V30 32 1 19 15
M  V30 33 1 28 24
M  V30 34 1 16 9
M  V30 35 1 24 18
M  V30 36 1 1 31
M  V30 37 1 1 32
M  V30 38 1 1 33
M  V30 39 1 4 34
M  V30 40 1 5 35
M  V30 41 1 8 36
M  V30 42 1 11 37
M  V30 43 1 13 38
M  V30 44 1 13 39
M  V30 45 1 14 40
M  V30 46 1 14 41
M  V30 47 1 17 42
M  V30 48 1 22 43
M  V30 49 1 23 44
M  V30 50 1 23 45
M  V30 51 1 25 46
M  V30 52 1 25 47
M  V30 53 1 27 48
M  V30 54 1 27 49
M  V30 55 1 27 50
M  V30 56 1 28 51
M  V30 57 1 28 52
M  V30 58 1 29 53
M  V30 59 1 30 54
M  V30 END BOND
M  V30 END CTAB
M  END
>  <Dataset>  (842) 
ChEMBL_Kinases

>  <Ligand_Instance>  (842) 
nan

>  <PDB_ID>  (842) 
nan

>  <Standardized_SMILES>  (842) 
COc1ccc(-c2cc3c(cn2)CCc2c-3[nH]c3c2C(=O)NCC32CN(C)C2)cc1

>  <Name>  (842) 
nan

>  <Pocket>  (842) 
nan

>  <ATP_Site>  (842) 
nan

>  <Peripheral>  (842) 
nan

>  <Num_H_Atoms_ProtBoundConf>  (842) 
nan

>  <Num_Resolved_Atoms>  (842) 
nan

>  <Num_Not_Resolved_Atoms>  (842) 
nan

$$$$
CHEMBL1801289
     RDKit          3D

  0  0  0  0  0  0  0  0  0  0999 V3000
M  V30 BEGIN CTAB
M  V30 COUNTS 49 54 0 0 0
M  V30 BEGIN ATOM
M  V30 1 C 0.642921 -2.995880 -2.469315 0
M  V30 2 N 1.707320 -2.158810 -2.969038 0
M  V30 3 C 2.851748 -2.032479 -2.085395 0
M  V30 4 C 2.499022 -0.568073 -1.844418 0
M  V30 5 C 3.630172 0.378221 -2.132183 0
M  V30 6 N 4.596454 0.209916 -1.036855 0
M  V30 7 C 4.062881 0.473491 0.272909 0
M  V30 8 O 4.791209 0.937591 1.191823 0
M  V30 9 C 2.657798 0.207275 0.567260 0
M  V30 10 C 1.944153 -0.297349 -0.496424 0
M  V30 11 N 0.670000 -0.489732 -0.068991 0
M  V30 12 C 0.602926 -0.115062 1.216982 0
M  V30 13 C 1.818463 0.334249 1.681861 0
M  V30 14 C 2.264302 0.844907 2.987527 0
M  V30 15 C 1.139904 0.855318 3.959364 0
M  V30 16 C -0.156713 0.364537 3.424212 0
M  V30 17 C -1.187888 0.391373 4.369320 0
M  V30 18 N -2.427613 -0.019640 4.049666 0
M  V30 19 C -2.770589 -0.476647 2.833698 0
M  V30 20 C -4.131251 -0.909990 2.541199 0
M  V30 21 C -4.565269 -1.385805 1.339149 0
M  V30 22 C -5.860460 -1.788160 1.093935 0
M  V30 23 C -6.760663 -1.698053 2.137872 0
M  V30 24 F -8.047791 -2.055004 2.035073 0
M  V30 25 N -6.353826 -1.231635 3.331649 0
M  V30 26 C -5.076576 -0.841416 3.551917 0
M  V30 27 C -1.778352 -0.516287 1.878888 0
M  V30 28 C -0.498841 -0.102872 2.173354 0
M  V30 29 C 1.484905 -0.737561 -2.914452 0
M  V30 30 H 0.606237 -3.977114 -3.012807 0
M  V30 31 H -0.365090 -2.545465 -2.655450 0
M  V30 32 H 0.790298 -3.259514 -1.401830 0
M  V30 33 H 2.757985 -2.628095 -1.145869 0
M  V30 34 H 3.804779 -2.174379 -2.639016 0
M  V30 35 H 3.264687 1.406296 -2.204090 0
M  V30 36 H 4.132010 0.023388 -3.060431 0
M  V30 37 H 5.608538 -0.072535 -1.080832 0
M  V30 38 H -0.122077 -0.853362 -0.604567 0
M  V30 39 H 2.608033 1.898550 2.810270 0
M  V30 40 H 3.106240 0.261559 3.413017 0
M  V30 41 H 1.442183 0.251838 4.868288 0
M  V30 42 H 0.925726 1.916111 4.281322 0
M  V30 43 H -1.066229 0.732601 5.388956 0
M  V30 44 H -3.876792 -1.457234 0.532495 0
M  V30 45 H -6.196284 -2.160598 0.149787 0
M  V30 46 H -4.785584 -0.470170 4.529363 0
M  V30 47 H -1.960329 -0.867452 0.876764 0
M  V30 48 H 0.464122 -0.457114 -2.530231 0
M  V30 49 H 1.706104 -0.251189 -3.890124 0
M  V30 END ATOM
M  V30 BEGIN BOND
M  V30 1 1 1 2
M  V30 2 1 2 3
M  V30 3 1 3 4
M  V30 4 1 4 5
M  V30 5 1 5 6
M  V30 6 1 6 7
M  V30 7 2 7 8
M  V30 8 1 7 9
M  V30 9 2 9 10
M  V30 10 1 10 11
M  V30 11 1 11 12
M  V30 12 2 12 13
M  V30 13 1 13 14
M  V30 14 1 14 15
M  V30 15 1 15 16
M  V30 16 2 16 17
M  V30 17 1 17 18
M  V30 18 2 18 19
M  V30 19 1 19 20
M  V30 20 2 20 21
M  V30 21 1 21 22
M  V30 22 2 22 23
M  V30 23 1 23 24
M  V30 24 1 23 25
M  V30 25 2 25 26
M  V30 26 1 19 27
M  V30 27 2 27 28
M  V30 28 1 4 29
M  V30 29 1 29 2
M  V30 30 1 10 4
M  V30 31 1 28 12
M  V30 32 1 13 9
M  V30 33 1 28 16
M  V30 34 1 26 20
M  V30 35 1 1 30
M  V30 36 1 1 31
M  V30 37 1 1 32
M  V30 38 1 3 33
M  V30 39 1 3 34
M  V30 40 1 5 35
M  V30 41 1 5 36
M  V30 42 1 6 37
M  V30 43 1 11 38
M  V30 44 1 14 39
M  V30 45 1 14 40
M  V30 46 1 15 41
M  V30 47 1 15 42
M  V30 48 1 17 43
M  V30 49 1 21 44
M  V30 50 1 22 45
M  V30 51 1 26 46
M  V30 52 1 27 47
M  V30 53 1 29 48
M  V30 54 1 29 49
M  V30 END BOND
M  V30 END CTAB
M  END
>  <Dataset>  (843) 
ChEMBL_Kinases

>  <Ligand_Instance>  (843) 
nan

>  <PDB_ID>  (843) 
nan

>  <Standardized_SMILES>  (843) 
CN1CC2(CNC(=O)c3c2[nH]c2c3CCc3cnc(-c4ccc(F)nc4)cc3-2)C1

>  <Name>  (843) 
nan

>  <Pocket>  (843) 
nan

>  <ATP_Site>  (843) 
nan

>  <Peripheral>  (843) 
nan

>  <Num_H_Atoms_ProtBoundConf>  (843) 
nan

>  <Num_Resolved_Atoms>  (843) 
nan

>  <Num_Not_Resolved_Atoms>  (843) 
nan

$$$$
CHEMBL1801290
     RDKit          3D

  0  0  0  0  0  0  0  0  0  0999 V3000
M  V30 BEGIN CTAB
M  V30 COUNTS 70 76 0 0 0
M  V30 BEGIN ATOM
M  V30 1 C 4.933349 -2.332722 0.984371 0
M  V30 2 N 5.859462 -1.216860 0.959976 0
M  V30 3 C 5.352427 -0.037974 0.288535 0
M  V30 4 C 5.344194 0.667750 1.599975 0
M  V30 5 C 6.192730 1.897687 1.740430 0
M  V30 6 N 6.303121 2.181071 3.172158 0
M  V30 7 C 5.029038 2.460326 3.781123 0
M  V30 8 O 4.882356 3.265147 4.762516 0
M  V30 9 C 3.837899 1.785174 3.246252 0
M  V30 10 C 3.995989 0.914571 2.185194 0
M  V30 11 N 2.827340 0.382051 1.812269 0
M  V30 12 C 1.915093 0.915448 2.640281 0
M  V30 13 C 2.491442 1.784938 3.539758 0
M  V30 14 C 1.845168 2.564061 4.601760 0
M  V30 15 C 0.369859 2.394507 4.713582 0
M  V30 16 C -0.204943 1.438088 3.713796 0
M  V30 17 C -1.569536 1.274494 3.817446 0
M  V30 18 N -2.259318 0.456193 3.004413 0
M  V30 19 C -1.612842 -0.235869 2.049893 0
M  V30 20 C -2.408155 -1.109486 1.194863 0
M  V30 21 C -3.771252 -1.202116 1.381984 0
M  V30 22 C -4.514725 -2.049873 0.546393 0
M  V30 23 C -3.912226 -2.804269 -0.471856 0
M  V30 24 O -4.896104 -3.521917 -1.101032 0
M  V30 25 C -4.791761 -4.399667 -2.169422 0
M  V30 26 C -4.310631 -3.861766 -3.471097 0
M  V30 27 N -5.134856 -2.828676 -4.050874 0
M  V30 28 C -5.066659 -1.633642 -3.274866 0
M  V30 29 C -5.614209 -0.431049 -4.067619 0
M  V30 30 O -4.953606 -0.275508 -5.279017 0
M  V30 31 C -5.315046 -1.404952 -6.046237 0
M  V30 32 C -4.677142 -2.619056 -5.405638 0
M  V30 33 C -2.549353 -2.680883 -0.622246 0
M  V30 34 C -1.817922 -1.850087 0.195781 0
M  V30 35 C -0.255557 -0.099356 1.915906 0
M  V30 36 C 0.470503 0.735133 2.740313 0
M  V30 37 C 6.048555 -0.546948 2.209544 0
M  V30 38 H 4.544740 -2.578372 -0.012724 0
M  V30 39 H 5.450696 -3.240484 1.350486 0
M  V30 40 H 4.071494 -2.160146 1.657465 0
M  V30 41 H 6.024338 0.370110 -0.498564 0
M  V30 42 H 4.321259 -0.252593 -0.110871 0
M  V30 43 H 7.222277 1.680262 1.389234 0
M  V30 44 H 5.813030 2.756195 1.182865 0
M  V30 45 H 7.128896 2.220647 3.841766 0
M  V30 46 H 2.610034 -0.296646 1.059386 0
M  V30 47 H 2.113462 3.660623 4.564867 0
M  V30 48 H 2.303681 2.235228 5.578336 0
M  V30 49 H -0.130040 3.390265 4.534740 0
M  V30 50 H 0.074078 2.111680 5.744107 0
M  V30 51 H -2.185177 1.794408 4.562866 0
M  V30 52 H -4.214222 -0.609201 2.175522 0
M  V30 53 H -5.581498 -2.009901 0.825629 0
M  V30 54 H -4.126295 -5.243698 -1.801987 0
M  V30 55 H -5.771177 -4.905312 -2.349333 0
M  V30 56 H -4.305343 -4.756313 -4.178337 0
M  V30 57 H -3.250331 -3.534019 -3.495133 0
M  V30 58 H -4.019554 -1.423117 -2.978454 0
M  V30 59 H -5.728473 -1.716148 -2.407158 0
M  V30 60 H -6.666693 -0.674911 -4.303793 0
M  V30 61 H -5.492644 0.447389 -3.417060 0
M  V30 62 H -4.963031 -1.348456 -7.077958 0
M  V30 63 H -6.410964 -1.490444 -5.942595 0
M  V30 64 H -4.965032 -3.496519 -6.024491 0
M  V30 65 H -3.561302 -2.508892 -5.397838 0
M  V30 66 H -2.189947 -3.305105 -1.423647 0
M  V30 67 H -0.781219 -1.845451 -0.023660 0
M  V30 68 H 0.302543 -0.632745 1.166885 0
M  V30 69 H 5.481956 -0.919503 3.076040 0
M  V30 70 H 7.099546 -0.327115 2.513306 0
M  V30 END ATOM
M  V30 BEGIN BOND
M  V30 1 1 1 2
M  V30 2 1 2 3
M  V30 3 1 3 4
M  V30 4 1 4 5
M  V30 5 1 5 6
M  V30 6 1 6 7
M  V30 7 2 7 8
M  V30 8 1 7 9
M  V30 9 2 9 10
M  V30 10 1 10 11
M  V30 11 1 11 12
M  V30 12 2 12 13
M  V30 13 1 13 14
M  V30 14 1 14 15
M  V30 15 1 15 16
M  V30 16 2 16 17
M  V30 17 1 17 18
M  V30 18 2 18 19
M  V30 19 1 19 20
M  V30 20 2 20 21
M  V30 21 1 21 22
M  V30 22 2 22 23
M  V30 23 1 23 24
M  V30 24 1 24 25
M  V30 25 1 25 26
M  V30 26 1 26 27
M  V30 27 1 27 28
M  V30 28 1 28 29
M  V30 29 1 29 30
M  V30 30 1 30 31
M  V30 31 1 31 32
M  V30 32 1 23 33
M  V30 33 2 33 34
M  V30 34 1 19 35
M  V30 35 2 35 36
M  V30 36 1 4 37
M  V30 37 1 37 2
M  V30 38 1 10 4
M  V30 39 1 36 12
M  V30 40 1 13 9
M  V30 41 1 36 16
M  V30 42 1 34 20
M  V30 43 1 32 27
M  V30 44 1 1 38
M  V30 45 1 1 39
M  V30 46 1 1 40
M  V30 47 1 3 41
M  V30 48 1 3 42
M  V30 49 1 5 43
M  V30 50 1 5 44
M  V30 51 1 6 45
M  V30 52 1 11 46
M  V30 53 1 14 47
M  V30 54 1 14 48
M  V30 55 1 15 49
M  V30 56 1 15 50
M  V30 57 1 17 51
M  V30 58 1 21 52
M  V30 59 1 22 53
M  V30 60 1 25 54
M  V30 61 1 25 55
M  V30 62 1 26 56
M  V30 63 1 26 57
M  V30 64 1 28 58
M  V30 65 1 28 59
M  V30 66 1 29 60
M  V30 67 1 29 61
M  V30 68 1 31 62
M  V30 69 1 31 63
M  V30 70 1 32 64
M  V30 71 1 32 65
M  V30 72 1 33 66
M  V30 73 1 34 67
M  V30 74 1 35 68
M  V30 75 1 37 69
M  V30 76 1 37 70
M  V30 END BOND
M  V30 END CTAB
M  END
>  <Dataset>  (844) 
ChEMBL_Kinases

>  <Ligand_Instance>  (844) 
nan

>  <PDB_ID>  (844) 
nan

>  <Standardized_SMILES>  (844) 
CN1CC2(CNC(=O)c3c2[nH]c2c3CCc3cnc(-c4ccc(OCCN5CCOCC5)cc4)cc3-2)C1

>  <Name>  (844) 
nan

>  <Pocket>  (844) 
nan

>  <ATP_Site>  (844) 
nan

>  <Peripheral>  (844) 
nan

>  <Num_H_Atoms_ProtBoundConf>  (844) 
nan

>  <Num_Resolved_Atoms>  (844) 
nan

>  <Num_Not_Resolved_Atoms>  (844) 
nan

$$$$
CHEMBL1801300
     RDKit          3D

  0  0  0  0  0  0  0  0  0  0999 V3000
M  V30 BEGIN CTAB
M  V30 COUNTS 43 48 0 0 0
M  V30 BEGIN ATOM
M  V30 1 O 4.174158 0.637689 3.484494 0
M  V30 2 C 3.778666 -0.450592 2.991122 0
M  V30 3 N 4.438160 -1.710403 3.240416 0
M  V30 4 C 3.574388 -2.871626 3.211659 0
M  V30 5 C 2.601161 -3.029995 4.403390 0
M  V30 6 C 3.725707 -4.008644 4.135493 0
M  V30 7 C 2.904485 -2.961841 1.879732 0
M  V30 8 C 2.187124 -1.687070 1.591680 0
M  V30 9 N 1.084328 -1.510165 0.815297 0
M  V30 10 C 0.807603 -0.193100 0.858107 0
M  V30 11 C 1.716858 0.474369 1.650101 0
M  V30 12 C 2.588645 -0.474844 2.112743 0
M  V30 13 C 1.750005 1.917096 1.943814 0
M  V30 14 C 0.667434 2.711466 1.297587 0
M  V30 15 C -0.270960 1.926380 0.462200 0
M  V30 16 C -1.274827 2.695899 -0.130940 0
M  V30 17 N -2.192138 2.067530 -0.921548 0
M  V30 18 C -2.179582 0.747076 -1.158873 0
M  V30 19 C -3.191047 0.131533 -2.016138 0
M  V30 20 C -3.145837 -1.230924 -2.237367 0
M  V30 21 C -4.090867 -1.833067 -3.043349 0
M  V30 22 C -5.051245 -0.989387 -3.590621 0
M  V30 23 F -6.036162 -1.443210 -4.398158 0
M  V30 24 N -5.070222 0.345449 -3.355298 0
M  V30 25 C -4.155781 0.949107 -2.571481 0
M  V30 26 N -1.206949 0.023987 -0.579991 0
M  V30 27 C -0.262394 0.568667 0.214990 0
M  V30 28 H 5.467618 -1.664230 3.416556 0
M  V30 29 H 2.703136 -2.283860 5.217341 0
M  V30 30 H 1.581837 -3.408968 4.181632 0
M  V30 31 H 3.513870 -5.033589 3.823992 0
M  V30 32 H 4.570939 -3.946716 4.860495 0
M  V30 33 H 2.267159 -3.837685 1.752497 0
M  V30 34 H 3.740939 -2.979323 1.120318 0
M  V30 35 H 0.536815 -2.226495 0.279700 0
M  V30 36 H 2.727994 2.287981 1.562047 0
M  V30 37 H 1.793190 2.096881 3.043899 0
M  V30 38 H 0.112691 3.271079 2.100829 0
M  V30 39 H 1.076556 3.516957 0.642094 0
M  V30 40 H -1.359775 3.775463 0.008268 0
M  V30 41 H -2.368579 -1.860265 -1.784460 0
M  V30 42 H -4.124771 -2.891403 -3.265851 0
M  V30 43 H -4.135360 2.003412 -2.359629 0
M  V30 END ATOM
M  V30 BEGIN BOND
M  V30 1 2 1 2
M  V30 2 1 2 3
M  V30 3 1 3 4
M  V30 4 1 4 5
M  V30 5 1 5 6
M  V30 6 1 4 7
M  V30 7 1 7 8
M  V30 8 1 8 9
M  V30 9 1 9 10
M  V30 10 2 10 11
M  V30 11 1 11 12
M  V30 12 1 11 13
M  V30 13 1 13 14
M  V30 14 1 14 15
M  V30 15 2 15 16
M  V30 16 1 16 17
M  V30 17 2 17 18
M  V30 18 1 18 19
M  V30 19 2 19 20
M  V30 20 1 20 21
M  V30 21 2 21 22
M  V30 22 1 22 23
M  V30 23 1 22 24
M  V30 24 2 24 25
M  V30 25 1 18 26
M  V30 26 2 26 27
M  V30 27 1 12 2
M  V30 28 1 27 15
M  V30 29 1 6 4
M  V30 30 2 12 8
M  V30 31 1 25 19
M  V30 32 1 27 10
M  V30 33 1 3 28
M  V30 34 1 5 29
M  V30 35 1 5 30
M  V30 36 1 6 31
M  V30 37 1 6 32
M  V30 38 1 7 33
M  V30 39 1 7 34
M  V30 40 1 9 35
M  V30 41 1 13 36
M  V30 42 1 13 37
M  V30 43 1 14 38
M  V30 44 1 14 39
M  V30 45 1 16 40
M  V30 46 1 20 41
M  V30 47 1 21 42
M  V30 48 1 25 43
M  V30 END BOND
M  V30 END CTAB
M  END
>  <Dataset>  (845) 
ChEMBL_Kinases

>  <Ligand_Instance>  (845) 
nan

>  <PDB_ID>  (845) 
nan

>  <Standardized_SMILES>  (845) 
O=C1NC2(CC2)Cc2[nH]c3c(c21)CCc1cnc(-c2ccc(F)nc2)nc1-3

>  <Name>  (845) 
nan

>  <Pocket>  (845) 
nan

>  <ATP_Site>  (845) 
nan

>  <Peripheral>  (845) 
nan

>  <Num_H_Atoms_ProtBoundConf>  (845) 
nan

>  <Num_Resolved_Atoms>  (845) 
nan

>  <Num_Not_Resolved_Atoms>  (845) 
nan

$$$$
CHEMBL1801292
     RDKit          3D

  0  0  0  0  0  0  0  0  0  0999 V3000
M  V30 BEGIN CTAB
M  V30 COUNTS 53 58 0 0 0
M  V30 BEGIN ATOM
M  V30 1 O -2.020472 -0.169118 -3.995689 0
M  V30 2 C -1.387226 -0.983814 -3.253367 0
M  V30 3 N -1.043312 -2.277892 -3.709983 0
M  V30 4 C 0.038857 -3.024049 -3.125045 0
M  V30 5 C 0.046306 -2.836443 -1.622986 0
M  V30 6 C 1.345203 -3.316434 -1.008963 0
M  V30 7 N 0.613837 -4.301584 -0.280498 0
M  V30 8 C 1.080197 -5.629906 -0.387923 0
M  V30 9 C 0.924713 -6.278851 -1.719971 0
M  V30 10 F 1.448327 -7.571004 -1.590760 0
M  V30 11 C -0.649430 -3.966413 -0.867911 0
M  V30 12 C -0.347483 -1.486178 -1.191976 0
M  V30 13 N -0.082204 -0.951609 0.031323 0
M  V30 14 C -0.581618 0.278016 0.055908 0
M  V30 15 C -1.195211 0.629388 -1.122057 0
M  V30 16 C -1.040650 -0.509805 -1.917632 0
M  V30 17 C -1.884902 1.809474 -1.626726 0
M  V30 18 C -1.919733 2.909476 -0.606954 0
M  V30 19 C -1.263264 2.484205 0.636104 0
M  V30 20 C -1.307886 3.490914 1.599049 0
M  V30 21 N -0.775461 3.357411 2.827745 0
M  V30 22 C -0.148418 2.225663 3.230885 0
M  V30 23 C 0.423709 2.092634 4.566476 0
M  V30 24 C 1.060795 0.973339 5.036053 0
M  V30 25 C 1.594219 0.873744 6.307787 0
M  V30 26 C 1.458577 1.980835 7.118767 0
M  V30 27 C 0.824415 3.155333 6.714730 0
M  V30 28 C 0.307249 3.190573 5.417396 0
M  V30 29 F -0.296409 4.354831 5.078666 0
M  V30 30 C -0.084053 1.206283 2.304996 0
M  V30 31 C -0.625885 1.339912 1.053085 0
M  V30 32 H -1.620384 -2.643824 -4.485384 0
M  V30 33 H -0.202636 -4.093437 -3.300310 0
M  V30 34 H 1.021816 -2.773040 -3.555100 0
M  V30 35 H 1.788717 -2.527128 -0.382437 0
M  V30 36 H 2.028848 -3.793904 -1.728632 0
M  V30 37 H 0.575659 -6.265806 0.381595 0
M  V30 38 H 2.163146 -5.639225 -0.139004 0
M  V30 39 H -0.105420 -6.432233 -2.067056 0
M  V30 40 H 1.586049 -5.812475 -2.481118 0
M  V30 41 H -1.127432 -4.664538 -1.548777 0
M  V30 42 H -1.351140 -3.529797 -0.103935 0
M  V30 43 H 0.414742 -1.362841 0.851490 0
M  V30 44 H -1.422131 2.160919 -2.589328 0
M  V30 45 H -2.962731 1.558320 -1.843466 0
M  V30 46 H -1.274046 3.748801 -1.015438 0
M  V30 47 H -2.947990 3.296389 -0.425205 0
M  V30 48 H -1.755002 4.469021 1.495504 0
M  V30 49 H 1.158343 0.116901 4.391161 0
M  V30 50 H 2.081846 -0.040888 6.608546 0
M  V30 51 H 1.869158 1.921186 8.116184 0
M  V30 52 H 0.762870 3.977957 7.417003 0
M  V30 53 H 0.390997 0.266730 2.520781 0
M  V30 END ATOM
M  V30 BEGIN BOND
M  V30 1 2 1 2
M  V30 2 1 2 3
M  V30 3 1 3 4
M  V30 4 1 4 5
M  V30 5 1 5 6
M  V30 6 1 6 7
M  V30 7 1 7 8
M  V30 8 1 8 9
M  V30 9 1 9 10
M  V30 10 1 7 11
M  V30 11 1 5 12
M  V30 12 1 12 13
M  V30 13 1 13 14
M  V30 14 2 14 15
M  V30 15 1 15 16
M  V30 16 1 15 17
M  V30 17 1 17 18
M  V30 18 1 18 19
M  V30 19 2 19 20
M  V30 20 1 20 21
M  V30 21 2 21 22
M  V30 22 1 22 23
M  V30 23 2 23 24
M  V30 24 1 24 25
M  V30 25 2 25 26
M  V30 26 1 26 27
M  V30 27 2 27 28
M  V30 28 1 28 29
M  V30 29 1 22 30
M  V30 30 2 30 31
M  V30 31 1 16 2
M  V30 32 1 31 19
M  V30 33 1 11 5
M  V30 34 2 16 12
M  V30 35 1 28 23
M  V30 36 1 31 14
M  V30 37 1 3 32
M  V30 38 1 4 33
M  V30 39 1 4 34
M  V30 40 1 6 35
M  V30 41 1 6 36
M  V30 42 1 8 37
M  V30 43 1 8 38
M  V30 44 1 9 39
M  V30 45 1 9 40
M  V30 46 1 11 41
M  V30 47 1 11 42
M  V30 48 1 13 43
M  V30 49 1 17 44
M  V30 50 1 17 45
M  V30 51 1 18 46
M  V30 52 1 18 47
M  V30 53 1 20 48
M  V30 54 1 24 49
M  V30 55 1 25 50
M  V30 56 1 26 51
M  V30 57 1 27 52
M  V30 58 1 30 53
M  V30 END BOND
M  V30 END CTAB
M  END
>  <Dataset>  (846) 
ChEMBL_Kinases

>  <Ligand_Instance>  (846) 
nan

>  <PDB_ID>  (846) 
nan

>  <Standardized_SMILES>  (846) 
O=C1NCC2(CN(CCF)C2)c2[nH]c3c(c21)CCc1cnc(-c2ccccc2F)cc1-3

>  <Name>  (846) 
nan

>  <Pocket>  (846) 
nan

>  <ATP_Site>  (846) 
nan

>  <Peripheral>  (846) 
nan

>  <Num_H_Atoms_ProtBoundConf>  (846) 
nan

>  <Num_Resolved_Atoms>  (846) 
nan

>  <Num_Not_Resolved_Atoms>  (846) 
nan

$$$$
CHEMBL1801293
     RDKit          3D

  0  0  0  0  0  0  0  0  0  0999 V3000
M  V30 BEGIN CTAB
M  V30 COUNTS 52 57 0 0 0
M  V30 BEGIN ATOM
M  V30 1 C 2.816329 -3.432651 5.748889 0
M  V30 2 C 3.445033 -3.159619 4.426879 0
M  V30 3 O 4.461336 -3.641699 3.851371 0
M  V30 4 N 2.854134 -2.177002 3.573860 0
M  V30 5 C 3.184736 -1.664398 2.254667 0
M  V30 6 C 2.491333 -0.392679 2.606927 0
M  V30 7 C 3.283051 0.625678 3.345226 0
M  V30 8 N 3.753270 1.731748 2.535605 0
M  V30 9 C 2.917906 2.241200 1.504683 0
M  V30 10 O 3.089947 3.370397 1.023006 0
M  V30 11 C 1.797564 1.452487 0.949807 0
M  V30 12 C 1.637642 0.188777 1.517982 0
M  V30 13 N 0.599425 -0.446727 0.949384 0
M  V30 14 C 0.102943 0.398289 0.031285 0
M  V30 15 C 0.807274 1.578152 -0.004156 0
M  V30 16 C 0.663576 2.793775 -0.817301 0
M  V30 17 C -0.475569 2.733655 -1.793231 0
M  V30 18 C -1.209171 1.443220 -1.724621 0
M  V30 19 C -2.268914 1.313777 -2.597416 0
M  V30 20 N -3.035440 0.214892 -2.664291 0
M  V30 21 C -2.849854 -0.868439 -1.890449 0
M  V30 22 C -3.760562 -1.980330 -2.078534 0
M  V30 23 C -4.752788 -1.866031 -3.027612 0
M  V30 24 C -5.663892 -2.870087 -3.276562 0
M  V30 25 C -5.631724 -4.058852 -2.580569 0
M  V30 26 C -4.651803 -4.206603 -1.623689 0
M  V30 27 C -3.766005 -3.178555 -1.410775 0
M  V30 28 F -2.836211 -3.398491 -0.458103 0
M  V30 29 C -1.807691 -0.762479 -1.020181 0
M  V30 30 C -1.000313 0.345623 -0.922057 0
M  V30 31 C 1.723331 -1.265735 3.580276 0
M  V30 32 H 3.046912 -4.494622 6.027930 0
M  V30 33 H 1.713802 -3.290593 5.601653 0
M  V30 34 H 3.171547 -2.721173 6.514049 0
M  V30 35 H 4.299895 -1.594083 2.138532 0
M  V30 36 H 2.663682 -2.242713 1.469048 0
M  V30 37 H 4.161978 0.122639 3.797317 0
M  V30 38 H 2.656446 1.026667 4.182377 0
M  V30 39 H 4.685934 2.193903 2.657818 0
M  V30 40 H 0.179568 -1.389191 1.104968 0
M  V30 41 H 0.562088 3.700977 -0.175217 0
M  V30 42 H 1.610995 2.922554 -1.421963 0
M  V30 43 H -1.192676 3.567522 -1.551314 0
M  V30 44 H -0.081723 2.881592 -2.838817 0
M  V30 45 H -2.540108 2.123293 -3.293896 0
M  V30 46 H -4.872993 -0.960530 -3.643118 0
M  V30 47 H -6.427475 -2.741280 -4.029867 0
M  V30 48 H -6.367542 -4.810501 -2.814867 0
M  V30 49 H -4.602128 -5.127109 -1.062671 0
M  V30 50 H -1.594110 -1.574009 -0.373968 0
M  V30 51 H 1.524032 -0.779072 4.562821 0
M  V30 52 H 0.847326 -1.772104 3.122573 0
M  V30 END ATOM
M  V30 BEGIN BOND
M  V30 1 1 1 2
M  V30 2 2 2 3
M  V30 3 1 2 4
M  V30 4 1 4 5
M  V30 5 1 5 6
M  V30 6 1 6 7
M  V30 7 1 7 8
M  V30 8 1 8 9
M  V30 9 2 9 10
M  V30 10 1 9 11
M  V30 11 2 11 12
M  V30 12 1 12 13
M  V30 13 1 13 14
M  V30 14 2 14 15
M  V30 15 1 15 16
M  V30 16 1 16 17
M  V30 17 1 17 18
M  V30 18 2 18 19
M  V30 19 1 19 20
M  V30 20 2 20 21
M  V30 21 1 21 22
M  V30 22 2 22 23
M  V30 23 1 23 24
M  V30 24 2 24 25
M  V30 25 1 25 26
M  V30 26 2 26 27
M  V30 27 1 27 28
M  V30 28 1 21 29
M  V30 29 2 29 30
M  V30 30 1 6 31
M  V30 31 1 31 4
M  V30 32 1 12 6
M  V30 33 1 30 14
M  V30 34 1 15 11
M  V30 35 1 30 18
M  V30 36 1 27 22
M  V30 37 1 1 32
M  V30 38 1 1 33
M  V30 39 1 1 34
M  V30 40 1 5 35
M  V30 41 1 5 36
M  V30 42 1 7 37
M  V30 43 1 7 38
M  V30 44 1 8 39
M  V30 45 1 13 40
M  V30 46 1 16 41
M  V30 47 1 16 42
M  V30 48 1 17 43
M  V30 49 1 17 44
M  V30 50 1 19 45
M  V30 51 1 23 46
M  V30 52 1 24 47
M  V30 53 1 25 48
M  V30 54 1 26 49
M  V30 55 1 29 50
M  V30 56 1 31 51
M  V30 57 1 31 52
M  V30 END BOND
M  V30 END CTAB
M  END
>  <Dataset>  (847) 
ChEMBL_Kinases

>  <Ligand_Instance>  (847) 
nan

>  <PDB_ID>  (847) 
nan

>  <Standardized_SMILES>  (847) 
CC(=O)N1CC2(CNC(=O)c3c2[nH]c2c3CCc3cnc(-c4ccccc4F)cc3-2)C1

>  <Name>  (847) 
nan

>  <Pocket>  (847) 
nan

>  <ATP_Site>  (847) 
nan

>  <Peripheral>  (847) 
nan

>  <Num_H_Atoms_ProtBoundConf>  (847) 
nan

>  <Num_Resolved_Atoms>  (847) 
nan

>  <Num_Not_Resolved_Atoms>  (847) 
nan

$$$$
CHEMBL1801294
     RDKit          3D

  0  0  0  0  0  0  0  0  0  0999 V3000
M  V30 BEGIN CTAB
M  V30 COUNTS 51 56 0 0 0
M  V30 BEGIN ATOM
M  V30 1 C 6.048355 -5.861484 3.043049 0
M  V30 2 O 6.053568 -5.555175 1.645663 0
M  V30 3 C 5.111736 -4.647742 1.157350 0
M  V30 4 C 4.168971 -4.025109 1.953569 0
M  V30 5 C 3.279711 -3.142439 1.375975 0
M  V30 6 C 3.282805 -2.845995 0.030898 0
M  V30 7 C 2.366150 -1.922616 -0.630343 0
M  V30 8 C 1.382099 -1.243519 0.055180 0
M  V30 9 C 0.531770 -0.379138 -0.599911 0
M  V30 10 C 0.652059 -0.178418 -1.958264 0
M  V30 11 C 1.658853 -0.879513 -2.631363 0
M  V30 12 N 2.462510 -1.709433 -1.954131 0
M  V30 13 C -0.155256 0.704520 -2.851361 0
M  V30 14 C -1.236378 1.453739 -2.156829 0
M  V30 15 C -1.317991 1.201394 -0.700920 0
M  V30 16 C -0.531729 0.368711 0.066121 0
M  V30 17 N -0.920143 0.410590 1.352677 0
M  V30 18 C -1.953958 1.267320 1.417676 0
M  V30 19 C -2.235465 1.785776 0.150083 0
M  V30 20 C -3.345701 2.751427 0.014625 0
M  V30 21 O -3.587337 3.214055 -1.152359 0
M  V30 22 N -4.090679 3.119051 1.187066 0
M  V30 23 C -4.119503 2.078090 2.191693 0
M  V30 24 C -5.022539 2.298876 3.367267 0
M  V30 25 N -5.389741 0.876299 3.298678 0
M  V30 26 C -5.047658 0.934609 1.886844 0
M  V30 27 C -2.745795 1.663994 2.636200 0
M  V30 28 C 4.244768 -3.496527 -0.713042 0
M  V30 29 C 5.161904 -4.389119 -0.197239 0
M  V30 30 H 6.761509 -6.693495 3.230263 0
M  V30 31 H 6.454024 -4.968780 3.585701 0
M  V30 32 H 5.037763 -6.035574 3.433582 0
M  V30 33 H 4.149575 -4.243815 3.011500 0
M  V30 34 H 2.544240 -2.657731 2.001911 0
M  V30 35 H 1.249573 -1.368048 1.118237 0
M  V30 36 H 1.835620 -0.791828 -3.696822 0
M  V30 37 H -0.585869 0.129205 -3.694628 0
M  V30 38 H 0.565677 1.418269 -3.313124 0
M  V30 39 H -2.210685 1.193636 -2.617234 0
M  V30 40 H -1.126376 2.559670 -2.363494 0
M  V30 41 H -0.467121 -0.139683 2.112393 0
M  V30 42 H -4.500787 4.096583 1.127681 0
M  V30 43 H -4.459453 2.539724 4.288676 0
M  V30 44 H -5.926335 2.904417 3.171512 0
M  V30 45 H -6.398811 0.683570 3.501227 0
M  V30 46 H -4.507922 0.017892 1.547341 0
M  V30 47 H -5.881077 1.223115 1.217789 0
M  V30 48 H -2.855261 0.769347 3.277200 0
M  V30 49 H -2.280175 2.501762 3.183168 0
M  V30 50 H 4.273864 -3.281186 -1.792697 0
M  V30 51 H 5.870342 -4.835983 -0.890377 0
M  V30 END ATOM
M  V30 BEGIN BOND
M  V30 1 1 1 2
M  V30 2 1 2 3
M  V30 3 2 3 4
M  V30 4 1 4 5
M  V30 5 2 5 6
M  V30 6 1 6 7
M  V30 7 2 7 8
M  V30 8 1 8 9
M  V30 9 2 9 10
M  V30 10 1 10 11
M  V30 11 2 11 12
M  V30 12 1 10 13
M  V30 13 1 13 14
M  V30 14 1 14 15
M  V30 15 2 15 16
M  V30 16 1 16 17
M  V30 17 1 17 18
M  V30 18 2 18 19
M  V30 19 1 19 20
M  V30 20 2 20 21
M  V30 21 1 20 22
M  V30 22 1 22 23
M  V30 23 1 23 24
M  V30 24 1 24 25
M  V30 25 1 25 26
M  V30 26 1 23 27
M  V30 27 1 6 28
M  V30 28 2 28 29
M  V30 29 1 29 3
M  V30 30 1 12 7
M  V30 31 1 19 15
M  V30 32 1 26 23
M  V30 33 1 16 9
M  V30 34 1 27 18
M  V30 35 1 1 30
M  V30 36 1 1 31
M  V30 37 1 1 32
M  V30 38 1 4 33
M  V30 39 1 5 34
M  V30 40 1 8 35
M  V30 41 1 11 36
M  V30 42 1 13 37
M  V30 43 1 13 38
M  V30 44 1 14 39
M  V30 45 1 14 40
M  V30 46 1 17 41
M  V30 47 1 22 42
M  V30 48 1 24 43
M  V30 49 1 24 44
M  V30 50 1 25 45
M  V30 51 1 26 46
M  V30 52 1 26 47
M  V30 53 1 27 48
M  V30 54 1 27 49
M  V30 55 1 28 50
M  V30 56 1 29 51
M  V30 END BOND
M  V30 END CTAB
M  END
>  <Dataset>  (848) 
ChEMBL_Kinases

>  <Ligand_Instance>  (848) 
nan

>  <PDB_ID>  (848) 
nan

>  <Standardized_SMILES>  (848) 
COc1ccc(-c2cc3c(cn2)CCc2c-3[nH]c3c2C(=O)NC2(CNC2)C3)cc1

>  <Name>  (848) 
nan

>  <Pocket>  (848) 
nan

>  <ATP_Site>  (848) 
nan

>  <Peripheral>  (848) 
nan

>  <Num_H_Atoms_ProtBoundConf>  (848) 
nan

>  <Num_Resolved_Atoms>  (848) 
nan

>  <Num_Not_Resolved_Atoms>  (848) 
nan

$$$$
CHEMBL1801295
     RDKit          3D

  0  0  0  0  0  0  0  0  0  0999 V3000
M  V30 BEGIN CTAB
M  V30 COUNTS 54 59 0 0 0
M  V30 BEGIN ATOM
M  V30 1 C 6.647389 -5.311769 4.674619 0
M  V30 2 O 5.481420 -5.296007 3.871356 0
M  V30 3 C 4.858933 -4.119867 3.479786 0
M  V30 4 C 5.253648 -2.836562 3.792833 0
M  V30 5 C 4.510645 -1.763606 3.314923 0
M  V30 6 C 3.385473 -1.921962 2.534270 0
M  V30 7 C 2.679876 -0.724590 2.086220 0
M  V30 8 C 1.546633 -0.782330 1.303384 0
M  V30 9 C 0.951818 0.402650 0.931367 0
M  V30 10 C 1.439741 1.630935 1.306965 0
M  V30 11 C 2.582780 1.633271 2.094761 0
M  V30 12 N 3.179563 0.463776 2.468608 0
M  V30 13 C 0.936275 2.971910 1.003987 0
M  V30 14 C -0.288201 3.015132 0.156271 0
M  V30 15 C -0.766709 1.658243 -0.215103 0
M  V30 16 C -0.249542 0.419661 0.102799 0
M  V30 17 N -1.007096 -0.544083 -0.449412 0
M  V30 18 C -2.011234 0.048033 -1.123100 0
M  V30 19 C -1.892161 1.428189 -0.998012 0
M  V30 20 C -2.938238 2.207101 -1.694779 0
M  V30 21 O -2.824727 3.464335 -1.577338 0
M  V30 22 N -3.957207 1.573428 -2.416872 0
M  V30 23 C -4.271283 0.205860 -2.141812 0
M  V30 24 C -3.075413 -0.658040 -1.878656 0
M  V30 25 C -5.100003 -0.376214 -3.276260 0
M  V30 26 N -6.149622 -0.797380 -2.365214 0
M  V30 27 C -6.122003 -2.240106 -2.236650 0
M  V30 28 C -5.481077 -0.067257 -1.306927 0
M  V30 29 C 3.010178 -3.213535 2.234336 0
M  V30 30 C 3.734883 -4.305947 2.699004 0
M  V30 31 H 7.220238 -6.248004 4.538451 0
M  V30 32 H 6.454897 -5.169139 5.748515 0
M  V30 33 H 7.356786 -4.495081 4.368132 0
M  V30 34 H 6.139310 -2.745636 4.406290 0
M  V30 35 H 4.926252 -0.809141 3.631871 0
M  V30 36 H 1.131937 -1.724131 0.987419 0
M  V30 37 H 3.075853 2.530496 2.463229 0
M  V30 38 H 1.720358 3.613286 0.532382 0
M  V30 39 H 0.715330 3.497492 1.980074 0
M  V30 40 H -1.086483 3.616438 0.639720 0
M  V30 41 H -0.078099 3.532842 -0.802506 0
M  V30 42 H -0.781192 -1.564676 -0.325510 0
M  V30 43 H -4.425407 2.174928 -3.127644 0
M  V30 44 H -3.428648 -1.554710 -1.323452 0
M  V30 45 H -2.665571 -1.039571 -2.846560 0
M  V30 46 H -5.526103 0.395945 -3.973527 0
M  V30 47 H -4.634292 -1.174085 -3.853527 0
M  V30 48 H -7.157401 -2.681996 -2.253519 0
M  V30 49 H -5.675588 -2.590832 -1.285127 0
M  V30 50 H -5.550746 -2.730180 -3.047438 0
M  V30 51 H -6.063443 0.836874 -1.055409 0
M  V30 52 H -5.340255 -0.696979 -0.406045 0
M  V30 53 H 2.143830 -3.367033 1.632210 0
M  V30 54 H 3.354655 -5.293826 2.405316 0
M  V30 END ATOM
M  V30 BEGIN BOND
M  V30 1 1 1 2
M  V30 2 1 2 3
M  V30 3 2 3 4
M  V30 4 1 4 5
M  V30 5 2 5 6
M  V30 6 1 6 7
M  V30 7 2 7 8
M  V30 8 1 8 9
M  V30 9 2 9 10
M  V30 10 1 10 11
M  V30 11 2 11 12
M  V30 12 1 10 13
M  V30 13 1 13 14
M  V30 14 1 14 15
M  V30 15 2 15 16
M  V30 16 1 16 17
M  V30 17 1 17 18
M  V30 18 2 18 19
M  V30 19 1 19 20
M  V30 20 2 20 21
M  V30 21 1 20 22
M  V30 22 1 22 23
M  V30 23 1 23 24
M  V30 24 1 23 25
M  V30 25 1 25 26
M  V30 26 1 26 27
M  V30 27 1 26 28
M  V30 28 1 6 29
M  V30 29 2 29 30
M  V30 30 1 30 3
M  V30 31 1 12 7
M  V30 32 1 19 15
M  V30 33 1 28 23
M  V30 34 1 16 9
M  V30 35 1 24 18
M  V30 36 1 1 31
M  V30 37 1 1 32
M  V30 38 1 1 33
M  V30 39 1 4 34
M  V30 40 1 5 35
M  V30 41 1 8 36
M  V30 42 1 11 37
M  V30 43 1 13 38
M  V30 44 1 13 39
M  V30 45 1 14 40
M  V30 46 1 14 41
M  V30 47 1 17 42
M  V30 48 1 22 43
M  V30 49 1 24 44
M  V30 50 1 24 45
M  V30 51 1 25 46
M  V30 52 1 25 47
M  V30 53 1 27 48
M  V30 54 1 27 49
M  V30 55 1 27 50
M  V30 56 1 28 51
M  V30 57 1 28 52
M  V30 58 1 29 53
M  V30 59 1 30 54
M  V30 END BOND
M  V30 END CTAB
M  END
>  <Dataset>  (849) 
ChEMBL_Kinases

>  <Ligand_Instance>  (849) 
nan

>  <PDB_ID>  (849) 
nan

>  <Standardized_SMILES>  (849) 
COc1ccc(-c2cc3c(cn2)CCc2c-3[nH]c3c2C(=O)NC2(C3)CN(C)C2)cc1

>  <Name>  (849) 
nan

>  <Pocket>  (849) 
nan

>  <ATP_Site>  (849) 
nan

>  <Peripheral>  (849) 
nan

>  <Num_H_Atoms_ProtBoundConf>  (849) 
nan

>  <Num_Resolved_Atoms>  (849) 
nan

>  <Num_Not_Resolved_Atoms>  (849) 
nan

$$$$
CHEMBL1801296
     RDKit          3D

  0  0  0  0  0  0  0  0  0  0999 V3000
M  V30 BEGIN CTAB
M  V30 COUNTS 56 61 0 0 0
M  V30 BEGIN ATOM
M  V30 1 C 4.690554 -1.105844 1.429160 0
M  V30 2 N 4.347679 0.301776 1.481414 0
M  V30 3 C 3.702214 0.662379 2.729499 0
M  V30 4 C 2.193142 0.556292 2.600091 0
M  V30 5 C 1.703994 1.640674 1.660359 0
M  V30 6 C 2.746223 1.864701 0.559797 0
M  V30 7 C 3.474973 0.565561 0.347606 0
M  V30 8 C 1.543388 2.955636 2.377431 0
M  V30 9 N 0.924676 3.900906 1.468985 0
M  V30 10 C -0.301743 3.523816 0.856308 0
M  V30 11 O -1.174817 4.360182 0.507594 0
M  V30 12 C -0.546812 2.100738 0.627216 0
M  V30 13 C 0.437394 1.197374 1.023445 0
M  V30 14 N 0.035693 -0.073585 0.731973 0
M  V30 15 C -1.176991 0.024617 0.163449 0
M  V30 16 C -1.564749 1.344006 0.083585 0
M  V30 17 C -2.824758 1.884255 -0.472412 0
M  V30 18 C -3.752915 0.860464 -0.994736 0
M  V30 19 C -3.303630 -0.520068 -0.890342 0
M  V30 20 C -4.124229 -1.523147 -1.359609 0
M  V30 21 N -3.818722 -2.830872 -1.317810 0
M  V30 22 C -2.658097 -3.268399 -0.800841 0
M  V30 23 C -2.437338 -4.702114 -0.809226 0
M  V30 24 C -3.417880 -5.518922 -1.339738 0
M  V30 25 C -3.306104 -6.891645 -1.395069 0
M  V30 26 C -2.185361 -7.531139 -0.912989 0
M  V30 27 C -1.184517 -6.751922 -0.375799 0
M  V30 28 C -1.340313 -5.385762 -0.341902 0
M  V30 29 F -0.329976 -4.700900 0.192374 0
M  V30 30 C -1.834777 -2.295266 -0.332649 0
M  V30 31 C -2.127701 -0.948448 -0.365379 0
M  V30 32 H 3.788645 -1.664751 1.759261 0
M  V30 33 H 4.909762 -1.338579 0.362326 0
M  V30 34 H 5.594451 -1.368296 2.006767 0
M  V30 35 H 3.934352 1.728453 2.922009 0
M  V30 36 H 4.030477 -0.016550 3.529171 0
M  V30 37 H 1.753693 0.673688 3.604425 0
M  V30 38 H 1.963343 -0.449557 2.219496 0
M  V30 39 H 3.434635 2.686407 0.867370 0
M  V30 40 H 2.178745 2.119205 -0.358309 0
M  V30 41 H 2.715074 -0.243971 0.332987 0
M  V30 42 H 4.042311 0.526813 -0.588106 0
M  V30 43 H 0.970686 2.841149 3.336587 0
M  V30 44 H 2.575412 3.330525 2.607635 0
M  V30 45 H 1.316718 4.857407 1.223599 0
M  V30 46 H 0.492347 -0.986859 0.876708 0
M  V30 47 H -2.599074 2.682853 -1.213490 0
M  V30 48 H -3.343139 2.425008 0.367907 0
M  V30 49 H -4.772209 0.921846 -0.551620 0
M  V30 50 H -3.926240 1.075992 -2.089450 0
M  V30 51 H -5.098294 -1.270695 -1.802542 0
M  V30 52 H -4.348762 -5.120687 -1.750661 0
M  V30 53 H -4.092932 -7.500196 -1.817070 0
M  V30 54 H -2.067053 -8.604084 -0.941532 0
M  V30 55 H -0.316073 -7.238099 -0.001497 0
M  V30 56 H -0.901874 -2.568230 0.089090 0
M  V30 END ATOM
M  V30 BEGIN BOND
M  V30 1 1 1 2
M  V30 2 1 2 3
M  V30 3 1 3 4
M  V30 4 1 4 5
M  V30 5 1 5 6
M  V30 6 1 6 7
M  V30 7 1 5 8
M  V30 8 1 8 9
M  V30 9 1 9 10
M  V30 10 2 10 11
M  V30 11 1 10 12
M  V30 12 2 12 13
M  V30 13 1 13 14
M  V30 14 1 14 15
M  V30 15 2 15 16
M  V30 16 1 16 17
M  V30 17 1 17 18
M  V30 18 1 18 19
M  V30 19 2 19 20
M  V30 20 1 20 21
M  V30 21 2 21 22
M  V30 22 1 22 23
M  V30 23 2 23 24
M  V30 24 1 24 25
M  V30 25 2 25 26
M  V30 26 1 26 27
M  V30 27 2 27 28
M  V30 28 1 28 29
M  V30 29 1 22 30
M  V30 30 2 30 31
M  V30 31 1 7 2
M  V30 32 1 16 12
M  V30 33 1 31 19
M  V30 34 1 13 5
M  V30 35 1 31 15
M  V30 36 1 28 23
M  V30 37 1 1 32
M  V30 38 1 1 33
M  V30 39 1 1 34
M  V30 40 1 3 35
M  V30 41 1 3 36
M  V30 42 1 4 37
M  V30 43 1 4 38
M  V30 44 1 6 39
M  V30 45 1 6 40
M  V30 46 1 7 41
M  V30 47 1 7 42
M  V30 48 1 8 43
M  V30 49 1 8 44
M  V30 50 1 9 45
M  V30 51 1 14 46
M  V30 52 1 17 47
M  V30 53 1 17 48
M  V30 54 1 18 49
M  V30 55 1 18 50
M  V30 56 1 20 51
M  V30 57 1 24 52
M  V30 58 1 25 53
M  V30 59 1 26 54
M  V30 60 1 27 55
M  V30 61 1 30 56
M  V30 END BOND
M  V30 END CTAB
M  END
>  <Dataset>  (850) 
ChEMBL_Kinases

>  <Ligand_Instance>  (850) 
nan

>  <PDB_ID>  (850) 
nan

>  <Standardized_SMILES>  (850) 
CN1CCC2(CC1)CNC(=O)c1c2[nH]c2c1CCc1cnc(-c3ccccc3F)cc1-2

>  <Name>  (850) 
nan

>  <Pocket>  (850) 
nan

>  <ATP_Site>  (850) 
nan

>  <Peripheral>  (850) 
nan

>  <Num_H_Atoms_ProtBoundConf>  (850) 
nan

>  <Num_Resolved_Atoms>  (850) 
nan

>  <Num_Not_Resolved_Atoms>  (850) 
nan

$$$$
CHEMBL1801297
     RDKit          3D

  0  0  0  0  0  0  0  0  0  0999 V3000
M  V30 BEGIN CTAB
M  V30 COUNTS 44 48 0 0 0
M  V30 BEGIN ATOM
M  V30 1 C 0.128386 -7.437614 3.215626 0
M  V30 2 O 0.072332 -7.351915 1.810467 0
M  V30 3 C 0.114375 -6.093428 1.222749 0
M  V30 4 C 0.062707 -5.939404 -0.165658 0
M  V30 5 C 0.101551 -4.704125 -0.798660 0
M  V30 6 C 0.194572 -3.594722 -0.020124 0
M  V30 7 C 0.239454 -2.268669 -0.626053 0
M  V30 8 N 0.192741 -2.061777 -1.964147 0
M  V30 9 C 0.234867 -0.829428 -2.517014 0
M  V30 10 C 0.329291 0.287342 -1.715649 0
M  V30 11 C 0.376135 0.078758 -0.373287 0
M  V30 12 N 0.332341 -1.158413 0.147264 0
M  V30 13 C 0.477008 1.252368 0.482502 0
M  V30 14 N 0.544491 1.451768 1.807901 0
M  V30 15 C 0.625350 2.782699 2.013444 0
M  V30 16 C 0.608807 3.436287 0.798767 0
M  V30 17 C 0.513228 2.453150 -0.191681 0
M  V30 18 C 0.470167 2.780489 -1.633943 0
M  V30 19 C 0.363129 1.564203 -2.489946 0
M  V30 20 C 0.691263 4.895875 0.876595 0
M  V30 21 O 0.678862 5.526486 -0.212980 0
M  V30 22 N 0.780673 5.548857 2.139401 0
M  V30 23 C 0.146845 4.834035 3.250670 0
M  V30 24 C 0.717582 3.440543 3.335565 0
M  V30 25 C 0.247510 -3.713297 1.353650 0
M  V30 26 C 0.209061 -4.939693 1.984818 0
M  V30 27 H 1.127868 -7.162063 3.615321 0
M  V30 28 H -0.135402 -8.470667 3.542591 0
M  V30 29 H -0.616135 -6.739746 3.686342 0
M  V30 30 H -0.011234 -6.878157 -0.713651 0
M  V30 31 H 0.056566 -4.674971 -1.877209 0
M  V30 32 H 0.189070 -0.808710 -3.603037 0
M  V30 33 H 0.529049 0.642296 2.471828 0
M  V30 34 H 1.396314 3.314140 -1.962508 0
M  V30 35 H -0.413082 3.439210 -1.858280 0
M  V30 36 H -0.590932 1.609523 -3.064319 0
M  V30 37 H 1.170646 1.508073 -3.271084 0
M  V30 38 H 1.295853 6.473977 2.120883 0
M  V30 39 H 0.341500 5.387078 4.194230 0
M  V30 40 H -0.967794 4.803832 3.139043 0
M  V30 41 H 1.802079 3.555859 3.568317 0
M  V30 42 H 0.195839 2.897414 4.125343 0
M  V30 43 H 0.321817 -2.828719 1.977722 0
M  V30 44 H 0.253133 -4.979563 3.055779 0
M  V30 END ATOM
M  V30 BEGIN BOND
M  V30 1 1 1 2
M  V30 2 1 2 3
M  V30 3 2 3 4
M  V30 4 1 4 5
M  V30 5 2 5 6
M  V30 6 1 6 7
M  V30 7 2 7 8
M  V30 8 1 8 9
M  V30 9 2 9 10
M  V30 10 1 10 11
M  V30 11 2 11 12
M  V30 12 1 11 13
M  V30 13 1 13 14
M  V30 14 1 14 15
M  V30 15 2 15 16
M  V30 16 1 16 17
M  V30 17 1 17 18
M  V30 18 1 18 19
M  V30 19 1 16 20
M  V30 20 2 20 21
M  V30 21 1 20 22
M  V30 22 1 22 23
M  V30 23 1 23 24
M  V30 24 1 6 25
M  V30 25 2 25 26
M  V30 26 1 26 3
M  V30 27 1 12 7
M  V30 28 2 17 13
M  V30 29 1 19 10
M  V30 30 1 24 15
M  V30 31 1 1 27
M  V30 32 1 1 28
M  V30 33 1 1 29
M  V30 34 1 4 30
M  V30 35 1 5 31
M  V30 36 1 9 32
M  V30 37 1 14 33
M  V30 38 1 18 34
M  V30 39 1 18 35
M  V30 40 1 19 36
M  V30 41 1 19 37
M  V30 42 1 22 38
M  V30 43 1 23 39
M  V30 44 1 23 40
M  V30 45 1 24 41
M  V30 46 1 24 42
M  V30 47 1 25 43
M  V30 48 1 26 44
M  V30 END BOND
M  V30 END CTAB
M  END
>  <Dataset>  (851) 
ChEMBL_Kinases

>  <Ligand_Instance>  (851) 
nan

>  <PDB_ID>  (851) 
nan

>  <Standardized_SMILES>  (851) 
COc1ccc(-c2ncc3c(n2)-c2[nH]c4c(c2CC3)C(=O)NCC4)cc1

>  <Name>  (851) 
nan

>  <Pocket>  (851) 
nan

>  <ATP_Site>  (851) 
nan

>  <Peripheral>  (851) 
nan

>  <Num_H_Atoms_ProtBoundConf>  (851) 
nan

>  <Num_Resolved_Atoms>  (851) 
nan

>  <Num_Not_Resolved_Atoms>  (851) 
nan

$$$$
CHEMBL1801298
     RDKit          3D

  0  0  0  0  0  0  0  0  0  0999 V3000
M  V30 BEGIN CTAB
M  V30 COUNTS 44 49 0 0 0
M  V30 BEGIN ATOM
M  V30 1 O 5.119938 -0.564545 2.032323 0
M  V30 2 C 4.270721 -1.475913 1.744286 0
M  V30 3 N 4.577520 -2.884619 1.844655 0
M  V30 4 C 3.424727 -3.702496 2.168680 0
M  V30 5 C 2.892163 -3.707645 3.573462 0
M  V30 6 C 3.551606 -4.904717 3.010848 0
M  V30 7 C 2.390245 -3.566002 1.104812 0
M  V30 8 C 2.028718 -2.126193 0.987330 0
M  V30 9 N 0.858374 -1.586800 0.594708 0
M  V30 10 C 1.006584 -0.259700 0.647934 0
M  V30 11 C 2.275623 0.089419 1.076022 0
M  V30 12 C 2.912160 -1.110028 1.287307 0
M  V30 13 C 2.814957 1.444438 1.260972 0
M  V30 14 C 1.854810 2.533504 0.940574 0
M  V30 15 C 0.526910 2.106595 0.492409 0
M  V30 16 C -0.362339 3.126020 0.195572 0
M  V30 17 N -1.617890 2.838564 -0.227862 0
M  V30 18 C -2.056183 1.576069 -0.378586 0
M  V30 19 C -3.403645 1.249884 -0.833058 0
M  V30 20 C -3.789877 -0.068879 -0.966399 0
M  V30 21 C -5.040970 -0.465183 -1.388595 0
M  V30 22 C -5.945205 0.542580 -1.690493 0
M  V30 23 C -5.559566 1.860678 -1.557354 0
M  V30 24 C -4.297434 2.251617 -1.131457 0
M  V30 25 F -3.985536 3.565709 -1.023147 0
M  V30 26 N -1.189417 0.587571 -0.089240 0
M  V30 27 C 0.063722 0.810183 0.333221 0
M  V30 28 H 5.579297 -3.141806 1.674402 0
M  V30 29 H 3.397860 -3.041586 4.289891 0
M  V30 30 H 1.810863 -3.807207 3.766360 0
M  V30 31 H 2.992706 -5.820821 2.782146 0
M  V30 32 H 4.571640 -5.118270 3.403847 0
M  V30 33 H 1.523449 -4.212230 1.234272 0
M  V30 34 H 2.906916 -3.810265 0.130494 0
M  V30 35 H -0.009423 -2.077721 0.301350 0
M  V30 36 H 3.228501 1.536595 2.298619 0
M  V30 37 H 3.713498 1.536819 0.598565 0
M  V30 38 H 1.696093 3.137552 1.878949 0
M  V30 39 H 2.321970 3.280389 0.240371 0
M  V30 40 H -0.105922 4.172930 0.284522 0
M  V30 41 H -3.032144 -0.821404 -0.713186 0
M  V30 42 H -5.269172 -1.520348 -1.468057 0
M  V30 43 H -6.944540 0.269791 -2.027625 0
M  V30 44 H -6.304423 2.606650 -1.806256 0
M  V30 END ATOM
M  V30 BEGIN BOND
M  V30 1 2 1 2
M  V30 2 1 2 3
M  V30 3 1 3 4
M  V30 4 1 4 5
M  V30 5 1 5 6
M  V30 6 1 4 7
M  V30 7 1 7 8
M  V30 8 1 8 9
M  V30 9 1 9 10
M  V30 10 2 10 11
M  V30 11 1 11 12
M  V30 12 1 11 13
M  V30 13 1 13 14
M  V30 14 1 14 15
M  V30 15 2 15 16
M  V30 16 1 16 17
M  V30 17 2 17 18
M  V30 18 1 18 19
M  V30 19 2 19 20
M  V30 20 1 20 21
M  V30 21 2 21 22
M  V30 22 1 22 23
M  V30 23 2 23 24
M  V30 24 1 24 25
M  V30 25 1 18 26
M  V30 26 2 26 27
M  V30 27 1 12 2
M  V30 28 1 27 15
M  V30 29 1 6 4
M  V30 30 2 12 8
M  V30 31 1 24 19
M  V30 32 1 27 10
M  V30 33 1 3 28
M  V30 34 1 5 29
M  V30 35 1 5 30
M  V30 36 1 6 31
M  V30 37 1 6 32
M  V30 38 1 7 33
M  V30 39 1 7 34
M  V30 40 1 9 35
M  V30 41 1 13 36
M  V30 42 1 13 37
M  V30 43 1 14 38
M  V30 44 1 14 39
M  V30 45 1 16 40
M  V30 46 1 20 41
M  V30 47 1 21 42
M  V30 48 1 22 43
M  V30 49 1 23 44
M  V30 END BOND
M  V30 END CTAB
M  END
>  <Dataset>  (852) 
ChEMBL_Kinases

>  <Ligand_Instance>  (852) 
nan

>  <PDB_ID>  (852) 
nan

>  <Standardized_SMILES>  (852) 
O=C1NC2(CC2)Cc2[nH]c3c(c21)CCc1cnc(-c2ccccc2F)nc1-3

>  <Name>  (852) 
nan

>  <Pocket>  (852) 
nan

>  <ATP_Site>  (852) 
nan

>  <Peripheral>  (852) 
nan

>  <Num_H_Atoms_ProtBoundConf>  (852) 
nan

>  <Num_Resolved_Atoms>  (852) 
nan

>  <Num_Not_Resolved_Atoms>  (852) 
nan

$$$$
CHEMBL1801299
     RDKit          3D

  0  0  0  0  0  0  0  0  0  0999 V3000
M  V30 BEGIN CTAB
M  V30 COUNTS 48 53 0 0 0
M  V30 BEGIN ATOM
M  V30 1 C 5.388776 -7.132778 1.050406 0
M  V30 2 O 4.229935 -6.610679 0.420911 0
M  V30 3 C 3.780273 -5.336423 0.742721 0
M  V30 4 C 4.386693 -4.479660 1.669018 0
M  V30 5 C 3.835784 -3.234876 1.896154 0
M  V30 6 C 2.701046 -2.810016 1.234105 0
M  V30 7 C 2.233021 -1.471075 1.575631 0
M  V30 8 N 2.836739 -0.661761 2.474645 0
M  V30 9 C 2.343696 0.578548 2.744414 0
M  V30 10 C 1.204719 1.065572 2.111775 0
M  V30 11 C 0.617649 0.213295 1.203110 0
M  V30 12 N 1.113496 -1.005801 0.946724 0
M  V30 13 C -0.575652 0.723165 0.540676 0
M  V30 14 N -1.408715 0.213580 -0.379619 0
M  V30 15 C -2.359053 1.164875 -0.619444 0
M  V30 16 C -2.103474 2.271670 0.165241 0
M  V30 17 C -0.959045 1.993375 0.912450 0
M  V30 18 C -0.366966 2.946183 1.879220 0
M  V30 19 C 0.849623 2.415637 2.546553 0
M  V30 20 C -3.057238 3.388456 0.010114 0
M  V30 21 O -2.838418 4.421332 0.726922 0
M  V30 22 N -4.150091 3.272050 -0.905409 0
M  V30 23 C -4.620479 1.885702 -1.047203 0
M  V30 24 C -5.264946 1.262026 0.193493 0
M  V30 25 C -6.031076 1.553398 -1.054207 0
M  V30 26 C -3.506437 1.049736 -1.577039 0
M  V30 27 C 2.073581 -3.626493 0.312653 0
M  V30 28 C 2.647435 -4.877827 0.099976 0
M  V30 29 H 6.191294 -6.344019 1.129338 0
M  V30 30 H 5.842896 -7.949627 0.456961 0
M  V30 31 H 5.101651 -7.473399 2.069142 0
M  V30 32 H 5.266787 -4.847495 2.162275 0
M  V30 33 H 4.364523 -2.633946 2.626628 0
M  V30 34 H 2.937257 1.121841 3.495023 0
M  V30 35 H -1.275141 -0.742993 -0.780825 0
M  V30 36 H -1.163144 3.131329 2.651768 0
M  V30 37 H -0.171774 3.934720 1.408106 0
M  V30 38 H 1.741649 3.064044 2.347264 0
M  V30 39 H 0.661643 2.385534 3.655795 0
M  V30 40 H -4.460557 4.167868 -1.340786 0
M  V30 41 H -5.369090 1.856024 1.101959 0
M  V30 42 H -5.126621 0.174463 0.382763 0
M  V30 43 H -6.738482 2.408054 -0.972358 0
M  V30 44 H -6.445309 0.749071 -1.686135 0
M  V30 45 H -3.816766 0.009917 -1.699423 0
M  V30 46 H -3.125040 1.423310 -2.568695 0
M  V30 47 H 1.199945 -3.279873 -0.186733 0
M  V30 48 H 2.127427 -5.493244 -0.631333 0
M  V30 END ATOM
M  V30 BEGIN BOND
M  V30 1 1 1 2
M  V30 2 1 2 3
M  V30 3 2 3 4
M  V30 4 1 4 5
M  V30 5 2 5 6
M  V30 6 1 6 7
M  V30 7 2 7 8
M  V30 8 1 8 9
M  V30 9 2 9 10
M  V30 10 1 10 11
M  V30 11 2 11 12
M  V30 12 1 11 13
M  V30 13 1 13 14
M  V30 14 1 14 15
M  V30 15 2 15 16
M  V30 16 1 16 17
M  V30 17 1 17 18
M  V30 18 1 18 19
M  V30 19 1 16 20
M  V30 20 2 20 21
M  V30 21 1 20 22
M  V30 22 1 22 23
M  V30 23 1 23 24
M  V30 24 1 24 25
M  V30 25 1 23 26
M  V30 26 1 6 27
M  V30 27 2 27 28
M  V30 28 1 28 3
M  V30 29 1 12 7
M  V30 30 2 17 13
M  V30 31 1 25 23
M  V30 32 1 19 10
M  V30 33 1 26 15
M  V30 34 1 1 29
M  V30 35 1 1 30
M  V30 36 1 1 31
M  V30 37 1 4 32
M  V30 38 1 5 33
M  V30 39 1 9 34
M  V30 40 1 14 35
M  V30 41 1 18 36
M  V30 42 1 18 37
M  V30 43 1 19 38
M  V30 44 1 19 39
M  V30 45 1 22 40
M  V30 46 1 24 41
M  V30 47 1 24 42
M  V30 48 1 25 43
M  V30 49 1 25 44
M  V30 50 1 26 45
M  V30 51 1 26 46
M  V30 52 1 27 47
M  V30 53 1 28 48
M  V30 END BOND
M  V30 END CTAB
M  END
>  <Dataset>  (853) 
ChEMBL_Kinases

>  <Ligand_Instance>  (853) 
nan

>  <PDB_ID>  (853) 
nan

>  <Standardized_SMILES>  (853) 
COc1ccc(-c2ncc3c(n2)-c2[nH]c4c(c2CC3)C(=O)NC2(CC2)C4)cc1

>  <Name>  (853) 
nan

>  <Pocket>  (853) 
nan

>  <ATP_Site>  (853) 
nan

>  <Peripheral>  (853) 
nan

>  <Num_H_Atoms_ProtBoundConf>  (853) 
nan

>  <Num_Resolved_Atoms>  (853) 
nan

>  <Num_Not_Resolved_Atoms>  (853) 
nan

$$$$
CHEMBL1801291
     RDKit          3D

  0  0  0  0  0  0  0  0  0  0999 V3000
M  V30 BEGIN CTAB
M  V30 COUNTS 53 58 0 0 0
M  V30 BEGIN ATOM
M  V30 1 C 3.579668 -2.002215 -2.608937 0
M  V30 2 C 3.032308 -2.107713 -1.183669 0
M  V30 3 N 3.957233 -1.481802 -0.289258 0
M  V30 4 C 3.617031 -1.477814 1.118293 0
M  V30 5 C 3.328841 -0.033839 1.055367 0
M  V30 6 C 4.141023 0.879575 1.928673 0
M  V30 7 N 3.879244 2.238193 1.491726 0
M  V30 8 C 2.517885 2.667106 1.579308 0
M  V30 9 O 2.153249 3.862781 1.807202 0
M  V30 10 C 1.467523 1.654553 1.392447 0
M  V30 11 C 1.906895 0.372515 1.146814 0
M  V30 12 N 0.832731 -0.438085 1.001839 0
M  V30 13 C -0.273067 0.311369 1.151757 0
M  V30 14 C 0.088972 1.618889 1.396010 0
M  V30 15 C -0.764383 2.820390 1.628621 0
M  V30 16 C -2.222374 2.527426 1.588048 0
M  V30 17 C -2.562010 1.106326 1.320406 0
M  V30 18 C -3.899836 0.780351 1.268605 0
M  V30 19 N -4.331579 -0.471527 1.034551 0
M  V30 20 C -3.525845 -1.520222 0.829771 0
M  V30 21 C -4.146466 -2.806060 0.590705 0
M  V30 22 C -5.516876 -2.881586 0.586661 0
M  V30 23 C -6.207006 -4.052957 0.369804 0
M  V30 24 C -5.541500 -5.236192 0.140541 0
M  V30 25 C -4.174127 -5.195411 0.138027 0
M  V30 26 C -3.526986 -4.008928 0.358070 0
M  V30 27 F -2.182348 -4.055842 0.339103 0
M  V30 28 C -2.188260 -1.216834 0.877278 0
M  V30 29 C -1.705960 0.048206 1.113436 0
M  V30 30 C 3.858323 -0.041854 -0.353930 0
M  V30 31 H 4.160725 -1.042759 -2.718289 0
M  V30 32 H 4.220583 -2.882045 -2.817998 0
M  V30 33 H 2.760644 -1.934352 -3.348209 0
M  V30 34 H 2.874487 -3.188543 -0.976075 0
M  V30 35 H 2.033337 -1.627914 -1.227582 0
M  V30 36 H 4.465680 -1.773421 1.765258 0
M  V30 37 H 2.731020 -2.133882 1.260833 0
M  V30 38 H 3.877672 0.811884 2.995064 0
M  V30 39 H 5.217452 0.621265 1.829042 0
M  V30 40 H 4.548983 2.973931 1.112914 0
M  V30 41 H 0.731285 -1.462873 0.809051 0
M  V30 42 H -0.438625 3.291361 2.585553 0
M  V30 43 H -0.529062 3.574659 0.837041 0
M  V30 44 H -2.621754 2.759840 2.619288 0
M  V30 45 H -2.714395 3.189090 0.835746 0
M  V30 46 H -4.657050 1.540026 1.418243 0
M  V30 47 H -6.147236 -2.002848 0.757943 0
M  V30 48 H -7.279081 -4.078881 0.372923 0
M  V30 49 H -6.110772 -6.137520 -0.026036 0
M  V30 50 H -3.635667 -6.112163 -0.039773 0
M  V30 51 H -1.483374 -1.993355 0.724845 0
M  V30 52 H 4.868916 0.391803 -0.432278 0
M  V30 53 H 3.119996 0.343911 -1.087167 0
M  V30 END ATOM
M  V30 BEGIN BOND
M  V30 1 1 1 2
M  V30 2 1 2 3
M  V30 3 1 3 4
M  V30 4 1 4 5
M  V30 5 1 5 6
M  V30 6 1 6 7
M  V30 7 1 7 8
M  V30 8 2 8 9
M  V30 9 1 8 10
M  V30 10 2 10 11
M  V30 11 1 11 12
M  V30 12 1 12 13
M  V30 13 2 13 14
M  V30 14 1 14 15
M  V30 15 1 15 16
M  V30 16 1 16 17
M  V30 17 2 17 18
M  V30 18 1 18 19
M  V30 19 2 19 20
M  V30 20 1 20 21
M  V30 21 2 21 22
M  V30 22 1 22 23
M  V30 23 2 23 24
M  V30 24 1 24 25
M  V30 25 2 25 26
M  V30 26 1 26 27
M  V30 27 1 20 28
M  V30 28 2 28 29
M  V30 29 1 5 30
M  V30 30 1 30 3
M  V30 31 1 11 5
M  V30 32 1 29 13
M  V30 33 1 14 10
M  V30 34 1 29 17
M  V30 35 1 26 21
M  V30 36 1 1 31
M  V30 37 1 1 32
M  V30 38 1 1 33
M  V30 39 1 2 34
M  V30 40 1 2 35
M  V30 41 1 4 36
M  V30 42 1 4 37
M  V30 43 1 6 38
M  V30 44 1 6 39
M  V30 45 1 7 40
M  V30 46 1 12 41
M  V30 47 1 15 42
M  V30 48 1 15 43
M  V30 49 1 16 44
M  V30 50 1 16 45
M  V30 51 1 18 46
M  V30 52 1 22 47
M  V30 53 1 23 48
M  V30 54 1 24 49
M  V30 55 1 25 50
M  V30 56 1 28 51
M  V30 57 1 30 52
M  V30 58 1 30 53
M  V30 END BOND
M  V30 END CTAB
M  END
>  <Dataset>  (854) 
ChEMBL_Kinases

>  <Ligand_Instance>  (854) 
nan

>  <PDB_ID>  (854) 
nan

>  <Standardized_SMILES>  (854) 
CCN1CC2(CNC(=O)c3c2[nH]c2c3CCc3cnc(-c4ccccc4F)cc3-2)C1

>  <Name>  (854) 
nan

>  <Pocket>  (854) 
nan

>  <ATP_Site>  (854) 
nan

>  <Peripheral>  (854) 
nan

>  <Num_H_Atoms_ProtBoundConf>  (854) 
nan

>  <Num_Resolved_Atoms>  (854) 
nan

>  <Num_Not_Resolved_Atoms>  (854) 
nan

$$$$
CHEMBL1802387
     RDKit          3D

  0  0  0  0  0  0  0  0  0  0999 V3000
M  V30 BEGIN CTAB
M  V30 COUNTS 32 34 0 0 0
M  V30 BEGIN ATOM
M  V30 1 C 3.205112 -6.803357 2.776702 0
M  V30 2 C 2.443114 -6.168462 2.088715 0
M  V30 3 C 1.549806 -5.423342 1.266586 0
M  V30 4 O 0.896382 -6.065432 0.415275 0
M  V30 5 N 1.358164 -4.024700 1.348444 0
M  V30 6 C 0.506187 -3.192892 0.585095 0
M  V30 7 C -0.322409 -3.563024 -0.417625 0
M  V30 8 C -1.130700 -2.705724 -1.133522 0
M  V30 9 C -1.125070 -1.360467 -0.837766 0
M  V30 10 C -0.283205 -0.964221 0.186213 0
M  V30 11 C 0.512116 -1.850149 0.880960 0
M  V30 12 C -0.416537 0.475784 0.346231 0
M  V30 13 C 0.128438 1.318425 1.187012 0
M  V30 14 C -0.040293 2.758885 1.294823 0
M  V30 15 C 0.121500 3.554237 0.180970 0
M  V30 16 C -0.109104 4.872330 0.551743 0
M  V30 17 C -0.407098 4.838285 1.893689 0
M  V30 18 N -0.367280 3.571697 2.348638 0
M  V30 19 C -1.386330 0.919703 -0.638748 0
M  V30 20 O -1.855209 2.041636 -0.917242 0
M  V30 21 N -1.814971 -0.225044 -1.363113 0
M  V30 22 H 3.888489 -7.368565 3.393489 0
M  V30 23 H 1.962967 -3.615992 2.098914 0
M  V30 24 H -0.386598 -4.591124 -0.713980 0
M  V30 25 H -1.786043 -3.064609 -1.940017 0
M  V30 26 H 1.151559 -1.463289 1.675316 0
M  V30 27 H 0.825403 0.916159 1.938882 0
M  V30 28 H 0.378037 3.484100 -0.881585 0
M  V30 29 H -0.105084 5.856121 0.050831 0
M  V30 30 H -0.653010 5.645066 2.587551 0
M  V30 31 H -0.534866 3.143437 3.301986 0
M  V30 32 H -2.505581 -0.289768 -2.147093 0
M  V30 END ATOM
M  V30 BEGIN BOND
M  V30 1 3 1 2
M  V30 2 1 2 3
M  V30 3 2 3 4
M  V30 4 1 3 5
M  V30 5 1 5 6
M  V30 6 2 6 7
M  V30 7 1 7 8
M  V30 8 2 8 9
M  V30 9 1 9 10
M  V30 10 2 10 11
M  V30 11 1 10 12
M  V30 12 2 12 13
M  V30 13 1 13 14
M  V30 14 2 14 15
M  V30 15 1 15 16
M  V30 16 2 16 17
M  V30 17 1 17 18
M  V30 18 1 12 19
M  V30 19 2 19 20
M  V30 20 1 19 21
M  V30 21 1 11 6
M  V30 22 1 18 14
M  V30 23 1 21 9
M  V30 24 1 1 22
M  V30 25 1 5 23
M  V30 26 1 7 24
M  V30 27 1 8 25
M  V30 28 1 11 26
M  V30 29 1 13 27
M  V30 30 1 15 28
M  V30 31 1 16 29
M  V30 32 1 17 30
M  V30 33 1 18 31
M  V30 34 1 21 32
M  V30 END BOND
M  V30 END CTAB
M  END
>  <Dataset>  (855) 
ChEMBL_Kinases

>  <Ligand_Instance>  (855) 
nan

>  <PDB_ID>  (855) 
nan

>  <Standardized_SMILES>  (855) 
C#CC(=O)Nc1ccc2c(c1)/C(=C/c1ccc[nH]1)C(=O)N2

>  <Name>  (855) 
nan

>  <Pocket>  (855) 
nan

>  <ATP_Site>  (855) 
nan

>  <Peripheral>  (855) 
nan

>  <Num_H_Atoms_ProtBoundConf>  (855) 
nan

>  <Num_Resolved_Atoms>  (855) 
nan

>  <Num_Not_Resolved_Atoms>  (855) 
nan

$$$$
CHEMBL1802385
     RDKit          3D

  0  0  0  0  0  0  0  0  0  0999 V3000
M  V30 BEGIN CTAB
M  V30 COUNTS 42 44 0 0 0
M  V30 BEGIN ATOM
M  V30 1 C 0.899808 -6.173072 1.554625 0
M  V30 2 C 2.103185 -5.423730 0.957913 0
M  V30 3 C 1.457675 -4.261278 0.240519 0
M  V30 4 N 1.056881 -4.334925 -1.050177 0
M  V30 5 C 0.487702 -3.173817 -1.423924 0
M  V30 6 C -0.118917 -2.608043 -2.652039 0
M  V30 7 C 0.530319 -2.338271 -0.332577 0
M  V30 8 C 0.101195 -1.045616 0.181155 0
M  V30 9 C 0.839199 -0.000296 0.460004 0
M  V30 10 C 2.275899 0.081170 0.295553 0
M  V30 11 O 2.971511 -0.861276 -0.142732 0
M  V30 12 N 2.587113 1.403619 0.737267 0
M  V30 13 C 3.930060 1.943854 0.753162 0
M  V30 14 C 1.412106 2.092242 1.151315 0
M  V30 15 C 1.142282 3.347080 1.667529 0
M  V30 16 C -0.169065 3.707934 2.001353 0
M  V30 17 C -1.239220 2.861389 1.841580 0
M  V30 18 C -2.586347 3.266502 2.198513 0
M  V30 19 O -2.979797 4.381493 2.591369 0
M  V30 20 C -3.773925 2.386186 2.159079 0
M  V30 21 Cl -5.141749 3.153636 1.320187 0
M  V30 22 C -0.964433 1.623012 1.327870 0
M  V30 23 C 0.311792 1.253634 0.994422 0
M  V30 24 N 1.134955 -3.027436 0.684141 0
M  V30 25 H 0.477996 -5.637396 2.432596 0
M  V30 26 H 0.059368 -6.113129 0.793135 0
M  V30 27 H 1.094285 -7.226990 1.745813 0
M  V30 28 H 2.556749 -6.081238 0.217460 0
M  V30 29 H 2.762739 -5.054402 1.754359 0
M  V30 30 H -1.012474 -2.009179 -2.411127 0
M  V30 31 H 0.622660 -2.081370 -3.284730 0
M  V30 32 H -0.514074 -3.433798 -3.318231 0
M  V30 33 H -0.977370 -1.033062 0.318032 0
M  V30 34 H 4.007962 2.848840 0.091168 0
M  V30 35 H 4.234766 2.303088 1.761895 0
M  V30 36 H 4.668968 1.179079 0.458678 0
M  V30 37 H 1.978525 4.018583 1.795679 0
M  V30 38 H -0.307709 4.699656 2.400811 0
M  V30 39 H -4.115003 2.121967 3.218320 0
M  V30 40 H -3.602211 1.414688 1.668657 0
M  V30 41 H -1.750358 0.905440 1.175714 0
M  V30 42 H 1.411840 -2.867312 1.697380 0
M  V30 END ATOM
M  V30 BEGIN BOND
M  V30 1 1 1 2
M  V30 2 1 2 3
M  V30 3 2 3 4
M  V30 4 1 4 5
M  V30 5 1 5 6
M  V30 6 2 5 7
M  V30 7 1 7 8
M  V30 8 2 8 9
M  V30 9 1 9 10
M  V30 10 2 10 11
M  V30 11 1 10 12
M  V30 12 1 12 13
M  V30 13 1 12 14
M  V30 14 2 14 15
M  V30 15 1 15 16
M  V30 16 2 16 17
M  V30 17 1 17 18
M  V30 18 2 18 19
M  V30 19 1 18 20
M  V30 20 1 20 21
M  V30 21 1 17 22
M  V30 22 2 22 23
M  V30 23 1 7 24
M  V30 24 1 24 3
M  V30 25 1 23 9
M  V30 26 1 23 14
M  V30 27 1 1 25
M  V30 28 1 1 26
M  V30 29 1 1 27
M  V30 30 1 2 28
M  V30 31 1 2 29
M  V30 32 1 6 30
M  V30 33 1 6 31
M  V30 34 1 6 32
M  V30 35 1 8 33
M  V30 36 1 13 34
M  V30 37 1 13 35
M  V30 38 1 13 36
M  V30 39 1 15 37
M  V30 40 1 16 38
M  V30 41 1 20 39
M  V30 42 1 20 40
M  V30 43 1 22 41
M  V30 44 1 24 42
M  V30 END BOND
M  V30 END CTAB
M  END
>  <Dataset>  (856) 
ChEMBL_Kinases

>  <Ligand_Instance>  (856) 
nan

>  <PDB_ID>  (856) 
nan

>  <Standardized_SMILES>  (856) 
CCc1nc(C)c(/C=C2\C(=O)N(C)c3ccc(C(=O)CCl)cc32)[nH]1

>  <Name>  (856) 
nan

>  <Pocket>  (856) 
nan

>  <ATP_Site>  (856) 
nan

>  <Peripheral>  (856) 
nan

>  <Num_H_Atoms_ProtBoundConf>  (856) 
nan

>  <Num_Resolved_Atoms>  (856) 
nan

>  <Num_Not_Resolved_Atoms>  (856) 
nan

$$$$
CHEMBL1802384
     RDKit          3D

  0  0  0  0  0  0  0  0  0  0999 V3000
M  V30 BEGIN CTAB
M  V30 COUNTS 39 41 0 0 0
M  V30 BEGIN ATOM
M  V30 1 C 2.344255 -6.077620 0.275587 0
M  V30 2 C 2.686959 -4.958982 -0.677583 0
M  V30 3 C 2.406819 -3.648358 -0.037905 0
M  V30 4 N 3.368286 -3.024122 0.679384 0
M  V30 5 C 2.851369 -1.870487 1.136840 0
M  V30 6 C 3.559871 -0.904720 1.998084 0
M  V30 7 C 1.545660 -1.732688 0.718635 0
M  V30 8 C 0.495790 -0.739612 0.828008 0
M  V30 9 C 0.433100 0.531543 0.480180 0
M  V30 10 C 1.528085 1.214318 -0.145615 0
M  V30 11 O 2.630823 0.736393 -0.460782 0
M  V30 12 N 1.102551 2.551186 -0.338955 0
M  V30 13 C -0.223327 2.653614 0.164146 0
M  V30 14 C -1.037110 3.767561 0.186791 0
M  V30 15 C -2.325255 3.689763 0.724439 0
M  V30 16 C -2.715826 2.462519 1.215830 0
M  V30 17 C -4.067260 2.420032 1.771170 0
M  V30 18 O -4.786221 3.446730 1.778702 0
M  V30 19 C -4.733378 1.231514 2.365634 0
M  V30 20 Cl -5.622215 0.286871 1.173356 0
M  V30 21 C -1.939687 1.323519 1.214889 0
M  V30 22 C -0.678118 1.455444 0.672887 0
M  V30 23 N 1.315877 -2.866360 -0.008706 0
M  V30 24 H 2.418378 -5.717611 1.314381 0
M  V30 25 H 3.067703 -6.929626 0.175111 0
M  V30 26 H 1.350458 -6.524052 0.116347 0
M  V30 27 H 2.052022 -5.095164 -1.579193 0
M  V30 28 H 3.749876 -5.054349 -0.967555 0
M  V30 29 H 3.813479 -1.346027 3.005088 0
M  V30 30 H 4.505190 -0.523370 1.592640 0
M  V30 31 H 2.898188 -0.036884 2.242125 0
M  V30 32 H -0.422552 -1.135906 1.296259 0
M  V30 33 H 1.717905 3.272617 -0.781487 0
M  V30 34 H -0.704074 4.704508 -0.202480 0
M  V30 35 H -2.953230 4.570028 0.736283 0
M  V30 36 H -3.914439 0.594765 2.771006 0
M  V30 37 H -5.356219 1.496733 3.244078 0
M  V30 38 H -2.260914 0.374430 1.602431 0
M  V30 39 H 0.484145 -3.238953 -0.533936 0
M  V30 END ATOM
M  V30 BEGIN BOND
M  V30 1 1 1 2
M  V30 2 1 2 3
M  V30 3 2 3 4
M  V30 4 1 4 5
M  V30 5 1 5 6
M  V30 6 2 5 7
M  V30 7 1 7 8
M  V30 8 2 8 9
M  V30 9 1 9 10
M  V30 10 2 10 11
M  V30 11 1 10 12
M  V30 12 1 12 13
M  V30 13 2 13 14
M  V30 14 1 14 15
M  V30 15 2 15 16
M  V30 16 1 16 17
M  V30 17 2 17 18
M  V30 18 1 17 19
M  V30 19 1 19 20
M  V30 20 1 16 21
M  V30 21 2 21 22
M  V30 22 1 7 23
M  V30 23 1 23 3
M  V30 24 1 22 9
M  V30 25 1 22 13
M  V30 26 1 1 24
M  V30 27 1 1 25
M  V30 28 1 1 26
M  V30 29 1 2 27
M  V30 30 1 2 28
M  V30 31 1 6 29
M  V30 32 1 6 30
M  V30 33 1 6 31
M  V30 34 1 8 32
M  V30 35 1 12 33
M  V30 36 1 14 34
M  V30 37 1 15 35
M  V30 38 1 19 36
M  V30 39 1 19 37
M  V30 40 1 21 38
M  V30 41 1 23 39
M  V30 END BOND
M  V30 END CTAB
M  END
>  <Dataset>  (857) 
ChEMBL_Kinases

>  <Ligand_Instance>  (857) 
nan

>  <PDB_ID>  (857) 
nan

>  <Standardized_SMILES>  (857) 
CCc1nc(C)c(/C=C2\C(=O)Nc3ccc(C(=O)CCl)cc32)[nH]1

>  <Name>  (857) 
nan

>  <Pocket>  (857) 
nan

>  <ATP_Site>  (857) 
nan

>  <Peripheral>  (857) 
nan

>  <Num_H_Atoms_ProtBoundConf>  (857) 
nan

>  <Num_Resolved_Atoms>  (857) 
nan

>  <Num_Not_Resolved_Atoms>  (857) 
nan

$$$$
CHEMBL1802383
     RDKit          3D

  0  0  0  0  0  0  0  0  0  0999 V3000
M  V30 BEGIN CTAB
M  V30 COUNTS 33 35 0 0 0
M  V30 BEGIN ATOM
M  V30 1 C 2.017416 -3.135289 3.123269 0
M  V30 2 C 1.628213 -3.844969 1.878593 0
M  V30 3 N 1.927372 -5.099793 1.587572 0
M  V30 4 C 1.354691 -5.354058 0.400463 0
M  V30 5 N 0.718303 -4.240197 -0.003016 0
M  V30 6 C 0.861771 -3.231483 0.912522 0
M  V30 7 C 0.267209 -1.949781 0.598739 0
M  V30 8 C 0.768148 -0.737216 0.462771 0
M  V30 9 C 2.177381 -0.464061 0.620813 0
M  V30 10 O 3.082975 -1.293473 0.871911 0
M  V30 11 N 2.321803 0.933393 0.430109 0
M  V30 12 C 1.033025 1.474597 0.164762 0
M  V30 13 C 0.635390 2.785514 -0.090121 0
M  V30 14 C -0.711891 3.061859 -0.323158 0
M  V30 15 C -1.659048 2.059768 -0.306011 0
M  V30 16 C -3.042743 2.440330 -0.560888 0
M  V30 17 O -3.316600 3.647787 -0.784568 0
M  V30 18 C -4.121540 1.416223 -0.557705 0
M  V30 19 Cl -5.702057 2.107087 -0.890037 0
M  V30 20 C -1.277190 0.773067 -0.057081 0
M  V30 21 C 0.055423 0.500922 0.173341 0
M  V30 22 H 1.753092 -3.715457 4.035870 0
M  V30 23 H 1.517264 -2.154626 3.254050 0
M  V30 24 H 3.100048 -2.914491 3.156121 0
M  V30 25 H 1.433011 -6.311510 -0.086774 0
M  V30 26 H 0.207931 -4.263404 -0.927177 0
M  V30 27 H -0.826613 -2.000270 0.445985 0
M  V30 28 H 3.254646 1.397290 0.492778 0
M  V30 29 H 1.421058 3.552283 -0.094525 0
M  V30 30 H -0.967969 4.110398 -0.518195 0
M  V30 31 H -4.099693 0.845736 0.412044 0
M  V30 32 H -3.865560 0.652914 -1.348729 0
M  V30 33 H -2.004286 -0.031160 -0.038623 0
M  V30 END ATOM
M  V30 BEGIN BOND
M  V30 1 1 1 2
M  V30 2 1 2 3
M  V30 3 2 3 4
M  V30 4 1 4 5
M  V30 5 1 5 6
M  V30 6 1 6 7
M  V30 7 2 7 8
M  V30 8 1 8 9
M  V30 9 2 9 10
M  V30 10 1 9 11
M  V30 11 1 11 12
M  V30 12 2 12 13
M  V30 13 1 13 14
M  V30 14 2 14 15
M  V30 15 1 15 16
M  V30 16 2 16 17
M  V30 17 1 16 18
M  V30 18 1 18 19
M  V30 19 1 15 20
M  V30 20 2 20 21
M  V30 21 2 6 2
M  V30 22 1 21 8
M  V30 23 1 21 12
M  V30 24 1 1 22
M  V30 25 1 1 23
M  V30 26 1 1 24
M  V30 27 1 4 25
M  V30 28 1 5 26
M  V30 29 1 7 27
M  V30 30 1 11 28
M  V30 31 1 13 29
M  V30 32 1 14 30
M  V30 33 1 18 31
M  V30 34 1 18 32
M  V30 35 1 20 33
M  V30 END BOND
M  V30 END CTAB
M  END
>  <Dataset>  (858) 
ChEMBL_Kinases

>  <Ligand_Instance>  (858) 
nan

>  <PDB_ID>  (858) 
nan

>  <Standardized_SMILES>  (858) 
Cc1nc[nH]c1/C=C1\C(=O)Nc2ccc(C(=O)CCl)cc21

>  <Name>  (858) 
nan

>  <Pocket>  (858) 
nan

>  <ATP_Site>  (858) 
nan

>  <Peripheral>  (858) 
nan

>  <Num_H_Atoms_ProtBoundConf>  (858) 
nan

>  <Num_Resolved_Atoms>  (858) 
nan

>  <Num_Not_Resolved_Atoms>  (858) 
nan

$$$$
CHEMBL1802382
     RDKit          3D

  0  0  0  0  0  0  0  0  0  0999 V3000
M  V30 BEGIN CTAB
M  V30 COUNTS 30 32 0 0 0
M  V30 BEGIN ATOM
M  V30 1 O -0.729163 -0.779556 4.094952 0
M  V30 2 C -0.132716 -0.268692 3.133213 0
M  V30 3 N 0.636345 0.922672 3.076375 0
M  V30 4 C 1.127103 1.111869 1.753161 0
M  V30 5 C 1.920691 2.125257 1.217200 0
M  V30 6 C 2.258289 2.060627 -0.121422 0
M  V30 7 C 1.853244 1.045655 -0.962243 0
M  V30 8 C 2.218215 0.988372 -2.373114 0
M  V30 9 O 2.925186 1.885643 -2.869062 0
M  V30 10 C 1.710748 -0.173358 -3.165729 0
M  V30 11 Cl 2.246760 -0.104837 -4.842868 0
M  V30 12 C 1.072831 0.085509 -0.356510 0
M  V30 13 C 0.699337 0.081447 0.955729 0
M  V30 14 C -0.095664 -0.806470 1.792266 0
M  V30 15 C -0.658115 -1.925870 1.386688 0
M  V30 16 C -1.431837 -2.871781 2.172498 0
M  V30 17 C -1.290426 -3.506705 3.382367 0
M  V30 18 N -2.345157 -4.280383 3.647909 0
M  V30 19 C -3.198307 -4.169393 2.618398 0
M  V30 20 N -2.647071 -3.320566 1.729145 0
M  V30 21 H 0.765972 1.509434 3.937007 0
M  V30 22 H 2.243897 2.918096 1.860583 0
M  V30 23 H 2.876745 2.870878 -0.496717 0
M  V30 24 H 2.122762 -1.085098 -2.683793 0
M  V30 25 H 0.610658 -0.217793 -3.056921 0
M  V30 26 H 0.710758 -0.758118 -0.963338 0
M  V30 27 H -0.534448 -2.185602 0.322898 0
M  V30 28 H -0.435543 -3.398654 4.011508 0
M  V30 29 H -4.153916 -4.684176 2.544434 0
M  V30 30 H -3.144302 -3.085550 0.838289 0
M  V30 END ATOM
M  V30 BEGIN BOND
M  V30 1 2 1 2
M  V30 2 1 2 3
M  V30 3 1 3 4
M  V30 4 2 4 5
M  V30 5 1 5 6
M  V30 6 2 6 7
M  V30 7 1 7 8
M  V30 8 2 8 9
M  V30 9 1 8 10
M  V30 10 1 10 11
M  V30 11 1 7 12
M  V30 12 2 12 13
M  V30 13 1 13 14
M  V30 14 2 14 15
M  V30 15 1 15 16
M  V30 16 2 16 17
M  V30 17 1 17 18
M  V30 18 2 18 19
M  V30 19 1 19 20
M  V30 20 1 14 2
M  V30 21 1 20 16
M  V30 22 1 13 4
M  V30 23 1 3 21
M  V30 24 1 5 22
M  V30 25 1 6 23
M  V30 26 1 10 24
M  V30 27 1 10 25
M  V30 28 1 12 26
M  V30 29 1 15 27
M  V30 30 1 17 28
M  V30 31 1 19 29
M  V30 32 1 20 30
M  V30 END BOND
M  V30 END CTAB
M  END
>  <Dataset>  (859) 
ChEMBL_Kinases

>  <Ligand_Instance>  (859) 
nan

>  <PDB_ID>  (859) 
nan

>  <Standardized_SMILES>  (859) 
O=C1Nc2ccc(C(=O)CCl)cc2/C1=C/c1cnc[nH]1

>  <Name>  (859) 
nan

>  <Pocket>  (859) 
nan

>  <ATP_Site>  (859) 
nan

>  <Peripheral>  (859) 
nan

>  <Num_H_Atoms_ProtBoundConf>  (859) 
nan

>  <Num_Resolved_Atoms>  (859) 
nan

>  <Num_Not_Resolved_Atoms>  (859) 
nan

$$$$
CHEMBL1802381
     RDKit          3D

  0  0  0  0  0  0  0  0  0  0999 V3000
M  V30 BEGIN CTAB
M  V30 COUNTS 31 33 0 0 0
M  V30 BEGIN ATOM
M  V30 1 O -1.203362 -0.734204 3.755878 0
M  V30 2 C -0.294231 -0.485441 2.952793 0
M  V30 3 N 0.935176 0.123784 3.260167 0
M  V30 4 C 1.693052 0.228895 2.056436 0
M  V30 5 C 2.967692 0.755401 1.825053 0
M  V30 6 C 3.516566 0.753907 0.552123 0
M  V30 7 C 2.743334 0.212282 -0.451656 0
M  V30 8 C 3.378820 0.241119 -1.751830 0
M  V30 9 O 4.522059 0.714260 -1.938176 0
M  V30 10 C 3.091054 -0.159347 -3.145636 0
M  V30 11 Cl 4.473789 0.252054 -4.205407 0
M  V30 12 C 1.489040 -0.321084 -0.306698 0
M  V30 13 C 0.991547 -0.294606 0.977899 0
M  V30 14 C -0.281445 -0.760070 1.510900 0
M  V30 15 C -1.300549 -1.342066 0.911813 0
M  V30 16 C -2.566146 -1.824811 1.427352 0
M  V30 17 C -3.061322 -2.590587 2.473712 0
M  V30 18 C -4.437428 -2.652950 2.415841 0
M  V30 19 C -4.805794 -1.913164 1.313298 0
M  V30 20 N -3.697963 -1.445371 0.760869 0
M  V30 21 H 1.215866 0.433683 4.213244 0
M  V30 22 H 3.499410 1.158999 2.669833 0
M  V30 23 H 4.502245 1.168157 0.402177 0
M  V30 24 H 2.917964 -1.275243 -3.228026 0
M  V30 25 H 2.175828 0.321880 -3.495998 0
M  V30 26 H 0.903997 -0.737035 -1.103311 0
M  V30 27 H -1.108920 -1.465719 -0.169731 0
M  V30 28 H -2.381162 -3.036610 3.166081 0
M  V30 29 H -5.053881 -3.191049 3.122374 0
M  V30 30 H -5.850519 -1.810335 1.053952 0
M  V30 31 H -3.820079 -0.849041 -0.109862 0
M  V30 END ATOM
M  V30 BEGIN BOND
M  V30 1 2 1 2
M  V30 2 1 2 3
M  V30 3 1 3 4
M  V30 4 2 4 5
M  V30 5 1 5 6
M  V30 6 2 6 7
M  V30 7 1 7 8
M  V30 8 2 8 9
M  V30 9 1 8 10
M  V30 10 1 10 11
M  V30 11 1 7 12
M  V30 12 2 12 13
M  V30 13 1 13 14
M  V30 14 2 14 15
M  V30 15 1 15 16
M  V30 16 2 16 17
M  V30 17 1 17 18
M  V30 18 2 18 19
M  V30 19 1 19 20
M  V30 20 1 14 2
M  V30 21 1 20 16
M  V30 22 1 13 4
M  V30 23 1 3 21
M  V30 24 1 5 22
M  V30 25 1 6 23
M  V30 26 1 10 24
M  V30 27 1 10 25
M  V30 28 1 12 26
M  V30 29 1 15 27
M  V30 30 1 17 28
M  V30 31 1 18 29
M  V30 32 1 19 30
M  V30 33 1 20 31
M  V30 END BOND
M  V30 END CTAB
M  END
>  <Dataset>  (860) 
ChEMBL_Kinases

>  <Ligand_Instance>  (860) 
nan

>  <PDB_ID>  (860) 
nan

>  <Standardized_SMILES>  (860) 
O=C1Nc2ccc(C(=O)CCl)cc2/C1=C/c1ccc[nH]1

>  <Name>  (860) 
nan

>  <Pocket>  (860) 
nan

>  <ATP_Site>  (860) 
nan

>  <Peripheral>  (860) 
nan

>  <Num_H_Atoms_ProtBoundConf>  (860) 
nan

>  <Num_Resolved_Atoms>  (860) 
nan

>  <Num_Not_Resolved_Atoms>  (860) 
nan

$$$$
CHEMBL1801637
     RDKit          3D

  0  0  0  0  0  0  0  0  0  0999 V3000
M  V30 BEGIN CTAB
M  V30 COUNTS 32 34 0 0 0
M  V30 BEGIN ATOM
M  V30 1 C -1.713784 -2.921641 3.308125 0
M  V30 2 N -1.156166 -1.956466 2.368388 0
M  V30 3 C -0.073477 -1.214963 2.560920 0
M  V30 4 C 0.218889 -0.388710 1.487633 0
M  V30 5 C 1.284600 0.580976 1.337710 0
M  V30 6 C 2.203119 0.767870 0.420697 0
M  V30 7 C 2.494036 0.060662 -0.789332 0
M  V30 8 O 3.309205 0.141443 -1.719483 0
M  V30 9 C 2.152443 -1.048657 -1.669155 0
M  V30 10 Br 3.396059 -1.128593 -3.178051 0
M  V30 11 C 3.071898 1.906483 0.713074 0
M  V30 12 O 4.049968 2.428130 0.126372 0
M  V30 13 N 2.575594 2.417095 1.946319 0
M  V30 14 C 1.478405 1.613199 2.343590 0
M  V30 15 O 0.840069 1.830887 3.404310 0
M  V30 16 C -0.828299 -0.721646 0.611641 0
M  V30 17 C -1.141725 -0.243848 -0.657578 0
M  V30 18 C -2.228130 -0.674350 -1.383521 0
M  V30 19 C -3.053923 -1.640973 -0.809412 0
M  V30 20 C -2.762369 -2.133756 0.454430 0
M  V30 21 C -1.665508 -1.676367 1.148038 0
M  V30 22 H -2.791226 -2.824594 3.438111 0
M  V30 23 H -1.474292 -3.935328 2.880924 0
M  V30 24 H -1.159124 -2.851759 4.275555 0
M  V30 25 H 0.572306 -1.203965 3.444596 0
M  V30 26 H 1.135812 -1.063864 -2.069242 0
M  V30 27 H 2.287922 -2.027633 -1.147303 0
M  V30 28 H 2.968812 3.253906 2.472171 0
M  V30 29 H -0.491107 0.512409 -1.099939 0
M  V30 30 H -2.501879 -0.326392 -2.373617 0
M  V30 31 H -3.911852 -1.986851 -1.366092 0
M  V30 32 H -3.388390 -2.887006 0.927494 0
M  V30 END ATOM
M  V30 BEGIN BOND
M  V30 1 1 1 2
M  V30 2 1 2 3
M  V30 3 2 3 4
M  V30 4 1 4 5
M  V30 5 2 5 6
M  V30 6 1 6 7
M  V30 7 2 7 8
M  V30 8 1 7 9
M  V30 9 1 9 10
M  V30 10 1 6 11
M  V30 11 2 11 12
M  V30 12 1 11 13
M  V30 13 1 13 14
M  V30 14 2 14 15
M  V30 15 1 4 16
M  V30 16 2 16 17
M  V30 17 1 17 18
M  V30 18 2 18 19
M  V30 19 1 19 20
M  V30 20 2 20 21
M  V30 21 1 21 2
M  V30 22 1 14 5
M  V30 23 1 21 16
M  V30 24 1 1 22
M  V30 25 1 1 23
M  V30 26 1 1 24
M  V30 27 1 3 25
M  V30 28 1 9 26
M  V30 29 1 9 27
M  V30 30 1 13 28
M  V30 31 1 17 29
M  V30 32 1 18 30
M  V30 33 1 19 31
M  V30 34 1 20 32
M  V30 END BOND
M  V30 END CTAB
M  END
>  <Dataset>  (861) 
ChEMBL_Kinases

>  <Ligand_Instance>  (861) 
nan

>  <PDB_ID>  (861) 
nan

>  <Standardized_SMILES>  (861) 
Cn1cc(C2=C(C(=O)CBr)C(=O)NC2=O)c2ccccc21

>  <Name>  (861) 
nan

>  <Pocket>  (861) 
nan

>  <ATP_Site>  (861) 
nan

>  <Peripheral>  (861) 
nan

>  <Num_H_Atoms_ProtBoundConf>  (861) 
nan

>  <Num_Resolved_Atoms>  (861) 
nan

>  <Num_Not_Resolved_Atoms>  (861) 
nan

$$$$
CHEMBL1801636
     RDKit          3D

  0  0  0  0  0  0  0  0  0  0999 V3000
M  V30 BEGIN CTAB
M  V30 COUNTS 32 34 0 0 0
M  V30 BEGIN ATOM
M  V30 1 C -0.586941 -1.586421 4.916578 0
M  V30 2 C -0.347248 -1.438822 3.450823 0
M  V30 3 O 0.602623 -2.067939 2.974433 0
M  V30 4 C -1.239154 -0.571689 2.693723 0
M  V30 5 C -1.081287 -0.391972 1.396624 0
M  V30 6 C -0.146587 -0.885515 0.394191 0
M  V30 7 C 0.279702 -2.159515 0.062537 0
M  V30 8 N 1.193603 -2.122251 -0.923083 0
M  V30 9 C 1.888542 -3.226773 -1.561767 0
M  V30 10 C 1.394127 -0.822705 -1.266805 0
M  V30 11 C 2.239312 -0.257622 -2.218034 0
M  V30 12 C 2.185361 1.119710 -2.283084 0
M  V30 13 C 1.396120 1.948862 -1.515081 0
M  V30 14 C 0.572690 1.332689 -0.582869 0
M  V30 15 C 0.577672 -0.053908 -0.465754 0
M  V30 16 C -2.151850 0.524471 0.947437 0
M  V30 17 O -2.539051 1.067697 -0.139378 0
M  V30 18 N -2.954664 0.872516 2.085985 0
M  V30 19 C -2.380806 0.180800 3.194595 0
M  V30 20 O -2.787069 0.213931 4.390474 0
M  V30 21 H -0.264532 -0.641832 5.442829 0
M  V30 22 H -1.659161 -1.720405 5.113139 0
M  V30 23 H 0.063208 -2.371662 5.362964 0
M  V30 24 H -0.078163 -3.042099 0.526269 0
M  V30 25 H 1.436646 -4.202262 -1.310807 0
M  V30 26 H 1.798136 -3.115699 -2.683535 0
M  V30 27 H 2.969578 -3.202430 -1.302234 0
M  V30 28 H 2.887908 -0.835629 -2.858468 0
M  V30 29 H 2.835595 1.590778 -3.020369 0
M  V30 30 H 1.416180 3.022006 -1.631574 0
M  V30 31 H -0.018081 2.012475 -0.000230 0
M  V30 32 H -3.804525 1.486919 2.217843 0
M  V30 END ATOM
M  V30 BEGIN BOND
M  V30 1 1 1 2
M  V30 2 2 2 3
M  V30 3 1 2 4
M  V30 4 2 4 5
M  V30 5 1 5 6
M  V30 6 2 6 7
M  V30 7 1 7 8
M  V30 8 1 8 9
M  V30 9 1 8 10
M  V30 10 2 10 11
M  V30 11 1 11 12
M  V30 12 2 12 13
M  V30 13 1 13 14
M  V30 14 2 14 15
M  V30 15 1 5 16
M  V30 16 2 16 17
M  V30 17 1 16 18
M  V30 18 1 18 19
M  V30 19 2 19 20
M  V30 20 1 19 4
M  V30 21 1 15 6
M  V30 22 1 15 10
M  V30 23 1 1 21
M  V30 24 1 1 22
M  V30 25 1 1 23
M  V30 26 1 7 24
M  V30 27 1 9 25
M  V30 28 1 9 26
M  V30 29 1 9 27
M  V30 30 1 11 28
M  V30 31 1 12 29
M  V30 32 1 13 30
M  V30 33 1 14 31
M  V30 34 1 18 32
M  V30 END BOND
M  V30 END CTAB
M  END
>  <Dataset>  (862) 
ChEMBL_Kinases

>  <Ligand_Instance>  (862) 
nan

>  <PDB_ID>  (862) 
nan

>  <Standardized_SMILES>  (862) 
CC(=O)C1=C(c2cn(C)c3ccccc23)C(=O)NC1=O

>  <Name>  (862) 
nan

>  <Pocket>  (862) 
nan

>  <ATP_Site>  (862) 
nan

>  <Peripheral>  (862) 
nan

>  <Num_H_Atoms_ProtBoundConf>  (862) 
nan

>  <Num_Resolved_Atoms>  (862) 
nan

>  <Num_Not_Resolved_Atoms>  (862) 
nan

$$$$
CHEMBL1801635
     RDKit          3D

  0  0  0  0  0  0  0  0  0  0999 V3000
M  V30 BEGIN CTAB
M  V30 COUNTS 34 36 0 0 0
M  V30 BEGIN ATOM
M  V30 1 C -2.755555 -4.405782 4.283620 0
M  V30 2 O -2.610991 -4.504631 2.876834 0
M  V30 3 C -1.735125 -3.713120 2.143104 0
M  V30 4 C -1.725095 -3.948209 0.766914 0
M  V30 5 C -0.900631 -3.233404 -0.093257 0
M  V30 6 C -0.057855 -2.253567 0.423286 0
M  V30 7 N 0.811191 -1.490969 -0.432160 0
M  V30 8 C 1.703571 -2.002850 -1.303690 0
M  V30 9 N 2.319423 -0.948447 -1.912636 0
M  V30 10 C 1.779419 0.192020 -1.389663 0
M  V30 11 C 2.037633 1.526823 -1.649735 0
M  V30 12 C 1.340871 2.508032 -0.972353 0
M  V30 13 C 1.637078 3.903414 -1.269966 0
M  V30 14 O 2.531867 4.138769 -2.147735 0
M  V30 15 C 0.900246 4.974392 -0.553914 0
M  V30 16 Br 1.491644 6.710194 -1.142593 0
M  V30 17 C 0.385008 2.176457 -0.034145 0
M  V30 18 C 0.121971 0.832815 0.230701 0
M  V30 19 C 0.814057 -0.149151 -0.442098 0
M  V30 20 C -0.068497 -2.021559 1.785837 0
M  V30 21 C -0.886180 -2.729415 2.644928 0
M  V30 22 H -3.035784 -5.378780 4.738550 0
M  V30 23 H -1.774872 -4.126647 4.748998 0
M  V30 24 H -3.475812 -3.605378 4.583745 0
M  V30 25 H -2.356841 -4.695638 0.307175 0
M  V30 26 H -0.900031 -3.424384 -1.166702 0
M  V30 27 H 1.864669 -3.053226 -1.455935 0
M  V30 28 H 2.794596 1.761874 -2.392567 0
M  V30 29 H 1.079573 4.938756 0.547926 0
M  V30 30 H -0.215089 4.851867 -0.644454 0
M  V30 31 H -0.144192 2.946402 0.480203 0
M  V30 32 H -0.621350 0.525228 0.960560 0
M  V30 33 H 0.578929 -1.261655 2.222983 0
M  V30 34 H -0.929454 -2.583714 3.716480 0
M  V30 END ATOM
M  V30 BEGIN BOND
M  V30 1 1 1 2
M  V30 2 1 2 3
M  V30 3 2 3 4
M  V30 4 1 4 5
M  V30 5 2 5 6
M  V30 6 1 6 7
M  V30 7 1 7 8
M  V30 8 2 8 9
M  V30 9 1 9 10
M  V30 10 2 10 11
M  V30 11 1 11 12
M  V30 12 1 12 13
M  V30 13 2 13 14
M  V30 14 1 13 15
M  V30 15 1 15 16
M  V30 16 2 12 17
M  V30 17 1 17 18
M  V30 18 2 18 19
M  V30 19 1 6 20
M  V30 20 2 20 21
M  V30 21 1 21 3
M  V30 22 1 19 7
M  V30 23 1 19 10
M  V30 24 1 1 22
M  V30 25 1 1 23
M  V30 26 1 1 24
M  V30 27 1 4 25
M  V30 28 1 5 26
M  V30 29 1 8 27
M  V30 30 1 11 28
M  V30 31 1 15 29
M  V30 32 1 15 30
M  V30 33 1 17 31
M  V30 34 1 18 32
M  V30 35 1 20 33
M  V30 36 1 21 34
M  V30 END BOND
M  V30 END CTAB
M  END
>  <Dataset>  (863) 
ChEMBL_Kinases

>  <Ligand_Instance>  (863) 
nan

>  <PDB_ID>  (863) 
nan

>  <Standardized_SMILES>  (863) 
COc1ccc(-n2cnc3cc(C(=O)CBr)ccc32)cc1

>  <Name>  (863) 
nan

>  <Pocket>  (863) 
nan

>  <ATP_Site>  (863) 
nan

>  <Peripheral>  (863) 
nan

>  <Num_H_Atoms_ProtBoundConf>  (863) 
nan

>  <Num_Resolved_Atoms>  (863) 
nan

>  <Num_Not_Resolved_Atoms>  (863) 
nan

$$$$
CHEMBL1801633
     RDKit          3D

  0  0  0  0  0  0  0  0  0  0999 V3000
M  V30 BEGIN CTAB
M  V30 COUNTS 29 31 0 0 0
M  V30 BEGIN ATOM
M  V30 1 O -0.389350 -1.759633 4.441355 0
M  V30 2 C 0.016954 -1.507543 3.251174 0
M  V30 3 C 1.063340 -0.551348 3.607988 0
M  V30 4 Br 2.184658 -1.351604 4.988392 0
M  V30 5 C -0.657016 -2.200310 2.166500 0
M  V30 6 C -0.320138 -2.015079 0.906187 0
M  V30 7 C 0.647178 -1.224606 0.165597 0
M  V30 8 C 1.880233 -1.567332 -0.412791 0
M  V30 9 N 2.429530 -0.520977 -1.047876 0
M  V30 10 C 1.580522 0.529062 -0.904784 0
M  V30 11 C 1.728793 1.821668 -1.403684 0
M  V30 12 C 0.704291 2.684651 -1.116402 0
M  V30 13 C -0.421008 2.371183 -0.392851 0
M  V30 14 C -0.482361 1.068435 0.064026 0
M  V30 15 C 0.488575 0.131657 -0.169715 0
M  V30 16 C -1.163501 -2.840783 0.065558 0
M  V30 17 O -1.402740 -3.163471 -1.142761 0
M  V30 18 N -2.039347 -3.538413 0.989000 0
M  V30 19 C -1.736756 -3.147782 2.324977 0
M  V30 20 O -2.269646 -3.527182 3.405178 0
M  V30 21 H 0.668809 0.382669 4.061790 0
M  V30 22 H 1.726308 -0.295279 2.720193 0
M  V30 23 H 2.256770 -2.576245 -0.306298 0
M  V30 24 H 3.350770 -0.592704 -1.544723 0
M  V30 25 H 2.591629 2.163415 -1.989078 0
M  V30 26 H 0.719781 3.730155 -1.468188 0
M  V30 27 H -1.265079 2.978853 -0.134185 0
M  V30 28 H -1.340523 0.715077 0.658449 0
M  V30 29 H -2.827781 -4.248928 0.865665 0
M  V30 END ATOM
M  V30 BEGIN BOND
M  V30 1 2 1 2
M  V30 2 1 2 3
M  V30 3 1 3 4
M  V30 4 1 2 5
M  V30 5 2 5 6
M  V30 6 1 6 7
M  V30 7 2 7 8
M  V30 8 1 8 9
M  V30 9 1 9 10
M  V30 10 2 10 11
M  V30 11 1 11 12
M  V30 12 2 12 13
M  V30 13 1 13 14
M  V30 14 2 14 15
M  V30 15 1 6 16
M  V30 16 2 16 17
M  V30 17 1 16 18
M  V30 18 1 18 19
M  V30 19 2 19 20
M  V30 20 1 19 5
M  V30 21 1 15 7
M  V30 22 1 15 10
M  V30 23 1 3 21
M  V30 24 1 3 22
M  V30 25 1 8 23
M  V30 26 1 9 24
M  V30 27 1 11 25
M  V30 28 1 12 26
M  V30 29 1 13 27
M  V30 30 1 14 28
M  V30 31 1 18 29
M  V30 END BOND
M  V30 END CTAB
M  END
>  <Dataset>  (864) 
ChEMBL_Kinases

>  <Ligand_Instance>  (864) 
nan

>  <PDB_ID>  (864) 
nan

>  <Standardized_SMILES>  (864) 
O=C(CBr)C1=C(c2c[nH]c3ccccc23)C(=O)NC1=O

>  <Name>  (864) 
nan

>  <Pocket>  (864) 
nan

>  <ATP_Site>  (864) 
nan

>  <Peripheral>  (864) 
nan

>  <Num_H_Atoms_ProtBoundConf>  (864) 
nan

>  <Num_Resolved_Atoms>  (864) 
nan

>  <Num_Not_Resolved_Atoms>  (864) 
nan

$$$$
CHEMBL1801632
     RDKit          3D

  0  0  0  0  0  0  0  0  0  0999 V3000
M  V30 BEGIN CTAB
M  V30 COUNTS 29 31 0 0 0
M  V30 BEGIN ATOM
M  V30 1 C -1.327428 -1.672780 4.593435 0
M  V30 2 C -0.640357 -1.403123 3.325719 0
M  V30 3 O -0.514174 -2.531960 2.789069 0
M  V30 4 C -0.213463 -0.125620 2.825419 0
M  V30 5 C 0.409826 0.070998 1.678226 0
M  V30 6 C 0.853711 -0.814907 0.611990 0
M  V30 7 C 1.563279 -2.004377 0.753148 0
M  V30 8 N 1.806304 -2.599635 -0.430863 0
M  V30 9 C 1.265215 -1.822119 -1.384270 0
M  V30 10 C 1.218497 -1.962855 -2.776830 0
M  V30 11 C 0.584922 -1.008154 -3.543765 0
M  V30 12 C -0.004179 0.090860 -2.915946 0
M  V30 13 C 0.051179 0.216964 -1.522984 0
M  V30 14 C 0.683095 -0.735490 -0.770565 0
M  V30 15 C 0.677970 1.521020 1.546135 0
M  V30 16 O 1.234749 2.265027 0.676600 0
M  V30 17 N 0.156672 2.179809 2.720784 0
M  V30 18 C -0.408823 1.130868 3.530688 0
M  V30 19 O -0.946630 1.404996 4.635141 0
M  V30 20 H -2.328658 -2.148290 4.424439 0
M  V30 21 H -1.399991 -0.782270 5.226903 0
M  V30 22 H -0.773011 -2.422747 5.234489 0
M  V30 23 H 1.933719 -2.488435 1.644845 0
M  V30 24 H 2.302660 -3.481656 -0.654437 0
M  V30 25 H 1.688203 -2.836735 -3.246490 0
M  V30 26 H 0.586664 -1.179863 -4.610873 0
M  V30 27 H -0.481934 0.796491 -3.582425 0
M  V30 28 H -0.425238 1.080543 -1.096244 0
M  V30 29 H 0.170116 3.211042 2.967356 0
M  V30 END ATOM
M  V30 BEGIN BOND
M  V30 1 1 1 2
M  V30 2 2 2 3
M  V30 3 1 2 4
M  V30 4 2 4 5
M  V30 5 1 5 6
M  V30 6 2 6 7
M  V30 7 1 7 8
M  V30 8 1 8 9
M  V30 9 2 9 10
M  V30 10 1 10 11
M  V30 11 2 11 12
M  V30 12 1 12 13
M  V30 13 2 13 14
M  V30 14 1 5 15
M  V30 15 2 15 16
M  V30 16 1 15 17
M  V30 17 1 17 18
M  V30 18 2 18 19
M  V30 19 1 18 4
M  V30 20 1 14 6
M  V30 21 1 14 9
M  V30 22 1 1 20
M  V30 23 1 1 21
M  V30 24 1 1 22
M  V30 25 1 7 23
M  V30 26 1 8 24
M  V30 27 1 10 25
M  V30 28 1 11 26
M  V30 29 1 12 27
M  V30 30 1 13 28
M  V30 31 1 17 29
M  V30 END BOND
M  V30 END CTAB
M  END
>  <Dataset>  (865) 
ChEMBL_Kinases

>  <Ligand_Instance>  (865) 
nan

>  <PDB_ID>  (865) 
nan

>  <Standardized_SMILES>  (865) 
CC(=O)C1=C(c2c[nH]c3ccccc23)C(=O)NC1=O

>  <Name>  (865) 
nan

>  <Pocket>  (865) 
nan

>  <ATP_Site>  (865) 
nan

>  <Peripheral>  (865) 
nan

>  <Num_H_Atoms_ProtBoundConf>  (865) 
nan

>  <Num_Resolved_Atoms>  (865) 
nan

>  <Num_Not_Resolved_Atoms>  (865) 
nan

$$$$
CHEMBL1801631
     RDKit          3D

  0  0  0  0  0  0  0  0  0  0999 V3000
M  V30 BEGIN CTAB
M  V30 COUNTS 20 21 0 0 0
M  V30 BEGIN ATOM
M  V30 1 N -0.715242 -0.667768 3.998957 0
M  V30 2 C 0.303244 -0.833539 3.025182 0
M  V30 3 N 1.490906 -1.481640 3.261713 0
M  V30 4 C 2.419258 -1.590157 2.259536 0
M  V30 5 N 2.238179 -1.090792 1.025247 0
M  V30 6 C 1.090680 -0.437260 0.707334 0
M  V30 7 C 0.209622 -0.364878 1.748124 0
M  V30 8 N -0.847447 0.299353 1.236265 0
M  V30 9 C -0.575047 0.590209 -0.047927 0
M  V30 10 N 0.655709 0.134560 -0.420836 0
M  V30 11 C 1.320441 0.229395 -1.700247 0
M  V30 12 O 2.485459 -0.293645 -1.706527 0
M  V30 13 C 0.472075 0.933679 -2.728393 0
M  V30 14 Cl 0.355763 2.636602 -2.204517 0
M  V30 15 H -0.268717 0.173489 4.474989 0
M  V30 16 H -1.548557 -1.253912 4.081386 0
M  V30 17 H 3.354701 -2.121566 2.510256 0
M  V30 18 H -1.253057 1.128011 -0.726066 0
M  V30 19 H 0.906504 0.854223 -3.747896 0
M  V30 20 H -0.534380 0.484515 -2.653145 0
M  V30 END ATOM
M  V30 BEGIN BOND
M  V30 1 1 1 2
M  V30 2 2 2 3
M  V30 3 1 3 4
M  V30 4 2 4 5
M  V30 5 1 5 6
M  V30 6 2 6 7
M  V30 7 1 7 8
M  V30 8 2 8 9
M  V30 9 1 9 10
M  V30 10 1 10 11
M  V30 11 2 11 12
M  V30 12 1 11 13
M  V30 13 1 13 14
M  V30 14 1 7 2
M  V30 15 1 10 6
M  V30 16 1 1 15
M  V30 17 1 1 16
M  V30 18 1 4 17
M  V30 19 1 9 18
M  V30 20 1 13 19
M  V30 21 1 13 20
M  V30 END BOND
M  V30 END CTAB
M  END
>  <Dataset>  (866) 
ChEMBL_Kinases

>  <Ligand_Instance>  (866) 
nan

>  <PDB_ID>  (866) 
nan

>  <Standardized_SMILES>  (866) 
Nc1ncnc2c1ncn2C(=O)CCl

>  <Name>  (866) 
nan

>  <Pocket>  (866) 
nan

>  <ATP_Site>  (866) 
nan

>  <Peripheral>  (866) 
nan

>  <Num_H_Atoms_ProtBoundConf>  (866) 
nan

>  <Num_Resolved_Atoms>  (866) 
nan

>  <Num_Not_Resolved_Atoms>  (866) 
nan

$$$$
CHEMBL1801392
     RDKit          3D

  0  0  0  0  0  0  0  0  0  0999 V3000
M  V30 BEGIN CTAB
M  V30 COUNTS 65 70 0 0 0
M  V30 BEGIN ATOM
M  V30 1 O 6.378701 4.532322 0.908278 0
M  V30 2 C 6.373420 3.472323 1.581037 0
M  V30 3 N 7.590782 3.179477 2.256854 0
M  V30 4 C 7.923226 2.133571 3.196290 0
M  V30 5 C 7.081471 0.909920 3.070526 0
M  V30 6 C 5.670101 1.053516 3.559938 0
M  V30 7 C 4.860157 1.649866 2.453536 0
M  V30 8 N 3.633206 1.234461 2.098260 0
M  V30 9 C 3.136245 1.942832 1.069782 0
M  V30 10 C 4.072078 2.889347 0.706070 0
M  V30 11 C 3.908436 3.802992 -0.322931 0
M  V30 12 C 2.686001 3.701318 -0.997924 0
M  V30 13 C 1.710909 2.779300 -0.684842 0
M  V30 14 C 0.511553 2.720092 -1.385118 0
M  V30 15 N -0.401780 1.799516 -1.030007 0
M  V30 16 C -0.196034 0.934611 -0.021557 0
M  V30 17 C -1.265910 -0.010733 0.268980 0
M  V30 18 C -1.315374 -0.927136 1.183388 0
M  V30 19 C -2.263901 -1.938889 1.622031 0
M  V30 20 C -1.999464 -2.821915 2.667439 0
M  V30 21 C -3.016188 -3.684913 2.954594 0
M  V30 22 C -4.246172 -3.751944 2.313694 0
M  V30 23 C -4.466628 -2.842194 1.265244 0
M  V30 24 C -5.821346 -2.996878 0.688068 0
M  V30 25 C -5.907699 -4.042948 -0.384506 0
M  V30 26 N -5.029448 -3.709553 -1.497821 0
M  V30 27 C -5.177132 -4.804328 -2.474052 0
M  V30 28 C -4.368533 -4.506323 -3.690458 0
M  V30 29 O -4.043710 -3.156422 -3.802333 0
M  V30 30 C -5.252984 -2.460855 -3.608293 0
M  V30 31 C -5.610960 -2.542394 -2.151903 0
M  V30 32 C -3.464578 -1.957940 0.948140 0
M  V30 33 C 0.981821 0.967049 0.691662 0
M  V30 34 C 1.951061 1.901831 0.357169 0
M  V30 35 C 5.143092 2.686862 1.587298 0
M  V30 36 H 8.368702 3.848162 2.020615 0
M  V30 37 H 7.767610 2.558679 4.217551 0
M  V30 38 H 8.982913 1.811624 3.118457 0
M  V30 39 H 7.554726 0.124993 3.709134 0
M  V30 40 H 7.132303 0.489196 2.034815 0
M  V30 41 H 5.227304 0.076695 3.846892 0
M  V30 42 H 5.659145 1.786983 4.389757 0
M  V30 43 H 3.104905 0.450377 2.557212 0
M  V30 44 H 4.630286 4.528845 -0.598748 0
M  V30 45 H 2.486381 4.385567 -1.815463 0
M  V30 46 H 0.310596 3.400726 -2.203037 0
M  V30 47 H -2.194641 -0.032003 -0.296913 0
M  V30 48 H -0.383038 -0.931744 1.783768 0
M  V30 49 H -1.050225 -2.784100 3.178740 0
M  V30 50 H -2.822259 -4.390110 3.779957 0
M  V30 51 H -4.947333 -4.504842 2.671278 0
M  V30 52 H -6.575656 -3.271857 1.479753 0
M  V30 53 H -6.114437 -1.994941 0.263840 0
M  V30 54 H -6.930580 -4.191158 -0.759788 0
M  V30 55 H -5.475508 -4.972925 0.051957 0
M  V30 56 H -4.868873 -5.744428 -1.987745 0
M  V30 57 H -6.277420 -4.868028 -2.681251 0
M  V30 58 H -4.935976 -4.768926 -4.634997 0
M  V30 59 H -3.438362 -5.093315 -3.769571 0
M  V30 60 H -5.060030 -1.401867 -3.907795 0
M  V30 61 H -6.012511 -2.939631 -4.255426 0
M  V30 62 H -5.315256 -1.652216 -1.587359 0
M  V30 63 H -6.726732 -2.652447 -2.034213 0
M  V30 64 H -3.721109 -1.300084 0.136066 0
M  V30 65 H 1.179592 0.289128 1.500771 0
M  V30 END ATOM
M  V30 BEGIN BOND
M  V30 1 2 1 2
M  V30 2 1 2 3
M  V30 3 1 3 4
M  V30 4 1 4 5
M  V30 5 1 5 6
M  V30 6 1 6 7
M  V30 7 1 7 8
M  V30 8 1 8 9
M  V30 9 2 9 10
M  V30 10 1 10 11
M  V30 11 2 11 12
M  V30 12 1 12 13
M  V30 13 2 13 14
M  V30 14 1 14 15
M  V30 15 2 15 16
M  V30 16 1 16 17
M  V30 17 2 17 18
M  V30 18 1 18 19
M  V30 19 2 19 20
M  V30 20 1 20 21
M  V30 21 2 21 22
M  V30 22 1 22 23
M  V30 23 1 23 24
M  V30 24 1 24 25
M  V30 25 1 25 26
M  V30 26 1 26 27
M  V30 27 1 27 28
M  V30 28 1 28 29
M  V30 29 1 29 30
M  V30 30 1 30 31
M  V30 31 2 23 32
M  V30 32 1 16 33
M  V30 33 2 33 34
M  V30 34 1 10 35
M  V30 35 1 35 2
M  V30 36 2 35 7
M  V30 37 1 34 9
M  V30 38 1 34 13
M  V30 39 1 32 19
M  V30 40 1 31 26
M  V30 41 1 3 36
M  V30 42 1 4 37
M  V30 43 1 4 38
M  V30 44 1 5 39
M  V30 45 1 5 40
M  V30 46 1 6 41
M  V30 47 1 6 42
M  V30 48 1 8 43
M  V30 49 1 11 44
M  V30 50 1 12 45
M  V30 51 1 14 46
M  V30 52 1 17 47
M  V30 53 1 18 48
M  V30 54 1 20 49
M  V30 55 1 21 50
M  V30 56 1 22 51
M  V30 57 1 24 52
M  V30 58 1 24 53
M  V30 59 1 25 54
M  V30 60 1 25 55
M  V30 61 1 27 56
M  V30 62 1 27 57
M  V30 63 1 28 58
M  V30 64 1 28 59
M  V30 65 1 30 60
M  V30 66 1 30 61
M  V30 67 1 31 62
M  V30 68 1 31 63
M  V30 69 1 32 64
M  V30 70 1 33 65
M  V30 END BOND
M  V30 END CTAB
M  END
>  <Dataset>  (867) 
ChEMBL_Kinases

>  <Ligand_Instance>  (867) 
nan

>  <PDB_ID>  (867) 
nan

>  <Standardized_SMILES>  (867) 
O=C1NCCCc2[nH]c3c(ccc4cnc(/C=C/c5cccc(CCN6CCOCC6)c5)cc43)c21

>  <Name>  (867) 
nan

>  <Pocket>  (867) 
nan

>  <ATP_Site>  (867) 
nan

>  <Peripheral>  (867) 
nan

>  <Num_H_Atoms_ProtBoundConf>  (867) 
nan

>  <Num_Resolved_Atoms>  (867) 
nan

>  <Num_Not_Resolved_Atoms>  (867) 
nan

$$$$
CHEMBL1801391
     RDKit          3D

  0  0  0  0  0  0  0  0  0  0999 V3000
M  V30 BEGIN CTAB
M  V30 COUNTS 62 67 0 0 0
M  V30 BEGIN ATOM
M  V30 1 O 3.269707 6.876345 2.962925 0
M  V30 2 C 4.047678 5.865304 2.971352 0
M  V30 3 N 5.416806 6.016787 3.389415 0
M  V30 4 C 6.501398 5.082316 3.055091 0
M  V30 5 C 6.294123 4.558961 1.636882 0
M  V30 6 C 5.492794 3.281568 1.647225 0
M  V30 7 C 4.061705 3.529283 1.962319 0
M  V30 8 N 3.094970 2.619343 1.711427 0
M  V30 9 C 1.888158 3.093776 2.093082 0
M  V30 10 C 2.042289 4.360225 2.616863 0
M  V30 11 C 1.012292 5.139117 3.104549 0
M  V30 12 C -0.268066 4.584623 3.053583 0
M  V30 13 C -0.461864 3.312258 2.532989 0
M  V30 14 C -1.710905 2.735444 2.468134 0
M  V30 15 N -1.904149 1.484290 1.957091 0
M  V30 16 C -0.874965 0.753325 1.490389 0
M  V30 17 C -1.088157 -0.585979 0.946798 0
M  V30 18 C -2.280441 -1.119968 0.897893 0
M  V30 19 C -2.592109 -2.446328 0.374856 0
M  V30 20 C -1.636524 -3.292731 -0.142322 0
M  V30 21 C -1.942384 -4.556216 -0.632895 0
M  V30 22 C -3.249041 -4.993023 -0.607764 0
M  V30 23 C -3.796097 -6.286323 -1.078098 0
M  V30 24 N -4.299411 -6.296276 -2.406447 0
M  V30 25 C -3.274760 -5.930387 -3.344041 0
M  V30 26 C -2.359114 -7.085366 -3.676442 0
M  V30 27 O -2.598034 -8.170600 -2.873041 0
M  V30 28 C -3.879644 -8.637389 -3.075495 0
M  V30 29 C -4.896628 -7.588861 -2.740742 0
M  V30 30 C -4.227553 -4.144877 -0.086316 0
M  V30 31 C -3.898968 -2.893623 0.395425 0
M  V30 32 C 0.394670 1.298943 1.538693 0
M  V30 33 C 0.615346 2.578132 2.057756 0
M  V30 34 C 3.398568 4.611473 2.526388 0
M  V30 35 H 5.535755 6.884252 3.964430 0
M  V30 36 H 7.487962 5.587209 3.095839 0
M  V30 37 H 6.421396 4.255174 3.782362 0
M  V30 38 H 7.309053 4.283625 1.259155 0
M  V30 39 H 5.855671 5.294998 0.964092 0
M  V30 40 H 5.640159 2.709684 0.722415 0
M  V30 41 H 5.880339 2.654273 2.499665 0
M  V30 42 H 3.254559 1.670413 1.278758 0
M  V30 43 H 1.130834 6.115312 3.508406 0
M  V30 44 H -1.154743 5.095162 3.404151 0
M  V30 45 H -2.586036 3.279609 2.832246 0
M  V30 46 H -0.245686 -1.150647 0.576397 0
M  V30 47 H -3.074114 -0.503646 1.283628 0
M  V30 48 H -0.599266 -2.996692 -0.184671 0
M  V30 49 H -1.222840 -5.251348 -1.040306 0
M  V30 50 H -3.016794 -7.057171 -0.885702 0
M  V30 51 H -4.652532 -6.622455 -0.416012 0
M  V30 52 H -3.787216 -5.605635 -4.279874 0
M  V30 53 H -2.663861 -5.126891 -2.908485 0
M  V30 54 H -2.519812 -7.404822 -4.728290 0
M  V30 55 H -1.284151 -6.814073 -3.602966 0
M  V30 56 H -3.987653 -8.993685 -4.134653 0
M  V30 57 H -4.004320 -9.543073 -2.412950 0
M  V30 58 H -5.530760 -7.962260 -1.922657 0
M  V30 59 H -5.547165 -7.449220 -3.641028 0
M  V30 60 H -5.293743 -4.397579 -0.021304 0
M  V30 61 H -4.661507 -2.227990 0.804009 0
M  V30 62 H 1.223595 0.701672 1.159528 0
M  V30 END ATOM
M  V30 BEGIN BOND
M  V30 1 2 1 2
M  V30 2 1 2 3
M  V30 3 1 3 4
M  V30 4 1 4 5
M  V30 5 1 5 6
M  V30 6 1 6 7
M  V30 7 1 7 8
M  V30 8 1 8 9
M  V30 9 2 9 10
M  V30 10 1 10 11
M  V30 11 2 11 12
M  V30 12 1 12 13
M  V30 13 2 13 14
M  V30 14 1 14 15
M  V30 15 2 15 16
M  V30 16 1 16 17
M  V30 17 2 17 18
M  V30 18 1 18 19
M  V30 19 2 19 20
M  V30 20 1 20 21
M  V30 21 2 21 22
M  V30 22 1 22 23
M  V30 23 1 23 24
M  V30 24 1 24 25
M  V30 25 1 25 26
M  V30 26 1 26 27
M  V30 27 1 27 28
M  V30 28 1 28 29
M  V30 29 1 22 30
M  V30 30 2 30 31
M  V30 31 1 16 32
M  V30 32 2 32 33
M  V30 33 1 10 34
M  V30 34 1 34 2
M  V30 35 2 34 7
M  V30 36 1 33 9
M  V30 37 1 33 13
M  V30 38 1 31 19
M  V30 39 1 29 24
M  V30 40 1 3 35
M  V30 41 1 4 36
M  V30 42 1 4 37
M  V30 43 1 5 38
M  V30 44 1 5 39
M  V30 45 1 6 40
M  V30 46 1 6 41
M  V30 47 1 8 42
M  V30 48 1 11 43
M  V30 49 1 12 44
M  V30 50 1 14 45
M  V30 51 1 17 46
M  V30 52 1 18 47
M  V30 53 1 20 48
M  V30 54 1 21 49
M  V30 55 1 23 50
M  V30 56 1 23 51
M  V30 57 1 25 52
M  V30 58 1 25 53
M  V30 59 1 26 54
M  V30 60 1 26 55
M  V30 61 1 28 56
M  V30 62 1 28 57
M  V30 63 1 29 58
M  V30 64 1 29 59
M  V30 65 1 30 60
M  V30 66 1 31 61
M  V30 67 1 32 62
M  V30 END BOND
M  V30 END CTAB
M  END
>  <Dataset>  (868) 
ChEMBL_Kinases

>  <Ligand_Instance>  (868) 
nan

>  <PDB_ID>  (868) 
nan

>  <Standardized_SMILES>  (868) 
O=C1NCCCc2[nH]c3c(ccc4cnc(/C=C/c5ccc(CN6CCOCC6)cc5)cc43)c21

>  <Name>  (868) 
nan

>  <Pocket>  (868) 
nan

>  <ATP_Site>  (868) 
nan

>  <Peripheral>  (868) 
nan

>  <Num_H_Atoms_ProtBoundConf>  (868) 
nan

>  <Num_Resolved_Atoms>  (868) 
nan

>  <Num_Not_Resolved_Atoms>  (868) 
nan

$$$$
CHEMBL1801390
     RDKit          3D

  0  0  0  0  0  0  0  0  0  0999 V3000
M  V30 BEGIN CTAB
M  V30 COUNTS 46 50 0 0 0
M  V30 BEGIN ATOM
M  V30 1 O 5.881539 -1.353193 -0.283832 0
M  V30 2 C 4.988052 -2.205947 -0.235222 0
M  V30 3 N 5.379594 -3.566988 -0.445622 0
M  V30 4 C 4.540428 -4.655199 -0.908894 0
M  V30 5 C 3.316383 -4.154212 -1.636284 0
M  V30 6 C 2.182507 -3.821650 -0.700808 0
M  V30 7 C 2.437107 -2.451204 -0.169919 0
M  V30 8 N 1.416486 -1.684917 0.201332 0
M  V30 9 C 1.924916 -0.504891 0.639972 0
M  V30 10 C 3.307751 -0.532471 0.540503 0
M  V30 11 C 4.093467 0.517684 0.909555 0
M  V30 12 C 3.429076 1.638820 1.399706 0
M  V30 13 C 2.065789 1.684965 1.505336 0
M  V30 14 C 1.381257 2.779009 1.985954 0
M  V30 15 N 0.043532 2.835663 2.094136 0
M  V30 16 C -0.753612 1.812879 1.736742 0
M  V30 17 C -2.206021 1.875860 1.854782 0
M  V30 18 C -3.058010 0.927619 1.530671 0
M  V30 19 C -4.505691 1.014892 1.658104 0
M  V30 20 C -5.188282 2.110439 2.139185 0
M  V30 21 C -6.542297 2.208064 2.264745 0
M  V30 22 C -7.318853 1.136892 1.886698 0
M  V30 23 C -6.689304 0.013701 1.397971 0
M  V30 24 C -5.307377 -0.039232 1.288470 0
M  V30 25 C -0.071913 0.715566 1.255005 0
M  V30 26 C 1.287396 0.617283 1.128818 0
M  V30 27 C 3.623306 -1.761949 0.029405 0
M  V30 28 H 6.371284 -3.792668 -0.243200 0
M  V30 29 H 4.238355 -5.357450 -0.116153 0
M  V30 30 H 5.141833 -5.232209 -1.644890 0
M  V30 31 H 2.963840 -4.985846 -2.286146 0
M  V30 32 H 3.563074 -3.304008 -2.296694 0
M  V30 33 H 1.198146 -3.900214 -1.167060 0
M  V30 34 H 2.208562 -4.556197 0.146784 0
M  V30 35 H 0.397148 -1.901569 0.180025 0
M  V30 36 H 5.165775 0.556278 0.856402 0
M  V30 37 H 3.994869 2.524548 1.717181 0
M  V30 38 H 1.966869 3.646218 2.294760 0
M  V30 39 H -2.618525 2.794245 2.247850 0
M  V30 40 H -2.630908 0.020809 1.141318 0
M  V30 41 H -4.627482 2.979861 2.450489 0
M  V30 42 H -7.016610 3.104571 2.653041 0
M  V30 43 H -8.394179 1.172403 1.969638 0
M  V30 44 H -7.232618 -0.874668 1.078000 0
M  V30 45 H -4.839108 -0.938678 0.899388 0
M  V30 46 H -0.619254 -0.159378 0.940662 0
M  V30 END ATOM
M  V30 BEGIN BOND
M  V30 1 2 1 2
M  V30 2 1 2 3
M  V30 3 1 3 4
M  V30 4 1 4 5
M  V30 5 1 5 6
M  V30 6 1 6 7
M  V30 7 1 7 8
M  V30 8 1 8 9
M  V30 9 2 9 10
M  V30 10 1 10 11
M  V30 11 2 11 12
M  V30 12 1 12 13
M  V30 13 2 13 14
M  V30 14 1 14 15
M  V30 15 2 15 16
M  V30 16 1 16 17
M  V30 17 2 17 18
M  V30 18 1 18 19
M  V30 19 2 19 20
M  V30 20 1 20 21
M  V30 21 2 21 22
M  V30 22 1 22 23
M  V30 23 2 23 24
M  V30 24 1 16 25
M  V30 25 2 25 26
M  V30 26 1 10 27
M  V30 27 1 27 2
M  V30 28 2 27 7
M  V30 29 1 26 9
M  V30 30 1 26 13
M  V30 31 1 24 19
M  V30 32 1 3 28
M  V30 33 1 4 29
M  V30 34 1 4 30
M  V30 35 1 5 31
M  V30 36 1 5 32
M  V30 37 1 6 33
M  V30 38 1 6 34
M  V30 39 1 8 35
M  V30 40 1 11 36
M  V30 41 1 12 37
M  V30 42 1 14 38
M  V30 43 1 17 39
M  V30 44 1 18 40
M  V30 45 1 20 41
M  V30 46 1 21 42
M  V30 47 1 22 43
M  V30 48 1 23 44
M  V30 49 1 24 45
M  V30 50 1 25 46
M  V30 END BOND
M  V30 END CTAB
M  END
>  <Dataset>  (869) 
ChEMBL_Kinases

>  <Ligand_Instance>  (869) 
nan

>  <PDB_ID>  (869) 
nan

>  <Standardized_SMILES>  (869) 
O=C1NCCCc2[nH]c3c(ccc4cnc(/C=C/c5ccccc5)cc43)c21

>  <Name>  (869) 
nan

>  <Pocket>  (869) 
nan

>  <ATP_Site>  (869) 
nan

>  <Peripheral>  (869) 
nan

>  <Num_H_Atoms_ProtBoundConf>  (869) 
nan

>  <Num_Resolved_Atoms>  (869) 
nan

>  <Num_Not_Resolved_Atoms>  (869) 
nan

$$$$
CHEMBL1801316
     RDKit          3D

  0  0  0  0  0  0  0  0  0  0999 V3000
M  V30 BEGIN CTAB
M  V30 COUNTS 45 49 0 0 0
M  V30 BEGIN ATOM
M  V30 1 C 0.635694 -7.908100 3.079656 0
M  V30 2 O 0.222873 -7.460798 1.834822 0
M  V30 3 C 0.146314 -6.195635 1.338513 0
M  V30 4 C 0.477874 -5.018124 2.013563 0
M  V30 5 C 0.387757 -3.760103 1.477689 0
M  V30 6 C -0.041294 -3.556833 0.216064 0
M  V30 7 C -0.320686 -2.474923 -0.706216 0
M  V30 8 C -0.083075 -1.305732 0.055496 0
M  V30 9 C -0.240095 0.004153 -0.424831 0
M  V30 10 C -0.646424 0.174834 -1.709066 0
M  V30 11 C -0.870823 1.368384 -2.349587 0
M  V30 12 C -0.671642 2.556645 -1.638286 0
M  V30 13 C -0.250427 2.392454 -0.305447 0
M  V30 14 C 0.016852 3.349194 0.683816 0
M  V30 15 C 0.376298 2.618326 1.817573 0
M  V30 16 N 0.332323 1.319268 1.548710 0
M  V30 17 C -0.053811 1.178595 0.246000 0
M  V30 18 C 0.672325 3.492669 2.972662 0
M  V30 19 N 1.147261 4.778543 2.535917 0
M  V30 20 C 2.425348 4.693866 1.927339 0
M  V30 21 N 0.230381 5.492937 1.761245 0
M  V30 22 C -0.083420 4.751089 0.546959 0
M  V30 23 O -0.396926 5.472473 -0.421558 0
M  V30 24 C -0.875094 -0.960357 -2.445570 0
M  V30 25 N -0.695813 -2.133211 -1.888455 0
M  V30 26 C -0.393518 -4.701892 -0.528550 0
M  V30 27 C -0.297174 -5.988987 0.034449 0
M  V30 28 H 1.479530 -7.308255 3.451806 0
M  V30 29 H 1.049340 -8.955833 2.942265 0
M  V30 30 H -0.181844 -8.014679 3.817603 0
M  V30 31 H 0.821285 -5.064913 3.009822 0
M  V30 32 H 0.628961 -2.833069 1.944413 0
M  V30 33 H 0.245800 -1.179613 1.093969 0
M  V30 34 H -1.195600 1.394306 -3.392225 0
M  V30 35 H -0.823333 3.511219 -2.090479 0
M  V30 36 H 0.566112 0.572120 2.243113 0
M  V30 37 H 1.512081 3.061428 3.579016 0
M  V30 38 H -0.211895 3.589999 3.651836 0
M  V30 39 H 2.671702 5.560953 1.259606 0
M  V30 40 H 2.592480 3.738319 1.379487 0
M  V30 41 H 3.247347 4.743942 2.701205 0
M  V30 42 H -0.188601 6.431504 1.995141 0
M  V30 43 H -1.202788 -1.049806 -3.477119 0
M  V30 44 H -0.770304 -4.828216 -1.565090 0
M  V30 45 H -0.562517 -6.921145 -0.497134 0
M  V30 END ATOM
M  V30 BEGIN BOND
M  V30 1 1 1 2
M  V30 2 1 2 3
M  V30 3 2 3 4
M  V30 4 1 4 5
M  V30 5 2 5 6
M  V30 6 1 6 7
M  V30 7 2 7 8
M  V30 8 1 8 9
M  V30 9 2 9 10
M  V30 10 1 10 11
M  V30 11 2 11 12
M  V30 12 1 12 13
M  V30 13 1 13 14
M  V30 14 2 14 15
M  V30 15 1 15 16
M  V30 16 1 16 17
M  V30 17 1 15 18
M  V30 18 1 18 19
M  V30 19 1 19 20
M  V30 20 1 19 21
M  V30 21 1 21 22
M  V30 22 2 22 23
M  V30 23 1 10 24
M  V30 24 2 24 25
M  V30 25 1 6 26
M  V30 26 2 26 27
M  V30 27 1 27 3
M  V30 28 1 25 7
M  V30 29 1 17 9
M  V30 30 2 17 13
M  V30 31 1 22 14
M  V30 32 1 1 28
M  V30 33 1 1 29
M  V30 34 1 1 30
M  V30 35 1 4 31
M  V30 36 1 5 32
M  V30 37 1 8 33
M  V30 38 1 11 34
M  V30 39 1 12 35
M  V30 40 1 16 36
M  V30 41 1 18 37
M  V30 42 1 18 38
M  V30 43 1 20 39
M  V30 44 1 20 40
M  V30 45 1 20 41
M  V30 46 1 21 42
M  V30 47 1 24 43
M  V30 48 1 26 44
M  V30 49 1 27 45
M  V30 END BOND
M  V30 END CTAB
M  END
>  <Dataset>  (870) 
ChEMBL_Kinases

>  <Ligand_Instance>  (870) 
nan

>  <PDB_ID>  (870) 
nan

>  <Standardized_SMILES>  (870) 
COc1ccc(-c2cc3c(ccc4c5c([nH]c43)CN(C)NC5=O)cn2)cc1

>  <Name>  (870) 
nan

>  <Pocket>  (870) 
nan

>  <ATP_Site>  (870) 
nan

>  <Peripheral>  (870) 
nan

>  <Num_H_Atoms_ProtBoundConf>  (870) 
nan

>  <Num_Resolved_Atoms>  (870) 
nan

>  <Num_Not_Resolved_Atoms>  (870) 
nan

$$$$
CHEMBL1801373
     RDKit          3D

  0  0  0  0  0  0  0  0  0  0999 V3000
M  V30 BEGIN CTAB
M  V30 COUNTS 40 44 0 0 0
M  V30 BEGIN ATOM
M  V30 1 O 2.873536 -5.944114 -2.660634 0
M  V30 2 C 2.510764 -5.458783 -1.551221 0
M  V30 3 N 2.588021 -6.192659 -0.311342 0
M  V30 4 C 2.105413 -5.396896 0.812489 0
M  V30 5 C 1.722931 -4.109905 0.167669 0
M  V30 6 N 1.215858 -2.886417 0.442516 0
M  V30 7 C 1.141643 -2.195278 -0.715917 0
M  V30 8 C 1.602755 -2.957589 -1.785784 0
M  V30 9 C 1.621628 -2.460201 -3.066858 0
M  V30 10 C 1.187977 -1.189362 -3.357283 0
M  V30 11 C 0.728818 -0.425376 -2.303412 0
M  V30 12 C 0.268702 0.863934 -2.473171 0
M  V30 13 N -0.186198 1.640570 -1.475192 0
M  V30 14 C -0.228125 1.207486 -0.201914 0
M  V30 15 C -0.725479 2.065683 0.868029 0
M  V30 16 C -0.812330 1.749226 2.146549 0
M  V30 17 C -1.309432 2.607031 3.215846 0
M  V30 18 C -1.353432 2.165490 4.521919 0
M  V30 19 C -1.818375 2.958148 5.544753 0
M  V30 20 C -2.259874 4.224645 5.313160 0
M  V30 21 C -2.233472 4.704041 4.027422 0
M  V30 22 C -1.758696 3.875642 3.027380 0
M  V30 23 C 0.223953 -0.069714 -0.010763 0
M  V30 24 C 0.698383 -0.898360 -1.007906 0
M  V30 25 C 1.959919 -4.155029 -1.193645 0
M  V30 26 H 2.934280 -7.172799 -0.159712 0
M  V30 27 H 2.947101 -5.156610 1.484255 0
M  V30 28 H 1.253510 -5.868957 1.326798 0
M  V30 29 H 0.937502 -2.556944 1.394340 0
M  V30 30 H 1.985202 -3.072627 -3.883855 0
M  V30 31 H 1.176796 -0.741707 -4.335943 0
M  V30 32 H 0.285417 1.253576 -3.488687 0
M  V30 33 H -1.058585 3.055695 0.612583 0
M  V30 34 H -0.476784 0.748205 2.412715 0
M  V30 35 H -1.003340 1.146596 4.739759 0
M  V30 36 H -1.810889 2.512753 6.541104 0
M  V30 37 H -2.605901 4.758986 6.204513 0
M  V30 38 H -2.587715 5.707795 3.870754 0
M  V30 39 H -1.765358 4.314189 2.042000 0
M  V30 40 H 0.227358 -0.498810 0.972515 0
M  V30 END ATOM
M  V30 BEGIN BOND
M  V30 1 2 1 2
M  V30 2 1 2 3
M  V30 3 1 3 4
M  V30 4 1 4 5
M  V30 5 1 5 6
M  V30 6 1 6 7
M  V30 7 2 7 8
M  V30 8 1 8 9
M  V30 9 2 9 10
M  V30 10 1 10 11
M  V30 11 2 11 12
M  V30 12 1 12 13
M  V30 13 2 13 14
M  V30 14 1 14 15
M  V30 15 2 15 16
M  V30 16 1 16 17
M  V30 17 2 17 18
M  V30 18 1 18 19
M  V30 19 2 19 20
M  V30 20 1 20 21
M  V30 21 2 21 22
M  V30 22 1 14 23
M  V30 23 2 23 24
M  V30 24 1 8 25
M  V30 25 1 25 2
M  V30 26 2 25 5
M  V30 27 1 24 7
M  V30 28 1 24 11
M  V30 29 1 22 17
M  V30 30 1 3 26
M  V30 31 1 4 27
M  V30 32 1 4 28
M  V30 33 1 6 29
M  V30 34 1 9 30
M  V30 35 1 10 31
M  V30 36 1 12 32
M  V30 37 1 15 33
M  V30 38 1 16 34
M  V30 39 1 18 35
M  V30 40 1 19 36
M  V30 41 1 20 37
M  V30 42 1 21 38
M  V30 43 1 22 39
M  V30 44 1 23 40
M  V30 END BOND
M  V30 END CTAB
M  END
>  <Dataset>  (871) 
ChEMBL_Kinases

>  <Ligand_Instance>  (871) 
nan

>  <PDB_ID>  (871) 
nan

>  <Standardized_SMILES>  (871) 
O=C1NCc2[nH]c3c(ccc4cnc(/C=C/c5ccccc5)cc43)c21

>  <Name>  (871) 
nan

>  <Pocket>  (871) 
nan

>  <ATP_Site>  (871) 
nan

>  <Peripheral>  (871) 
nan

>  <Num_H_Atoms_ProtBoundConf>  (871) 
nan

>  <Num_Resolved_Atoms>  (871) 
nan

>  <Num_Not_Resolved_Atoms>  (871) 
nan

$$$$
CHEMBL1801374
     RDKit          3D

  0  0  0  0  0  0  0  0  0  0999 V3000
M  V30 BEGIN CTAB
M  V30 COUNTS 56 61 0 0 0
M  V30 BEGIN ATOM
M  V30 1 O 6.575152 0.180289 7.145103 0
M  V30 2 C 5.320417 0.019600 7.052225 0
M  V30 3 N 4.316603 -0.191044 8.071607 0
M  V30 4 C 3.019822 -0.338750 7.454009 0
M  V30 5 C 3.315833 -0.175290 6.000827 0
M  V30 6 N 2.696368 -0.160595 4.787485 0
M  V30 7 C 3.587366 0.038294 3.809735 0
M  V30 8 C 4.833061 0.160274 4.385210 0
M  V30 9 C 5.992835 0.377903 3.638776 0
M  V30 10 C 5.854840 0.471397 2.266687 0
M  V30 11 C 4.623976 0.354546 1.647663 0
M  V30 12 C 4.534584 0.467417 0.282904 0
M  V30 13 N 3.322170 0.363193 -0.289793 0
M  V30 14 C 2.212848 0.148107 0.482481 0
M  V30 15 C 1.027373 0.095322 -0.334819 0
M  V30 16 C -0.241357 -0.154149 -0.177641 0
M  V30 17 C -1.564969 -0.283370 -0.696523 0
M  V30 18 C -2.702297 -0.677747 -0.039946 0
M  V30 19 C -3.842887 -0.684494 -0.790709 0
M  V30 20 C -3.903294 -0.330061 -2.113519 0
M  V30 21 C -5.199340 -0.395963 -2.822270 0
M  V30 22 N -5.441644 -1.580596 -3.562058 0
M  V30 23 C -5.397214 -2.818623 -2.910511 0
M  V30 24 C -4.336514 -3.760938 -3.447561 0
M  V30 25 O -4.408912 -3.819577 -4.859907 0
M  V30 26 C -3.963790 -2.551149 -5.268098 0
M  V30 27 C -5.023036 -1.556994 -4.930816 0
M  V30 28 C -2.785572 0.068950 -2.795110 0
M  V30 29 C -1.604994 0.079027 -2.033723 0
M  V30 30 C 2.214597 0.023739 1.846043 0
M  V30 31 C 3.483713 0.134903 2.442764 0
M  V30 32 C 4.653622 0.024685 5.750732 0
M  V30 33 H 4.681563 -0.208733 9.044411 0
M  V30 34 H 2.654668 -1.384679 7.569166 0
M  V30 35 H 2.317102 0.413616 7.821125 0
M  V30 36 H 1.659349 -0.291428 4.710011 0
M  V30 37 H 6.981882 0.480106 4.061682 0
M  V30 38 H 6.706852 0.634539 1.632573 0
M  V30 39 H 5.440261 0.633418 -0.296407 0
M  V30 40 H 0.983674 0.316095 -1.412365 0
M  V30 41 H -0.287857 -0.376486 0.926929 0
M  V30 42 H -2.587824 -0.940033 0.997103 0
M  V30 43 H -4.728855 -0.999550 -0.242895 0
M  V30 44 H -6.033629 -0.322763 -2.059151 0
M  V30 45 H -5.348214 0.481648 -3.493146 0
M  V30 46 H -6.385687 -3.330101 -3.031016 0
M  V30 47 H -5.209530 -2.695515 -1.834846 0
M  V30 48 H -3.324762 -3.426767 -3.193725 0
M  V30 49 H -4.546840 -4.782792 -3.090610 0
M  V30 50 H -3.815957 -2.568565 -6.365769 0
M  V30 51 H -3.007252 -2.392685 -4.746518 0
M  V30 52 H -4.587174 -0.544119 -5.128910 0
M  V30 53 H -5.850378 -1.650867 -5.667081 0
M  V30 54 H -2.811740 0.355692 -3.830069 0
M  V30 55 H -0.744053 0.405714 -2.629427 0
M  V30 56 H 1.298547 -0.139914 2.390532 0
M  V30 END ATOM
M  V30 BEGIN BOND
M  V30 1 2 1 2
M  V30 2 1 2 3
M  V30 3 1 3 4
M  V30 4 1 4 5
M  V30 5 1 5 6
M  V30 6 1 6 7
M  V30 7 2 7 8
M  V30 8 1 8 9
M  V30 9 2 9 10
M  V30 10 1 10 11
M  V30 11 2 11 12
M  V30 12 1 12 13
M  V30 13 2 13 14
M  V30 14 1 14 15
M  V30 15 2 15 16
M  V30 16 1 16 17
M  V30 17 2 17 18
M  V30 18 1 18 19
M  V30 19 2 19 20
M  V30 20 1 20 21
M  V30 21 1 21 22
M  V30 22 1 22 23
M  V30 23 1 23 24
M  V30 24 1 24 25
M  V30 25 1 25 26
M  V30 26 1 26 27
M  V30 27 1 20 28
M  V30 28 2 28 29
M  V30 29 1 14 30
M  V30 30 2 30 31
M  V30 31 1 8 32
M  V30 32 1 32 2
M  V30 33 2 32 5
M  V30 34 1 31 7
M  V30 35 1 31 11
M  V30 36 1 29 17
M  V30 37 1 27 22
M  V30 38 1 3 33
M  V30 39 1 4 34
M  V30 40 1 4 35
M  V30 41 1 6 36
M  V30 42 1 9 37
M  V30 43 1 10 38
M  V30 44 1 12 39
M  V30 45 1 15 40
M  V30 46 1 16 41
M  V30 47 1 18 42
M  V30 48 1 19 43
M  V30 49 1 21 44
M  V30 50 1 21 45
M  V30 51 1 23 46
M  V30 52 1 23 47
M  V30 53 1 24 48
M  V30 54 1 24 49
M  V30 55 1 26 50
M  V30 56 1 26 51
M  V30 57 1 27 52
M  V30 58 1 27 53
M  V30 59 1 28 54
M  V30 60 1 29 55
M  V30 61 1 30 56
M  V30 END BOND
M  V30 END CTAB
M  END
>  <Dataset>  (872) 
ChEMBL_Kinases

>  <Ligand_Instance>  (872) 
nan

>  <PDB_ID>  (872) 
nan

>  <Standardized_SMILES>  (872) 
O=C1NCc2[nH]c3c(ccc4cnc(/C=C/c5ccc(CN6CCOCC6)cc5)cc43)c21

>  <Name>  (872) 
nan

>  <Pocket>  (872) 
nan

>  <ATP_Site>  (872) 
nan

>  <Peripheral>  (872) 
nan

>  <Num_H_Atoms_ProtBoundConf>  (872) 
nan

>  <Num_Resolved_Atoms>  (872) 
nan

>  <Num_Not_Resolved_Atoms>  (872) 
nan

$$$$
CHEMBL1801375
     RDKit          3D

  0  0  0  0  0  0  0  0  0  0999 V3000
M  V30 BEGIN CTAB
M  V30 COUNTS 59 64 0 0 0
M  V30 BEGIN ATOM
M  V30 1 O 8.509730 -3.525858 -0.199796 0
M  V30 2 C 7.389183 -3.679044 0.350856 0
M  V30 3 N 6.991413 -4.747472 1.206601 0
M  V30 4 C 5.620725 -4.603252 1.665990 0
M  V30 5 C 5.195152 -3.348490 1.018737 0
M  V30 6 N 4.125720 -2.515544 0.906025 0
M  V30 7 C 4.436232 -1.481434 0.107124 0
M  V30 8 C 5.748853 -1.640931 -0.316943 0
M  V30 9 C 6.292337 -0.689639 -1.155838 0
M  V30 10 C 5.620198 0.425757 -1.612823 0
M  V30 11 C 4.302706 0.569935 -1.176974 0
M  V30 12 C 3.525095 1.642392 -1.564893 0
M  V30 13 N 2.252326 1.774599 -1.140557 0
M  V30 14 C 1.682717 0.856700 -0.312831 0
M  V30 15 C 0.301480 1.029683 0.126036 0
M  V30 16 C -0.430713 2.041600 -0.247248 0
M  V30 17 C -1.813941 2.296915 0.138255 0
M  V30 18 C -2.497093 3.408100 -0.323901 0
M  V30 19 C -3.804231 3.679400 0.019801 0
M  V30 20 C -4.472636 2.800363 0.869456 0
M  V30 21 C -3.824170 1.663049 1.362803 0
M  V30 22 C -4.599069 0.776923 2.260514 0
M  V30 23 C -5.344523 -0.289528 1.542477 0
M  V30 24 N -4.562784 -1.203323 0.764472 0
M  V30 25 C -5.463348 -2.151269 0.075682 0
M  V30 26 C -4.960322 -3.567424 0.163377 0
M  V30 27 O -3.609174 -3.674774 -0.063381 0
M  V30 28 C -2.816934 -2.892017 0.758384 0
M  V30 29 C -3.682519 -1.975157 1.597439 0
M  V30 30 C -2.516867 1.458797 0.974651 0
M  V30 31 C 2.419830 -0.233793 0.103221 0
M  V30 32 C 3.730809 -0.378603 -0.328377 0
M  V30 33 C 6.211109 -2.808707 0.258233 0
M  V30 34 H 7.562826 -5.569397 1.510607 0
M  V30 35 H 4.998765 -5.476192 1.428753 0
M  V30 36 H 5.587122 -4.413309 2.770533 0
M  V30 37 H 3.184022 -2.632988 1.361153 0
M  V30 38 H 7.326550 -0.838181 -1.475050 0
M  V30 39 H 6.066187 1.159425 -2.270815 0
M  V30 40 H 3.936354 2.406011 -2.228432 0
M  V30 41 H -0.137042 0.299318 0.782249 0
M  V30 42 H 0.048237 2.751882 -0.907265 0
M  V30 43 H -2.007204 4.113733 -0.987116 0
M  V30 44 H -4.311717 4.557327 -0.358475 0
M  V30 45 H -5.506685 3.038282 1.125541 0
M  V30 46 H -3.893277 0.318363 2.976207 0
M  V30 47 H -5.297937 1.425759 2.843372 0
M  V30 48 H -6.162062 0.114463 0.886712 0
M  V30 49 H -5.920333 -0.853259 2.336234 0
M  V30 50 H -5.637434 -1.826976 -0.963416 0
M  V30 51 H -6.418744 -2.125314 0.636993 0
M  V30 52 H -5.481421 -4.124870 -0.650839 0
M  V30 53 H -5.307159 -4.028990 1.105391 0
M  V30 54 H -2.271326 -3.588561 1.448993 0
M  V30 55 H -2.110970 -2.333612 0.142874 0
M  V30 56 H -4.347146 -2.630380 2.233198 0
M  V30 57 H -3.105906 -1.372066 2.290923 0
M  V30 58 H -2.056796 0.570036 1.379745 0
M  V30 59 H 1.974676 -0.973394 0.764904 0
M  V30 END ATOM
M  V30 BEGIN BOND
M  V30 1 2 1 2
M  V30 2 1 2 3
M  V30 3 1 3 4
M  V30 4 1 4 5
M  V30 5 1 5 6
M  V30 6 1 6 7
M  V30 7 2 7 8
M  V30 8 1 8 9
M  V30 9 2 9 10
M  V30 10 1 10 11
M  V30 11 2 11 12
M  V30 12 1 12 13
M  V30 13 2 13 14
M  V30 14 1 14 15
M  V30 15 2 15 16
M  V30 16 1 16 17
M  V30 17 2 17 18
M  V30 18 1 18 19
M  V30 19 2 19 20
M  V30 20 1 20 21
M  V30 21 1 21 22
M  V30 22 1 22 23
M  V30 23 1 23 24
M  V30 24 1 24 25
M  V30 25 1 25 26
M  V30 26 1 26 27
M  V30 27 1 27 28
M  V30 28 1 28 29
M  V30 29 2 21 30
M  V30 30 1 14 31
M  V30 31 2 31 32
M  V30 32 1 8 33
M  V30 33 1 33 2
M  V30 34 2 33 5
M  V30 35 1 32 7
M  V30 36 1 32 11
M  V30 37 1 30 17
M  V30 38 1 29 24
M  V30 39 1 3 34
M  V30 40 1 4 35
M  V30 41 1 4 36
M  V30 42 1 6 37
M  V30 43 1 9 38
M  V30 44 1 10 39
M  V30 45 1 12 40
M  V30 46 1 15 41
M  V30 47 1 16 42
M  V30 48 1 18 43
M  V30 49 1 19 44
M  V30 50 1 20 45
M  V30 51 1 22 46
M  V30 52 1 22 47
M  V30 53 1 23 48
M  V30 54 1 23 49
M  V30 55 1 25 50
M  V30 56 1 25 51
M  V30 57 1 26 52
M  V30 58 1 26 53
M  V30 59 1 28 54
M  V30 60 1 28 55
M  V30 61 1 29 56
M  V30 62 1 29 57
M  V30 63 1 30 58
M  V30 64 1 31 59
M  V30 END BOND
M  V30 END CTAB
M  END
>  <Dataset>  (873) 
ChEMBL_Kinases

>  <Ligand_Instance>  (873) 
nan

>  <PDB_ID>  (873) 
nan

>  <Standardized_SMILES>  (873) 
O=C1NCc2[nH]c3c(ccc4cnc(/C=C/c5cccc(CCN6CCOCC6)c5)cc43)c21

>  <Name>  (873) 
nan

>  <Pocket>  (873) 
nan

>  <ATP_Site>  (873) 
nan

>  <Peripheral>  (873) 
nan

>  <Num_H_Atoms_ProtBoundConf>  (873) 
nan

>  <Num_Resolved_Atoms>  (873) 
nan

>  <Num_Not_Resolved_Atoms>  (873) 
nan

$$$$
CHEMBL1801376
     RDKit          3D

  0  0  0  0  0  0  0  0  0  0999 V3000
M  V30 BEGIN CTAB
M  V30 COUNTS 38 42 0 0 0
M  V30 BEGIN ATOM
M  V30 1 O 3.084203 -5.150505 -2.309194 0
M  V30 2 C 2.941586 -4.716057 -1.137910 0
M  V30 3 N 3.327890 -5.357324 0.086052 0
M  V30 4 C 2.992280 -4.537979 1.248186 0
M  V30 5 C 2.386021 -3.366556 0.608565 0
M  V30 6 N 1.834874 -2.188019 0.969574 0
M  V30 7 C 1.445631 -1.522122 -0.132517 0
M  V30 8 C 1.741892 -2.271581 -1.272422 0
M  V30 9 C 1.463097 -1.852736 -2.564099 0
M  V30 10 C 0.854734 -0.614737 -2.712253 0
M  V30 11 C 0.555035 0.138621 -1.604737 0
M  V30 12 C -0.051804 1.377160 -1.737034 0
M  V30 13 N -0.369131 2.158884 -0.695438 0
M  V30 14 C -0.105347 1.764520 0.560429 0
M  V30 15 N -0.338431 2.410590 1.814811 0
M  V30 16 C -1.582517 2.338076 2.516803 0
M  V30 17 C -1.699501 2.893078 3.783822 0
M  V30 18 C -2.941637 2.794736 4.410733 0
M  V30 19 C -3.989441 2.157626 3.752451 0
M  V30 20 C -3.846901 1.608308 2.480287 0
M  V30 21 F -4.919918 0.995334 1.883386 0
M  V30 22 C -2.620358 1.695788 1.842109 0
M  V30 23 C 0.507208 0.524707 0.784236 0
M  V30 24 C 0.830999 -0.275809 -0.315396 0
M  V30 25 C 2.328110 -3.416595 -0.772585 0
M  V30 26 H 3.785072 -6.275583 0.202027 0
M  V30 27 H 3.929873 -4.228062 1.712096 0
M  V30 28 H 2.302987 -5.080127 1.928718 0
M  V30 29 H 1.686567 -1.763485 1.933096 0
M  V30 30 H 1.724020 -2.499139 -3.406297 0
M  V30 31 H 0.640468 -0.293861 -3.720809 0
M  V30 32 H -0.295379 1.762377 -2.722740 0
M  V30 33 H 0.475481 2.955566 2.209464 0
M  V30 34 H -0.831709 3.376173 4.233400 0
M  V30 35 H -3.054840 3.222717 5.402416 0
M  V30 36 H -4.963710 2.064589 4.212966 0
M  V30 37 H -2.530659 1.267218 0.863457 0
M  V30 38 H 0.777976 0.083078 1.746524 0
M  V30 END ATOM
M  V30 BEGIN BOND
M  V30 1 2 1 2
M  V30 2 1 2 3
M  V30 3 1 3 4
M  V30 4 1 4 5
M  V30 5 1 5 6
M  V30 6 1 6 7
M  V30 7 2 7 8
M  V30 8 1 8 9
M  V30 9 2 9 10
M  V30 10 1 10 11
M  V30 11 2 11 12
M  V30 12 1 12 13
M  V30 13 2 13 14
M  V30 14 1 14 15
M  V30 15 1 15 16
M  V30 16 2 16 17
M  V30 17 1 17 18
M  V30 18 2 18 19
M  V30 19 1 19 20
M  V30 20 1 20 21
M  V30 21 2 20 22
M  V30 22 1 14 23
M  V30 23 2 23 24
M  V30 24 1 8 25
M  V30 25 1 25 2
M  V30 26 2 25 5
M  V30 27 1 24 7
M  V30 28 1 24 11
M  V30 29 1 22 16
M  V30 30 1 3 26
M  V30 31 1 4 27
M  V30 32 1 4 28
M  V30 33 1 6 29
M  V30 34 1 9 30
M  V30 35 1 10 31
M  V30 36 1 12 32
M  V30 37 1 15 33
M  V30 38 1 17 34
M  V30 39 1 18 35
M  V30 40 1 19 36
M  V30 41 1 22 37
M  V30 42 1 23 38
M  V30 END BOND
M  V30 END CTAB
M  END
>  <Dataset>  (874) 
ChEMBL_Kinases

>  <Ligand_Instance>  (874) 
nan

>  <PDB_ID>  (874) 
nan

>  <Standardized_SMILES>  (874) 
O=C1NCc2[nH]c3c(ccc4cnc(Nc5cccc(F)c5)cc43)c21

>  <Name>  (874) 
nan

>  <Pocket>  (874) 
nan

>  <ATP_Site>  (874) 
nan

>  <Peripheral>  (874) 
nan

>  <Num_H_Atoms_ProtBoundConf>  (874) 
nan

>  <Num_Resolved_Atoms>  (874) 
nan

>  <Num_Not_Resolved_Atoms>  (874) 
nan

$$$$
CHEMBL1801377
     RDKit          3D

  0  0  0  0  0  0  0  0  0  0999 V3000
M  V30 BEGIN CTAB
M  V30 COUNTS 40 44 0 0 0
M  V30 BEGIN ATOM
M  V30 1 C 2.074774 -7.151445 2.408333 0
M  V30 2 O 1.706235 -6.816230 1.084563 0
M  V30 3 C 1.355510 -5.527219 0.749121 0
M  V30 4 C 1.336753 -4.477166 1.666170 0
M  V30 5 C 0.976382 -3.209261 1.267600 0
M  V30 6 C 0.622407 -2.917051 -0.032279 0
M  V30 7 C 0.230050 -1.603221 -0.529626 0
M  V30 8 C 0.180755 -0.518567 0.284419 0
M  V30 9 C -0.194206 0.743092 -0.184917 0
M  V30 10 C -0.519878 0.867164 -1.518769 0
M  V30 11 C -0.897667 2.078852 -2.048411 0
M  V30 12 C -0.957696 3.203317 -1.244348 0
M  V30 13 C -0.625539 3.047657 0.088330 0
M  V30 14 C -0.587015 3.967200 1.136400 0
M  V30 15 C -0.188301 3.297834 2.276195 0
M  V30 16 N 0.019426 2.002243 1.967649 0
M  V30 17 C -0.236916 1.833984 0.664386 0
M  V30 18 C -0.137047 4.264592 3.426218 0
M  V30 19 N -0.538131 5.509072 2.823422 0
M  V30 20 C -0.820547 5.375660 1.437230 0
M  V30 21 O -1.192917 6.293309 0.651441 0
M  V30 22 C -0.460639 -0.252540 -2.321885 0
M  V30 23 N -0.095946 -1.436923 -1.824680 0
M  V30 24 C 0.655787 -3.997303 -0.912920 0
M  V30 25 C 1.007024 -5.290106 -0.578796 0
M  V30 26 H 2.633109 -8.113203 2.429824 0
M  V30 27 H 1.153543 -7.207229 3.045326 0
M  V30 28 H 2.708826 -6.376312 2.887849 0
M  V30 29 H 1.608621 -4.669197 2.695422 0
M  V30 30 H 0.963452 -2.408448 1.973161 0
M  V30 31 H 0.420509 -0.554437 1.319243 0
M  V30 32 H -1.148090 2.144732 -3.102252 0
M  V30 33 H -1.248911 4.177180 -1.614588 0
M  V30 34 H 0.329922 1.252034 2.637070 0
M  V30 35 H 0.890583 4.250723 3.800615 0
M  V30 36 H -0.879001 3.992702 4.203211 0
M  V30 37 H -0.610274 6.402728 3.352975 0
M  V30 38 H -0.715268 -0.174477 -3.382839 0
M  V30 39 H 0.376785 -3.784579 -1.954212 0
M  V30 40 H 1.007015 -6.067607 -1.319824 0
M  V30 END ATOM
M  V30 BEGIN BOND
M  V30 1 1 1 2
M  V30 2 1 2 3
M  V30 3 2 3 4
M  V30 4 1 4 5
M  V30 5 2 5 6
M  V30 6 1 6 7
M  V30 7 2 7 8
M  V30 8 1 8 9
M  V30 9 2 9 10
M  V30 10 1 10 11
M  V30 11 2 11 12
M  V30 12 1 12 13
M  V30 13 1 13 14
M  V30 14 2 14 15
M  V30 15 1 15 16
M  V30 16 1 16 17
M  V30 17 1 15 18
M  V30 18 1 18 19
M  V30 19 1 19 20
M  V30 20 2 20 21
M  V30 21 1 10 22
M  V30 22 2 22 23
M  V30 23 1 6 24
M  V30 24 2 24 25
M  V30 25 1 25 3
M  V30 26 1 23 7
M  V30 27 1 17 9
M  V30 28 2 17 13
M  V30 29 1 20 14
M  V30 30 1 1 26
M  V30 31 1 1 27
M  V30 32 1 1 28
M  V30 33 1 4 29
M  V30 34 1 5 30
M  V30 35 1 8 31
M  V30 36 1 11 32
M  V30 37 1 12 33
M  V30 38 1 16 34
M  V30 39 1 18 35
M  V30 40 1 18 36
M  V30 41 1 19 37
M  V30 42 1 22 38
M  V30 43 1 24 39
M  V30 44 1 25 40
M  V30 END BOND
M  V30 END CTAB
M  END
>  <Dataset>  (875) 
ChEMBL_Kinases

>  <Ligand_Instance>  (875) 
nan

>  <PDB_ID>  (875) 
nan

>  <Standardized_SMILES>  (875) 
COc1ccc(-c2cc3c(ccc4c5c([nH]c43)CNC5=O)cn2)cc1

>  <Name>  (875) 
nan

>  <Pocket>  (875) 
nan

>  <ATP_Site>  (875) 
nan

>  <Peripheral>  (875) 
nan

>  <Num_H_Atoms_ProtBoundConf>  (875) 
nan

>  <Num_Resolved_Atoms>  (875) 
nan

>  <Num_Not_Resolved_Atoms>  (875) 
nan

$$$$
CHEMBL1801378
     RDKit          3D

  0  0  0  0  0  0  0  0  0  0999 V3000
M  V30 BEGIN CTAB
M  V30 COUNTS 36 40 0 0 0
M  V30 BEGIN ATOM
M  V30 1 O 0.937116 -6.300540 -1.303656 0
M  V30 2 C 1.075008 -5.626570 -0.252751 0
M  V30 3 N 1.505112 -6.094578 1.024428 0
M  V30 4 C 1.550078 -5.041315 2.015848 0
M  V30 5 C 1.103629 -3.831740 1.253628 0
M  V30 6 N 0.861542 -2.508805 1.359561 0
M  V30 7 C 0.451584 -2.045204 0.155871 0
M  V30 8 C 0.424380 -3.094744 -0.764972 0
M  V30 9 C 0.033499 -2.867693 -2.079988 0
M  V30 10 C -0.336310 -1.607580 -2.510390 0
M  V30 11 C -0.301040 -0.595755 -1.588125 0
M  V30 12 C -0.650071 0.692284 -1.917504 0
M  V30 13 N -0.624313 1.704928 -1.030919 0
M  V30 14 C -0.258197 1.561872 0.254965 0
M  V30 15 C -0.277720 2.738193 1.096139 0
M  V30 16 C -0.669562 3.931944 0.530087 0
M  V30 17 C -0.721717 5.107642 1.246207 0
M  V30 18 C -0.380283 5.149019 2.581307 0
M  V30 19 C 0.017229 3.974442 3.183916 0
M  V30 20 C 0.052190 2.826941 2.424132 0
M  V30 21 F 0.449159 1.711500 3.070664 0
M  V30 22 C 0.089141 0.275268 0.579006 0
M  V30 23 C 0.082122 -0.793782 -0.279974 0
M  V30 24 C 0.836724 -4.203278 -0.054226 0
M  V30 25 H 1.768729 -7.086342 1.258555 0
M  V30 26 H 2.579111 -4.841057 2.374116 0
M  V30 27 H 0.931098 -5.236288 2.903621 0
M  V30 28 H 0.982254 -1.978636 2.232977 0
M  V30 29 H 0.028437 -3.712400 -2.756878 0
M  V30 30 H -0.640315 -1.422948 -3.526876 0
M  V30 31 H -0.968038 0.945684 -2.933727 0
M  V30 32 H -0.964156 4.018625 -0.526596 0
M  V30 33 H -1.030417 6.025242 0.782469 0
M  V30 34 H -0.405770 6.047018 3.183033 0
M  V30 35 H 0.289882 3.974390 4.224300 0
M  V30 36 H 0.393553 0.077392 1.586735 0
M  V30 END ATOM
M  V30 BEGIN BOND
M  V30 1 2 1 2
M  V30 2 1 2 3
M  V30 3 1 3 4
M  V30 4 1 4 5
M  V30 5 1 5 6
M  V30 6 1 6 7
M  V30 7 2 7 8
M  V30 8 1 8 9
M  V30 9 2 9 10
M  V30 10 1 10 11
M  V30 11 2 11 12
M  V30 12 1 12 13
M  V30 13 2 13 14
M  V30 14 1 14 15
M  V30 15 2 15 16
M  V30 16 1 16 17
M  V30 17 2 17 18
M  V30 18 1 18 19
M  V30 19 2 19 20
M  V30 20 1 20 21
M  V30 21 1 14 22
M  V30 22 2 22 23
M  V30 23 1 8 24
M  V30 24 1 24 2
M  V30 25 2 24 5
M  V30 26 1 23 7
M  V30 27 1 23 11
M  V30 28 1 20 15
M  V30 29 1 3 25
M  V30 30 1 4 26
M  V30 31 1 4 27
M  V30 32 1 6 28
M  V30 33 1 9 29
M  V30 34 1 10 30
M  V30 35 1 12 31
M  V30 36 1 16 32
M  V30 37 1 17 33
M  V30 38 1 18 34
M  V30 39 1 19 35
M  V30 40 1 22 36
M  V30 END BOND
M  V30 END CTAB
M  END
>  <Dataset>  (876) 
ChEMBL_Kinases

>  <Ligand_Instance>  (876) 
nan

>  <PDB_ID>  (876) 
nan

>  <Standardized_SMILES>  (876) 
O=C1NCc2[nH]c3c(ccc4cnc(-c5ccccc5F)cc43)c21

>  <Name>  (876) 
nan

>  <Pocket>  (876) 
nan

>  <ATP_Site>  (876) 
nan

>  <Peripheral>  (876) 
nan

>  <Num_H_Atoms_ProtBoundConf>  (876) 
nan

>  <Num_Resolved_Atoms>  (876) 
nan

>  <Num_Not_Resolved_Atoms>  (876) 
nan

$$$$
CHEMBL1801379
     RDKit          3D

  0  0  0  0  0  0  0  0  0  0999 V3000
M  V30 BEGIN CTAB
M  V30 COUNTS 39 43 0 0 0
M  V30 BEGIN ATOM
M  V30 1 O 3.557643 -3.850942 -3.594665 0
M  V30 2 C 3.510492 -3.761667 -2.346334 0
M  V30 3 N 4.290495 -4.477910 -1.388857 0
M  V30 4 C 3.939640 -4.092939 -0.038598 0
M  V30 5 C 2.869482 -3.069223 -0.184401 0
M  V30 6 N 2.069114 -2.274581 0.529486 0
M  V30 7 C 1.322689 -1.588223 -0.359440 0
M  V30 8 C 1.650900 -1.949790 -1.666214 0
M  V30 9 C 1.005920 -1.367848 -2.750883 0
M  V30 10 C 0.011255 -0.404913 -2.563599 0
M  V30 11 C -0.253466 -0.103973 -1.245199 0
M  V30 12 C -1.226283 0.839843 -1.006263 0
M  V30 13 N -1.559747 1.204245 0.236226 0
M  V30 14 C -1.023751 0.728592 1.364138 0
M  V30 15 C -1.380461 1.120819 2.721460 0
M  V30 16 C -0.767465 0.522902 3.801062 0
M  V30 17 C -1.068194 0.845865 5.106287 0
M  V30 18 C -2.015858 1.801531 5.378166 0
M  V30 19 C -2.611536 2.382274 4.285403 0
M  V30 20 C -2.337340 2.085784 2.942241 0
M  V30 21 C -3.053473 2.811130 1.868531 0
M  V30 22 F -2.191449 3.546591 1.060745 0
M  V30 23 F -3.888954 1.984996 1.128087 0
M  V30 24 F -3.879090 3.757479 2.488071 0
M  V30 25 C -0.052381 -0.213974 1.120473 0
M  V30 26 C 0.345685 -0.640684 -0.127234 0
M  V30 27 C 2.643927 -2.899977 -1.536747 0
M  V30 28 H 5.028353 -5.193748 -1.569533 0
M  V30 29 H 4.853830 -3.670451 0.427294 0
M  V30 30 H 3.528081 -4.911262 0.554648 0
M  V30 31 H 2.045902 -2.215491 1.574027 0
M  V30 32 H 1.263148 -1.650408 -3.752095 0
M  V30 33 H -0.524408 0.081908 -3.364788 0
M  V30 34 H -1.753904 1.318339 -1.824833 0
M  V30 35 H -0.007212 -0.241717 3.739812 0
M  V30 36 H -0.592979 0.382744 5.968217 0
M  V30 37 H -2.294194 2.096743 6.376464 0
M  V30 38 H -3.367447 3.144579 4.505045 0
M  V30 39 H 0.500001 -0.717445 1.889910 0
M  V30 END ATOM
M  V30 BEGIN BOND
M  V30 1 2 1 2
M  V30 2 1 2 3
M  V30 3 1 3 4
M  V30 4 1 4 5
M  V30 5 1 5 6
M  V30 6 1 6 7
M  V30 7 2 7 8
M  V30 8 1 8 9
M  V30 9 2 9 10
M  V30 10 1 10 11
M  V30 11 2 11 12
M  V30 12 1 12 13
M  V30 13 2 13 14
M  V30 14 1 14 15
M  V30 15 2 15 16
M  V30 16 1 16 17
M  V30 17 2 17 18
M  V30 18 1 18 19
M  V30 19 2 19 20
M  V30 20 1 20 21
M  V30 21 1 21 22
M  V30 22 1 21 23
M  V30 23 1 21 24
M  V30 24 1 14 25
M  V30 25 2 25 26
M  V30 26 1 8 27
M  V30 27 1 27 2
M  V30 28 2 27 5
M  V30 29 1 26 7
M  V30 30 1 26 11
M  V30 31 1 20 15
M  V30 32 1 3 28
M  V30 33 1 4 29
M  V30 34 1 4 30
M  V30 35 1 6 31
M  V30 36 1 9 32
M  V30 37 1 10 33
M  V30 38 1 12 34
M  V30 39 1 16 35
M  V30 40 1 17 36
M  V30 41 1 18 37
M  V30 42 1 19 38
M  V30 43 1 25 39
M  V30 END BOND
M  V30 END CTAB
M  END
>  <Dataset>  (877) 
ChEMBL_Kinases

>  <Ligand_Instance>  (877) 
nan

>  <PDB_ID>  (877) 
nan

>  <Standardized_SMILES>  (877) 
O=C1NCc2[nH]c3c(ccc4cnc(-c5ccccc5C(F)(F)F)cc43)c21

>  <Name>  (877) 
nan

>  <Pocket>  (877) 
nan

>  <ATP_Site>  (877) 
nan

>  <Peripheral>  (877) 
nan

>  <Num_H_Atoms_ProtBoundConf>  (877) 
nan

>  <Num_Resolved_Atoms>  (877) 
nan

>  <Num_Not_Resolved_Atoms>  (877) 
nan

$$$$
CHEMBL1801389
     RDKit          3D

  0  0  0  0  0  0  0  0  0  0999 V3000
M  V30 BEGIN CTAB
M  V30 COUNTS 41 45 0 0 0
M  V30 BEGIN ATOM
M  V30 1 C 3.267095 -7.159542 2.194092 0
M  V30 2 O 2.774760 -6.702532 0.969734 0
M  V30 3 C 2.236265 -5.452402 0.722793 0
M  V30 4 C 2.089800 -4.435515 1.640975 0
M  V30 5 C 1.534123 -3.220540 1.276910 0
M  V30 6 C 1.115372 -3.006996 -0.019445 0
M  V30 7 C 0.517211 -1.765997 -0.508653 0
M  V30 8 C 0.304735 -0.659329 0.286937 0
M  V30 9 C -0.252078 0.518988 -0.134832 0
M  V30 10 C -0.639119 0.635112 -1.451341 0
M  V30 11 C -1.205833 1.799361 -1.931593 0
M  V30 12 C -1.392715 2.872531 -1.086548 0
M  V30 13 C -1.002437 2.742962 0.222806 0
M  V30 14 C -1.083202 3.670639 1.263309 0
M  V30 15 C -0.545773 3.008333 2.361867 0
M  V30 16 N -0.152651 1.750748 2.039969 0
M  V30 17 C -0.433828 1.594279 0.732993 0
M  V30 18 C -0.581642 3.920184 3.551589 0
M  V30 19 C -1.730720 4.859429 3.171841 0
M  V30 20 C -1.475698 5.013508 1.711783 0
M  V30 21 O -1.540788 5.986362 0.932180 0
M  V30 22 C -0.424949 -0.472743 -2.242143 0
M  V30 23 N 0.124666 -1.618783 -1.801026 0
M  V30 24 C 1.270865 -4.037765 -0.923191 0
M  V30 25 C 1.822161 -5.262158 -0.589652 0
M  V30 26 F 1.933861 -6.223696 -1.560681 0
M  V30 27 H 4.361911 -7.374321 2.168981 0
M  V30 28 H 2.770040 -8.151812 2.376782 0
M  V30 29 H 3.043644 -6.531752 3.065128 0
M  V30 30 H 2.426766 -4.632360 2.647727 0
M  V30 31 H 1.415826 -2.418916 1.989834 0
M  V30 32 H 0.584661 -0.685712 1.322959 0
M  V30 33 H -1.493054 1.836039 -2.980614 0
M  V30 34 H -1.837315 3.800958 -1.441411 0
M  V30 35 H 0.279155 1.056412 2.686522 0
M  V30 36 H 0.369375 4.457777 3.545457 0
M  V30 37 H -0.781784 3.396804 4.489652 0
M  V30 38 H -1.658808 5.814474 3.731488 0
M  V30 39 H -2.688681 4.311049 3.380969 0
M  V30 40 H -0.714590 -0.436542 -3.301150 0
M  V30 41 H 0.946209 -3.892583 -1.957916 0
M  V30 END ATOM
M  V30 BEGIN BOND
M  V30 1 1 1 2
M  V30 2 1 2 3
M  V30 3 2 3 4
M  V30 4 1 4 5
M  V30 5 2 5 6
M  V30 6 1 6 7
M  V30 7 2 7 8
M  V30 8 1 8 9
M  V30 9 2 9 10
M  V30 10 1 10 11
M  V30 11 2 11 12
M  V30 12 1 12 13
M  V30 13 1 13 14
M  V30 14 2 14 15
M  V30 15 1 15 16
M  V30 16 1 16 17
M  V30 17 1 15 18
M  V30 18 1 18 19
M  V30 19 1 19 20
M  V30 20 2 20 21
M  V30 21 1 10 22
M  V30 22 2 22 23
M  V30 23 1 6 24
M  V30 24 2 24 25
M  V30 25 1 25 26
M  V30 26 1 25 3
M  V30 27 1 23 7
M  V30 28 1 17 9
M  V30 29 2 17 13
M  V30 30 1 20 14
M  V30 31 1 1 27
M  V30 32 1 1 28
M  V30 33 1 1 29
M  V30 34 1 4 30
M  V30 35 1 5 31
M  V30 36 1 8 32
M  V30 37 1 11 33
M  V30 38 1 12 34
M  V30 39 1 16 35
M  V30 40 1 18 36
M  V30 41 1 18 37
M  V30 42 1 19 38
M  V30 43 1 19 39
M  V30 44 1 22 40
M  V30 45 1 24 41
M  V30 END BOND
M  V30 END CTAB
M  END
>  <Dataset>  (878) 
ChEMBL_Kinases

>  <Ligand_Instance>  (878) 
nan

>  <PDB_ID>  (878) 
nan

>  <Standardized_SMILES>  (878) 
COc1ccc(-c2cc3c(ccc4c5c([nH]c43)CCC5=O)cn2)cc1F

>  <Name>  (878) 
nan

>  <Pocket>  (878) 
nan

>  <ATP_Site>  (878) 
nan

>  <Peripheral>  (878) 
nan

>  <Num_H_Atoms_ProtBoundConf>  (878) 
nan

>  <Num_Resolved_Atoms>  (878) 
nan

>  <Num_Not_Resolved_Atoms>  (878) 
nan

$$$$
CHEMBL1801381
     RDKit          3D

  0  0  0  0  0  0  0  0  0  0999 V3000
M  V30 BEGIN CTAB
M  V30 COUNTS 55 60 0 0 0
M  V30 BEGIN ATOM
M  V30 1 O 7.115178 2.956482 5.332022 0
M  V30 2 C 6.792005 1.805935 4.902668 0
M  V30 3 N 7.506798 0.582653 4.961040 0
M  V30 4 C 6.765069 -0.476086 4.353199 0
M  V30 5 C 5.496568 0.183340 3.890088 0
M  V30 6 N 4.350403 -0.131033 3.257644 0
M  V30 7 C 3.607357 0.982659 3.158276 0
M  V30 8 C 4.322622 2.008911 3.748604 0
M  V30 9 C 3.835633 3.297292 3.813718 0
M  V30 10 C 2.600257 3.606501 3.283410 0
M  V30 11 C 1.928799 2.549697 2.707463 0
M  V30 12 C 0.677742 2.820963 2.159552 0
M  V30 13 N -0.036246 1.839625 1.579409 0
M  V30 14 C 0.391299 0.568598 1.489190 0
M  V30 15 C -0.438121 -0.438274 0.843403 0
M  V30 16 C -0.038782 -1.751811 0.730871 0
M  V30 17 N -0.782873 -2.703297 0.138491 0
M  V30 18 C -1.990279 -2.365155 -0.379024 0
M  V30 19 C -2.521682 -1.099167 -0.343490 0
M  V30 20 O -3.624573 -0.497559 -0.749093 0
M  V30 21 C -4.805236 -0.627343 -1.373019 0
M  V30 22 C -4.792469 -1.067545 -2.815707 0
M  V30 23 N -4.215615 -2.363340 -2.928829 0
M  V30 24 C -5.050983 -3.399332 -2.341385 0
M  V30 25 C -4.625490 -4.769633 -2.765287 0
M  V30 26 O -3.349588 -4.823773 -3.271053 0
M  V30 27 C -3.077239 -3.956448 -4.299345 0
M  V30 28 C -3.992365 -2.754848 -4.309318 0
M  V30 29 C -1.694031 -0.147257 0.290712 0
M  V30 30 C 1.617727 0.255003 2.015120 0
M  V30 31 C 2.366189 1.244663 2.614035 0
M  V30 32 C 5.528558 1.533850 4.224137 0
M  V30 33 H 8.443128 0.541583 5.404440 0
M  V30 34 H 7.245513 -0.876504 3.442038 0
M  V30 35 H 6.545201 -1.310893 5.039918 0
M  V30 36 H 4.046962 -1.059539 2.890395 0
M  V30 37 H 4.402668 4.096881 4.277267 0
M  V30 38 H 2.146266 4.584808 3.290652 0
M  V30 39 H 0.210771 3.794851 2.161622 0
M  V30 40 H 0.898155 -2.118195 1.106752 0
M  V30 41 H -2.615340 -3.094382 -0.851348 0
M  V30 42 H -5.454747 -1.355218 -0.765058 0
M  V30 43 H -5.444452 0.312647 -1.307344 0
M  V30 44 H -4.148364 -0.319054 -3.358534 0
M  V30 45 H -5.818544 -1.077743 -3.252379 0
M  V30 46 H -6.120730 -3.274541 -2.602815 0
M  V30 47 H -4.960399 -3.304303 -1.245965 0
M  V30 48 H -5.309643 -5.228029 -3.509301 0
M  V30 49 H -4.655376 -5.435541 -1.872458 0
M  V30 50 H -3.021101 -4.451956 -5.290873 0
M  V30 51 H -2.035977 -3.564645 -4.102149 0
M  V30 52 H -4.909899 -2.938884 -4.867623 0
M  V30 53 H -3.482973 -1.906964 -4.812592 0
M  V30 54 H -1.922183 0.916126 0.427381 0
M  V30 55 H 2.039515 -0.735714 1.987720 0
M  V30 END ATOM
M  V30 BEGIN BOND
M  V30 1 2 1 2
M  V30 2 1 2 3
M  V30 3 1 3 4
M  V30 4 1 4 5
M  V30 5 1 5 6
M  V30 6 1 6 7
M  V30 7 2 7 8
M  V30 8 1 8 9
M  V30 9 2 9 10
M  V30 10 1 10 11
M  V30 11 2 11 12
M  V30 12 1 12 13
M  V30 13 2 13 14
M  V30 14 1 14 15
M  V30 15 2 15 16
M  V30 16 1 16 17
M  V30 17 2 17 18
M  V30 18 1 18 19
M  V30 19 1 19 20
M  V30 20 1 20 21
M  V30 21 1 21 22
M  V30 22 1 22 23
M  V30 23 1 23 24
M  V30 24 1 24 25
M  V30 25 1 25 26
M  V30 26 1 26 27
M  V30 27 1 27 28
M  V30 28 2 19 29
M  V30 29 1 14 30
M  V30 30 2 30 31
M  V30 31 1 8 32
M  V30 32 1 32 2
M  V30 33 2 32 5
M  V30 34 1 31 7
M  V30 35 1 31 11
M  V30 36 1 29 15
M  V30 37 1 28 23
M  V30 38 1 3 33
M  V30 39 1 4 34
M  V30 40 1 4 35
M  V30 41 1 6 36
M  V30 42 1 9 37
M  V30 43 1 10 38
M  V30 44 1 12 39
M  V30 45 1 16 40
M  V30 46 1 18 41
M  V30 47 1 21 42
M  V30 48 1 21 43
M  V30 49 1 22 44
M  V30 50 1 22 45
M  V30 51 1 24 46
M  V30 52 1 24 47
M  V30 53 1 25 48
M  V30 54 1 25 49
M  V30 55 1 27 50
M  V30 56 1 27 51
M  V30 57 1 28 52
M  V30 58 1 28 53
M  V30 59 1 29 54
M  V30 60 1 30 55
M  V30 END BOND
M  V30 END CTAB
M  END
>  <Dataset>  (879) 
ChEMBL_Kinases

>  <Ligand_Instance>  (879) 
nan

>  <PDB_ID>  (879) 
nan

>  <Standardized_SMILES>  (879) 
O=C1NCc2[nH]c3c(ccc4cnc(-c5cncc(OCCN6CCOCC6)c5)cc43)c21

>  <Name>  (879) 
nan

>  <Pocket>  (879) 
nan

>  <ATP_Site>  (879) 
nan

>  <Peripheral>  (879) 
nan

>  <Num_H_Atoms_ProtBoundConf>  (879) 
nan

>  <Num_Resolved_Atoms>  (879) 
nan

>  <Num_Not_Resolved_Atoms>  (879) 
nan

$$$$
CHEMBL1801382
     RDKit          3D

  0  0  0  0  0  0  0  0  0  0999 V3000
M  V30 BEGIN CTAB
M  V30 COUNTS 46 50 0 0 0
M  V30 BEGIN ATOM
M  V30 1 C 1.158249 -7.552244 0.760972 0
M  V30 2 O 1.770277 -6.287033 0.567972 0
M  V30 3 C 2.563234 -6.045804 1.710350 0
M  V30 4 C 3.315939 -4.766074 1.593763 0
M  V30 5 O 2.593966 -3.598103 1.437605 0
M  V30 6 C 1.736833 -3.055324 2.338597 0
M  V30 7 C 1.409530 -3.499261 3.588617 0
M  V30 8 N 0.547227 -2.895807 4.412389 0
M  V30 9 C -0.107117 -1.741834 4.057744 0
M  V30 10 C 0.187337 -1.225672 2.774235 0
M  V30 11 C -0.524291 0.011377 2.420181 0
M  V30 12 C -0.322791 0.634427 1.228810 0
M  V30 13 C -1.008401 1.817311 0.948247 0
M  V30 14 C -1.877044 2.360799 1.852240 0
M  V30 15 C -2.571229 3.509121 1.619270 0
M  V30 16 C -2.357928 4.120469 0.396171 0
M  V30 17 C -1.461425 3.550155 -0.522058 0
M  V30 18 C -1.146765 4.090804 -1.830189 0
M  V30 19 C -0.234185 3.077985 -2.181696 0
M  V30 20 N 0.017618 2.087758 -1.327065 0
M  V30 21 C -0.763058 2.390397 -0.278220 0
M  V30 22 C 0.316837 3.357693 -3.554968 0
M  V30 23 N -0.414044 4.546191 -3.857309 0
M  V30 24 C -1.317143 5.143764 -2.951345 0
M  V30 25 O -2.149932 5.887013 -2.385507 0
M  V30 26 C -2.056620 1.683391 3.074659 0
M  V30 27 N -1.376350 0.536938 3.316531 0
M  V30 28 C 1.085186 -1.895398 1.979823 0
M  V30 29 H 1.953808 -8.344100 0.867410 0
M  V30 30 H 0.605772 -7.496110 1.723197 0
M  V30 31 H 0.532066 -7.708948 -0.130745 0
M  V30 32 H 3.308672 -6.890930 1.733228 0
M  V30 33 H 1.969709 -6.125589 2.616941 0
M  V30 34 H 3.998143 -4.728730 2.516136 0
M  V30 35 H 4.063333 -4.841805 0.751376 0
M  V30 36 H 1.823678 -4.378408 4.039489 0
M  V30 37 H -0.797775 -1.281144 4.750123 0
M  V30 38 H 0.358201 0.240877 0.473288 0
M  V30 39 H -3.261284 3.961010 2.300051 0
M  V30 40 H -2.884014 5.054244 0.140672 0
M  V30 41 H 0.650759 1.282022 -1.440849 0
M  V30 42 H 0.125192 2.519225 -4.258825 0
M  V30 43 H 1.412337 3.546867 -3.482875 0
M  V30 44 H -0.502438 5.226070 -4.691183 0
M  V30 45 H -2.757218 2.138276 3.788379 0
M  V30 46 H 1.275446 -1.462337 1.002264 0
M  V30 END ATOM
M  V30 BEGIN BOND
M  V30 1 1 1 2
M  V30 2 1 2 3
M  V30 3 1 3 4
M  V30 4 1 4 5
M  V30 5 1 5 6
M  V30 6 2 6 7
M  V30 7 1 7 8
M  V30 8 2 8 9
M  V30 9 1 9 10
M  V30 10 1 10 11
M  V30 11 2 11 12
M  V30 12 1 12 13
M  V30 13 2 13 14
M  V30 14 1 14 15
M  V30 15 2 15 16
M  V30 16 1 16 17
M  V30 17 1 17 18
M  V30 18 2 18 19
M  V30 19 1 19 20
M  V30 20 1 20 21
M  V30 21 1 19 22
M  V30 22 1 22 23
M  V30 23 1 23 24
M  V30 24 2 24 25
M  V30 25 1 14 26
M  V30 26 2 26 27
M  V30 27 2 10 28
M  V30 28 1 28 6
M  V30 29 1 27 11
M  V30 30 1 21 13
M  V30 31 2 21 17
M  V30 32 1 24 18
M  V30 33 1 1 29
M  V30 34 1 1 30
M  V30 35 1 1 31
M  V30 36 1 3 32
M  V30 37 1 3 33
M  V30 38 1 4 34
M  V30 39 1 4 35
M  V30 40 1 7 36
M  V30 41 1 9 37
M  V30 42 1 12 38
M  V30 43 1 15 39
M  V30 44 1 16 40
M  V30 45 1 20 41
M  V30 46 1 22 42
M  V30 47 1 22 43
M  V30 48 1 23 44
M  V30 49 1 26 45
M  V30 50 1 28 46
M  V30 END BOND
M  V30 END CTAB
M  END
>  <Dataset>  (880) 
ChEMBL_Kinases

>  <Ligand_Instance>  (880) 
nan

>  <PDB_ID>  (880) 
nan

>  <Standardized_SMILES>  (880) 
COCCOc1cncc(-c2cc3c(ccc4c5c([nH]c43)CNC5=O)cn2)c1

>  <Name>  (880) 
nan

>  <Pocket>  (880) 
nan

>  <ATP_Site>  (880) 
nan

>  <Peripheral>  (880) 
nan

>  <Num_H_Atoms_ProtBoundConf>  (880) 
nan

>  <Num_Resolved_Atoms>  (880) 
nan

>  <Num_Not_Resolved_Atoms>  (880) 
nan

$$$$
CHEMBL1801383
     RDKit          3D

  0  0  0  0  0  0  0  0  0  0999 V3000
M  V30 BEGIN CTAB
M  V30 COUNTS 43 47 0 0 0
M  V30 BEGIN ATOM
M  V30 1 C 2.283320 -7.103398 -2.531628 0
M  V30 2 N 1.864212 -5.784934 -2.042699 0
M  V30 3 C 1.973299 -5.364771 -0.657788 0
M  V30 4 C 1.421188 -3.983679 -0.719049 0
M  V30 5 N 1.154906 -2.903392 0.071672 0
M  V30 6 C 0.620489 -1.909376 -0.666379 0
M  V30 7 C 0.531193 -2.341082 -1.973520 0
M  V30 8 C 0.014127 -1.528488 -2.982972 0
M  V30 9 C -0.418168 -0.257898 -2.656132 0
M  V30 10 C -0.314533 0.141448 -1.340461 0
M  V30 11 C -0.762335 1.433506 -1.049743 0
M  V30 12 N -0.676607 1.864276 0.237398 0
M  V30 13 C -0.178110 1.082562 1.213965 0
M  V30 14 C -0.114572 1.608278 2.576675 0
M  V30 15 C -0.536019 2.829638 2.860795 0
M  V30 16 C -0.531705 3.472600 4.155700 0
M  V30 17 C -1.002322 4.768093 4.337983 0
M  V30 18 C -0.983687 5.351613 5.587764 0
M  V30 19 C -0.509314 4.707721 6.714692 0
M  V30 20 C -0.040035 3.421843 6.544645 0
M  V30 21 C -0.064110 2.852676 5.295769 0
M  V30 22 C 0.278085 -0.200233 0.984112 0
M  V30 23 C 0.192938 -0.640723 -0.319338 0
M  V30 24 C 1.030430 -3.627980 -1.993633 0
M  V30 25 C 1.304471 -4.769762 -2.867019 0
M  V30 26 O 1.103586 -4.880268 -4.103278 0
M  V30 27 H 2.226995 -7.825141 -1.700453 0
M  V30 28 H 3.329126 -7.066692 -2.905829 0
M  V30 29 H 1.619482 -7.372429 -3.368735 0
M  V30 30 H 3.060939 -5.356629 -0.405397 0
M  V30 31 H 1.385828 -5.999718 0.028770 0
M  V30 32 H 1.332298 -2.838739 1.098086 0
M  V30 33 H -0.045392 -1.889013 -3.998367 0
M  V30 34 H -0.819593 0.393708 -3.398659 0
M  V30 35 H -1.171519 2.106810 -1.788757 0
M  V30 36 H 0.271648 1.033291 3.394056 0
M  V30 37 H -0.924497 3.396625 2.016068 0
M  V30 38 H -1.374112 5.275066 3.459305 0
M  V30 39 H -1.359483 6.361841 5.685278 0
M  V30 40 H -0.533665 5.236521 7.638396 0
M  V30 41 H 0.340717 2.890762 7.420819 0
M  V30 42 H 0.323582 1.843542 5.260631 0
M  V30 43 H 0.671886 -0.807456 1.776046 0
M  V30 END ATOM
M  V30 BEGIN BOND
M  V30 1 1 1 2
M  V30 2 1 2 3
M  V30 3 1 3 4
M  V30 4 1 4 5
M  V30 5 1 5 6
M  V30 6 2 6 7
M  V30 7 1 7 8
M  V30 8 2 8 9
M  V30 9 1 9 10
M  V30 10 2 10 11
M  V30 11 1 11 12
M  V30 12 2 12 13
M  V30 13 1 13 14
M  V30 14 2 14 15
M  V30 15 1 15 16
M  V30 16 2 16 17
M  V30 17 1 17 18
M  V30 18 2 18 19
M  V30 19 1 19 20
M  V30 20 2 20 21
M  V30 21 1 13 22
M  V30 22 2 22 23
M  V30 23 1 7 24
M  V30 24 1 24 25
M  V30 25 2 25 26
M  V30 26 1 25 2
M  V30 27 2 24 4
M  V30 28 1 23 6
M  V30 29 1 23 10
M  V30 30 1 21 16
M  V30 31 1 1 27
M  V30 32 1 1 28
M  V30 33 1 1 29
M  V30 34 1 3 30
M  V30 35 1 3 31
M  V30 36 1 5 32
M  V30 37 1 8 33
M  V30 38 1 9 34
M  V30 39 1 11 35
M  V30 40 1 14 36
M  V30 41 1 15 37
M  V30 42 1 17 38
M  V30 43 1 18 39
M  V30 44 1 19 40
M  V30 45 1 20 41
M  V30 46 1 21 42
M  V30 47 1 22 43
M  V30 END BOND
M  V30 END CTAB
M  END
>  <Dataset>  (881) 
ChEMBL_Kinases

>  <Ligand_Instance>  (881) 
nan

>  <PDB_ID>  (881) 
nan

>  <Standardized_SMILES>  (881) 
CN1Cc2[nH]c3c(ccc4cnc(/C=C/c5ccccc5)cc43)c2C1=O

>  <Name>  (881) 
nan

>  <Pocket>  (881) 
nan

>  <ATP_Site>  (881) 
nan

>  <Peripheral>  (881) 
nan

>  <Num_H_Atoms_ProtBoundConf>  (881) 
nan

>  <Num_Resolved_Atoms>  (881) 
nan

>  <Num_Not_Resolved_Atoms>  (881) 
nan

$$$$
CHEMBL1801384
     RDKit          3D

  0  0  0  0  0  0  0  0  0  0999 V3000
M  V30 BEGIN CTAB
M  V30 COUNTS 59 64 0 0 0
M  V30 BEGIN ATOM
M  V30 1 O 4.970306 6.783293 2.032636 0
M  V30 2 C 3.937259 6.513420 2.753997 0
M  V30 3 N 3.665896 7.297562 3.940104 0
M  V30 4 C 2.993181 6.582468 5.001609 0
M  V30 5 C 1.687111 6.054709 4.464764 0
M  V30 6 C 1.962418 5.236875 3.231018 0
M  V30 7 N 1.265449 4.178586 2.699751 0
M  V30 8 C 1.944707 3.785029 1.579172 0
M  V30 9 C 3.075675 4.552078 1.343327 0
M  V30 10 C 3.883257 4.272961 0.273139 0
M  V30 11 C 3.638338 3.250557 -0.617088 0
M  V30 12 C 2.490307 2.486185 -0.362773 0
M  V30 13 C 2.328521 1.463186 -1.303305 0
M  V30 14 N 1.263358 0.726954 -1.068598 0
M  V30 15 C 0.386145 0.855048 -0.084849 0
M  V30 16 C -0.796897 0.139694 0.379093 0
M  V30 17 C -0.713397 -1.015487 -0.458777 0
M  V30 18 C -1.453790 -2.277565 -0.708759 0
M  V30 19 C -1.063976 -3.270612 -1.585128 0
M  V30 20 C -1.829764 -4.387837 -1.743734 0
M  V30 21 C -3.005973 -4.562619 -1.031592 0
M  V30 22 C -3.627901 -5.859363 -1.363025 0
M  V30 23 N -3.200868 -6.936766 -0.542258 0
M  V30 24 C -3.679226 -8.239519 -0.941027 0
M  V30 25 C -2.693185 -8.813339 -1.943109 0
M  V30 26 O -1.442732 -8.892829 -1.430036 0
M  V30 27 C -0.921607 -7.746348 -0.918349 0
M  V30 28 C -1.868390 -6.956332 -0.050304 0
M  V30 29 C -3.355534 -3.579424 -0.187024 0
M  V30 30 C -2.652288 -2.424040 0.029670 0
M  V30 31 C 0.566555 1.893524 0.848555 0
M  V30 32 C 1.674211 2.749993 0.705115 0
M  V30 33 C 3.025308 5.425666 2.395692 0
M  V30 34 H 3.950539 8.294086 4.003222 0
M  V30 35 H 3.588890 5.690108 5.275754 0
M  V30 36 H 2.792584 7.189542 5.891220 0
M  V30 37 H 0.963227 6.817533 4.202480 0
M  V30 38 H 1.186290 5.392146 5.221332 0
M  V30 39 H 0.391491 3.774574 3.090265 0
M  V30 40 H 4.752461 4.911373 0.160600 0
M  V30 41 H 4.330493 3.053312 -1.450421 0
M  V30 42 H 2.986363 1.254523 -2.136218 0
M  V30 43 H -1.568683 -0.544856 0.523405 0
M  V30 44 H 0.154460 -1.118422 -1.217775 0
M  V30 45 H -0.143339 -3.106007 -2.127437 0
M  V30 46 H -1.378493 -5.057151 -2.454417 0
M  V30 47 H -3.489740 -6.153420 -2.442596 0
M  V30 48 H -4.758601 -5.763423 -1.282496 0
M  V30 49 H -4.673153 -8.105261 -1.372230 0
M  V30 50 H -3.670993 -8.902618 -0.055003 0
M  V30 51 H -3.071910 -9.820936 -2.221231 0
M  V30 52 H -2.774478 -8.187856 -2.854097 0
M  V30 53 H -0.536297 -7.091109 -1.702550 0
M  V30 54 H -0.045730 -7.992658 -0.265803 0
M  V30 55 H -1.468035 -5.951484 0.124739 0
M  V30 56 H -1.854910 -7.465036 0.960603 0
M  V30 57 H -4.283247 -3.762124 0.334794 0
M  V30 58 H -3.100821 -1.789918 0.752518 0
M  V30 59 H -0.061973 2.134434 1.712981 0
M  V30 END ATOM
M  V30 BEGIN BOND
M  V30 1 2 1 2
M  V30 2 1 2 3
M  V30 3 1 3 4
M  V30 4 1 4 5
M  V30 5 1 5 6
M  V30 6 1 6 7
M  V30 7 1 7 8
M  V30 8 2 8 9
M  V30 9 1 9 10
M  V30 10 2 10 11
M  V30 11 1 11 12
M  V30 12 2 12 13
M  V30 13 1 13 14
M  V30 14 2 14 15
M  V30 15 1 15 16
M  V30 16 2 16 17
M  V30 17 1 17 18
M  V30 18 2 18 19
M  V30 19 1 19 20
M  V30 20 2 20 21
M  V30 21 1 21 22
M  V30 22 1 22 23
M  V30 23 1 23 24
M  V30 24 1 24 25
M  V30 25 1 25 26
M  V30 26 1 26 27
M  V30 27 1 27 28
M  V30 28 1 21 29
M  V30 29 2 29 30
M  V30 30 1 15 31
M  V30 31 2 31 32
M  V30 32 1 9 33
M  V30 33 1 33 2
M  V30 34 2 33 6
M  V30 35 1 32 8
M  V30 36 1 32 12
M  V30 37 1 30 18
M  V30 38 1 28 23
M  V30 39 1 3 34
M  V30 40 1 4 35
M  V30 41 1 4 36
M  V30 42 1 5 37
M  V30 43 1 5 38
M  V30 44 1 7 39
M  V30 45 1 10 40
M  V30 46 1 11 41
M  V30 47 1 13 42
M  V30 48 1 16 43
M  V30 49 1 17 44
M  V30 50 1 19 45
M  V30 51 1 20 46
M  V30 52 1 22 47
M  V30 53 1 22 48
M  V30 54 1 24 49
M  V30 55 1 24 50
M  V30 56 1 25 51
M  V30 57 1 25 52
M  V30 58 1 27 53
M  V30 59 1 27 54
M  V30 60 1 28 55
M  V30 61 1 28 56
M  V30 62 1 29 57
M  V30 63 1 30 58
M  V30 64 1 31 59
M  V30 END BOND
M  V30 END CTAB
M  END
>  <Dataset>  (882) 
ChEMBL_Kinases

>  <Ligand_Instance>  (882) 
nan

>  <PDB_ID>  (882) 
nan

>  <Standardized_SMILES>  (882) 
O=C1NCCc2[nH]c3c(ccc4cnc(/C=C/c5ccc(CN6CCOCC6)cc5)cc43)c21

>  <Name>  (882) 
nan

>  <Pocket>  (882) 
nan

>  <ATP_Site>  (882) 
nan

>  <Peripheral>  (882) 
nan

>  <Num_H_Atoms_ProtBoundConf>  (882) 
nan

>  <Num_Resolved_Atoms>  (882) 
nan

>  <Num_Not_Resolved_Atoms>  (882) 
nan

$$$$
CHEMBL1801385
     RDKit          3D

  0  0  0  0  0  0  0  0  0  0999 V3000
M  V30 BEGIN CTAB
M  V30 COUNTS 62 67 0 0 0
M  V30 BEGIN ATOM
M  V30 1 O 5.593239 -0.243801 1.939071 0
M  V30 2 C 4.655869 -0.222078 2.757255 0
M  V30 3 N 4.659348 -0.901535 4.025301 0
M  V30 4 C 3.864830 -0.454646 5.172037 0
M  V30 5 C 2.482608 -0.059054 4.810664 0
M  V30 6 C 2.352196 0.510810 3.470128 0
M  V30 7 N 1.339378 1.173419 2.901873 0
M  V30 8 C 1.670142 1.585190 1.657154 0
M  V30 9 C 2.991346 1.180392 1.375383 0
M  V30 10 C 3.604347 1.499896 0.154156 0
M  V30 11 C 2.900661 2.238489 -0.811955 0
M  V30 12 C 1.585900 2.650222 -0.556522 0
M  V30 13 C 0.930084 3.311330 -1.580864 0
M  V30 14 N -0.378593 3.617877 -1.323569 0
M  V30 15 C -0.893309 3.244644 -0.106272 0
M  V30 16 C -2.379685 3.470838 -0.222401 0
M  V30 17 C -2.990434 2.314102 -0.223381 0
M  V30 18 C -3.745790 1.031228 -0.230361 0
M  V30 19 C -5.023508 0.651914 0.095631 0
M  V30 20 C -5.415682 -0.599690 -0.254899 0
M  V30 21 C -4.635939 -1.489746 -0.903063 0
M  V30 22 C -3.364393 -1.332806 -1.321373 0
M  V30 23 C -2.232389 -1.976861 -2.048019 0
M  V30 24 C -1.290669 -2.740456 -1.165049 0
M  V30 25 N -1.891702 -3.907124 -0.621675 0
M  V30 26 C -2.109457 -4.932617 -1.642416 0
M  V30 27 C -0.752047 -5.458580 -2.129874 0
M  V30 28 O -0.076377 -5.978501 -1.047841 0
M  V30 29 C 0.129621 -5.120726 0.027487 0
M  V30 30 C -1.188699 -4.502298 0.507980 0
M  V30 31 C -3.038308 -0.048433 -0.928893 0
M  V30 32 C -0.275995 2.599150 0.939562 0
M  V30 33 C 1.037642 2.300824 0.664387 0
M  V30 34 C 3.363704 0.506302 2.549952 0
M  V30 35 H 5.287600 -1.749546 4.097912 0
M  V30 36 H 4.422343 0.450895 5.568333 0
M  V30 37 H 3.802203 -1.233932 5.961462 0
M  V30 38 H 2.259500 0.843637 5.503583 0
M  V30 39 H 1.657607 -0.758198 5.093367 0
M  V30 40 H 0.381923 1.364245 3.357166 0
M  V30 41 H 4.615845 1.173000 0.004688 0
M  V30 42 H 3.464108 2.436415 -1.724196 0
M  V30 43 H 1.462233 3.534700 -2.473367 0
M  V30 44 H -3.374709 3.833781 -0.298700 0
M  V30 45 H -2.188100 1.700502 0.295569 0
M  V30 46 H -5.504916 1.456904 0.600800 0
M  V30 47 H -6.449470 -0.840865 0.020019 0
M  V30 48 H -4.946876 -2.485370 -1.193752 0
M  V30 49 H -2.653797 -2.632629 -2.836089 0
M  V30 50 H -1.578961 -1.204218 -2.545106 0
M  V30 51 H -0.952030 -2.085331 -0.306725 0
M  V30 52 H -0.315650 -2.949052 -1.676191 0
M  V30 53 H -2.634565 -5.784491 -1.179055 0
M  V30 54 H -2.604740 -4.501485 -2.502431 0
M  V30 55 H -0.171368 -4.643387 -2.594894 0
M  V30 56 H -0.918792 -6.283569 -2.840957 0
M  V30 57 H 0.836072 -4.326126 -0.235397 0
M  V30 58 H 0.476160 -5.772828 0.870886 0
M  V30 59 H -1.858574 -5.255396 0.944244 0
M  V30 60 H -0.914932 -3.745193 1.245440 0
M  V30 61 H -1.994412 0.284066 -1.216935 0
M  V30 62 H -0.882821 2.433558 1.814441 0
M  V30 END ATOM
M  V30 BEGIN BOND
M  V30 1 2 1 2
M  V30 2 1 2 3
M  V30 3 1 3 4
M  V30 4 1 4 5
M  V30 5 1 5 6
M  V30 6 1 6 7
M  V30 7 1 7 8
M  V30 8 2 8 9
M  V30 9 1 9 10
M  V30 10 2 10 11
M  V30 11 1 11 12
M  V30 12 2 12 13
M  V30 13 1 13 14
M  V30 14 2 14 15
M  V30 15 1 15 16
M  V30 16 2 16 17
M  V30 17 1 17 18
M  V30 18 2 18 19
M  V30 19 1 19 20
M  V30 20 2 20 21
M  V30 21 1 21 22
M  V30 22 1 22 23
M  V30 23 1 23 24
M  V30 24 1 24 25
M  V30 25 1 25 26
M  V30 26 1 26 27
M  V30 27 1 27 28
M  V30 28 1 28 29
M  V30 29 1 29 30
M  V30 30 2 22 31
M  V30 31 1 15 32
M  V30 32 2 32 33
M  V30 33 1 9 34
M  V30 34 1 34 2
M  V30 35 2 34 6
M  V30 36 1 33 8
M  V30 37 1 33 12
M  V30 38 1 31 18
M  V30 39 1 30 25
M  V30 40 1 3 35
M  V30 41 1 4 36
M  V30 42 1 4 37
M  V30 43 1 5 38
M  V30 44 1 5 39
M  V30 45 1 7 40
M  V30 46 1 10 41
M  V30 47 1 11 42
M  V30 48 1 13 43
M  V30 49 1 16 44
M  V30 50 1 17 45
M  V30 51 1 19 46
M  V30 52 1 20 47
M  V30 53 1 21 48
M  V30 54 1 23 49
M  V30 55 1 23 50
M  V30 56 1 24 51
M  V30 57 1 24 52
M  V30 58 1 26 53
M  V30 59 1 26 54
M  V30 60 1 27 55
M  V30 61 1 27 56
M  V30 62 1 29 57
M  V30 63 1 29 58
M  V30 64 1 30 59
M  V30 65 1 30 60
M  V30 66 1 31 61
M  V30 67 1 32 62
M  V30 END BOND
M  V30 END CTAB
M  END
>  <Dataset>  (883) 
ChEMBL_Kinases

>  <Ligand_Instance>  (883) 
nan

>  <PDB_ID>  (883) 
nan

>  <Standardized_SMILES>  (883) 
O=C1NCCc2[nH]c3c(ccc4cnc(/C=C/c5cccc(CCN6CCOCC6)c5)cc43)c21

>  <Name>  (883) 
nan

>  <Pocket>  (883) 
nan

>  <ATP_Site>  (883) 
nan

>  <Peripheral>  (883) 
nan

>  <Num_H_Atoms_ProtBoundConf>  (883) 
nan

>  <Num_Resolved_Atoms>  (883) 
nan

>  <Num_Not_Resolved_Atoms>  (883) 
nan

$$$$
CHEMBL1801386
     RDKit          3D

  0  0  0  0  0  0  0  0  0  0999 V3000
M  V30 BEGIN CTAB
M  V30 COUNTS 43 47 0 0 0
M  V30 BEGIN ATOM
M  V30 1 C 1.033463 -8.349298 0.021731 0
M  V30 2 O 0.346221 -7.334777 0.717410 0
M  V30 3 C 0.621701 -6.018042 0.458648 0
M  V30 4 C 1.548042 -5.550719 -0.457657 0
M  V30 5 C 1.754129 -4.179545 -0.646726 0
M  V30 6 C 1.020379 -3.276244 0.093930 0
M  V30 7 C 1.281340 -1.859909 -0.149162 0
M  V30 8 C 0.649147 -0.821884 0.492054 0
M  V30 9 C 0.945498 0.496661 0.212643 0
M  V30 10 C 1.897129 0.826773 -0.730373 0
M  V30 11 C 2.191542 2.145573 -1.007842 0
M  V30 12 C 1.512136 3.130935 -0.320256 0
M  V30 13 C 0.569817 2.795823 0.613436 0
M  V30 14 C -0.229498 3.591348 1.418112 0
M  V30 15 C -1.002602 2.736214 2.177341 0
M  V30 16 N -0.691057 1.446825 1.852207 0
M  V30 17 C 0.263036 1.490653 0.903371 0
M  V30 18 C -2.018758 3.134170 3.193246 0
M  V30 19 C -1.854488 4.561729 3.615095 0
M  V30 20 N -1.383481 5.427965 2.587823 0
M  V30 21 C -0.420115 5.025803 1.624568 0
M  V30 22 O 0.294116 5.779261 0.922731 0
M  V30 23 C 2.515903 -0.231770 -1.358477 0
M  V30 24 N 2.207425 -1.528945 -1.066748 0
M  V30 25 C 0.088191 -3.702390 1.016534 0
M  V30 26 C -0.089943 -5.054319 1.178012 0
M  V30 27 F -1.019094 -5.471177 2.097711 0
M  V30 28 H 1.069872 -8.056274 -1.055165 0
M  V30 29 H 0.511550 -9.328485 0.133803 0
M  V30 30 H 2.073474 -8.472112 0.374130 0
M  V30 31 H 2.105161 -6.295295 -1.020707 0
M  V30 32 H 2.504851 -3.886885 -1.390328 0
M  V30 33 H -0.087544 -1.049252 1.222404 0
M  V30 34 H 2.948861 2.375425 -1.758682 0
M  V30 35 H 1.742155 4.159980 -0.537044 0
M  V30 36 H -1.089094 0.543447 2.237653 0
M  V30 37 H -2.010492 2.439899 4.057850 0
M  V30 38 H -3.023475 3.033609 2.725421 0
M  V30 39 H -1.084380 4.570225 4.425016 0
M  V30 40 H -2.783811 4.965196 4.052946 0
M  V30 41 H -1.727752 6.428264 2.483711 0
M  V30 42 H 3.275323 -0.003076 -2.111439 0
M  V30 43 H -0.479911 -3.014759 1.589856 0
M  V30 END ATOM
M  V30 BEGIN BOND
M  V30 1 1 1 2
M  V30 2 1 2 3
M  V30 3 2 3 4
M  V30 4 1 4 5
M  V30 5 2 5 6
M  V30 6 1 6 7
M  V30 7 2 7 8
M  V30 8 1 8 9
M  V30 9 2 9 10
M  V30 10 1 10 11
M  V30 11 2 11 12
M  V30 12 1 12 13
M  V30 13 1 13 14
M  V30 14 2 14 15
M  V30 15 1 15 16
M  V30 16 1 16 17
M  V30 17 1 15 18
M  V30 18 1 18 19
M  V30 19 1 19 20
M  V30 20 1 20 21
M  V30 21 2 21 22
M  V30 22 1 10 23
M  V30 23 2 23 24
M  V30 24 1 6 25
M  V30 25 2 25 26
M  V30 26 1 26 27
M  V30 27 1 26 3
M  V30 28 1 24 7
M  V30 29 1 17 9
M  V30 30 2 17 13
M  V30 31 1 21 14
M  V30 32 1 1 28
M  V30 33 1 1 29
M  V30 34 1 1 30
M  V30 35 1 4 31
M  V30 36 1 5 32
M  V30 37 1 8 33
M  V30 38 1 11 34
M  V30 39 1 12 35
M  V30 40 1 16 36
M  V30 41 1 18 37
M  V30 42 1 18 38
M  V30 43 1 19 39
M  V30 44 1 19 40
M  V30 45 1 20 41
M  V30 46 1 23 42
M  V30 47 1 25 43
M  V30 END BOND
M  V30 END CTAB
M  END
>  <Dataset>  (884) 
ChEMBL_Kinases

>  <Ligand_Instance>  (884) 
nan

>  <PDB_ID>  (884) 
nan

>  <Standardized_SMILES>  (884) 
COc1ccc(-c2cc3c(ccc4c5c([nH]c43)CCNC5=O)cn2)cc1F

>  <Name>  (884) 
nan

>  <Pocket>  (884) 
nan

>  <ATP_Site>  (884) 
nan

>  <Peripheral>  (884) 
nan

>  <Num_H_Atoms_ProtBoundConf>  (884) 
nan

>  <Num_Resolved_Atoms>  (884) 
nan

>  <Num_Not_Resolved_Atoms>  (884) 
nan

$$$$
CHEMBL1801387
     RDKit          3D

  0  0  0  0  0  0  0  0  0  0999 V3000
M  V30 BEGIN CTAB
M  V30 COUNTS 59 64 0 0 0
M  V30 BEGIN ATOM
M  V30 1 O 7.232465 0.251504 -0.073283 0
M  V30 2 C 6.352898 -0.561507 0.263824 0
M  V30 3 N 6.651639 -1.906166 0.635611 0
M  V30 4 C 5.708427 -2.745501 1.303695 0
M  V30 5 C 4.273186 -2.456828 1.052935 0
M  V30 6 C 3.980049 -1.071472 0.668265 0
M  V30 7 N 2.780462 -0.471376 0.615267 0
M  V30 8 C 2.966358 0.797133 0.214916 0
M  V30 9 C 4.327747 1.037777 -0.001486 0
M  V30 10 C 4.747352 2.284842 -0.420134 0
M  V30 11 C 3.831530 3.297650 -0.627062 0
M  V30 12 C 2.481333 3.052116 -0.410406 0
M  V30 13 C 1.500117 4.005232 -0.592660 0
M  V30 14 N 0.191649 3.764121 -0.381885 0
M  V30 15 C -0.256778 2.559617 0.027063 0
M  V30 16 C -1.689249 2.398057 0.226804 0
M  V30 17 C -2.515808 3.474546 -0.009260 0
M  V30 18 C -3.874383 3.293667 0.188290 0
M  V30 19 C -4.360889 2.047865 0.613384 0
M  V30 20 C -3.497331 0.963487 0.847673 0
M  V30 21 O -4.280070 -0.081100 1.244523 0
M  V30 22 C -3.917301 -1.380380 1.583007 0
M  V30 23 C -3.276331 -2.200419 0.520157 0
M  V30 24 N -2.939420 -3.543825 0.982537 0
M  V30 25 C -2.320803 -4.294212 -0.088109 0
M  V30 26 C -3.327447 -5.234292 -0.745418 0
M  V30 27 O -3.666040 -6.251252 0.132133 0
M  V30 28 C -3.737933 -5.756142 1.439080 0
M  V30 29 C -4.103404 -4.267126 1.425836 0
M  V30 30 C -2.162965 1.178220 0.643021 0
M  V30 31 C 0.701519 1.589089 0.216977 0
M  V30 32 C 2.046041 1.810480 0.008285 0
M  V30 33 C 4.947694 -0.162870 0.293107 0
M  V30 34 H 7.604337 -2.260881 0.396454 0
M  V30 35 H 5.925603 -3.811104 1.006187 0
M  V30 36 H 5.944065 -2.706383 2.401031 0
M  V30 37 H 3.705316 -2.663379 2.007047 0
M  V30 38 H 3.854841 -3.139005 0.284684 0
M  V30 39 H 1.829101 -0.887591 0.840954 0
M  V30 40 H 5.795017 2.448698 -0.580183 0
M  V30 41 H 4.139785 4.300539 -0.960635 0
M  V30 42 H 1.796510 5.001265 -0.922957 0
M  V30 43 H -2.106485 4.421690 -0.336799 0
M  V30 44 H -4.466873 4.174777 -0.013557 0
M  V30 45 H -5.440583 2.120155 0.705617 0
M  V30 46 H -3.295218 -1.420479 2.518130 0
M  V30 47 H -4.881671 -1.917448 1.850928 0
M  V30 48 H -2.331083 -1.769648 0.167087 0
M  V30 49 H -3.915640 -2.275699 -0.403688 0
M  V30 50 H -2.020575 -3.570031 -0.900058 0
M  V30 51 H -1.394601 -4.814505 0.212949 0
M  V30 52 H -2.865545 -5.581270 -1.681965 0
M  V30 53 H -4.201535 -4.615463 -0.998830 0
M  V30 54 H -4.496810 -6.359725 1.981974 0
M  V30 55 H -2.771844 -5.915459 1.950036 0
M  V30 56 H -4.997511 -4.127061 0.819638 0
M  V30 57 H -4.338089 -4.007799 2.477871 0
M  V30 58 H -1.584467 0.310624 0.852760 0
M  V30 59 H 0.388511 0.629307 0.538187 0
M  V30 END ATOM
M  V30 BEGIN BOND
M  V30 1 2 1 2
M  V30 2 1 2 3
M  V30 3 1 3 4
M  V30 4 1 4 5
M  V30 5 1 5 6
M  V30 6 1 6 7
M  V30 7 1 7 8
M  V30 8 2 8 9
M  V30 9 1 9 10
M  V30 10 2 10 11
M  V30 11 1 11 12
M  V30 12 2 12 13
M  V30 13 1 13 14
M  V30 14 2 14 15
M  V30 15 1 15 16
M  V30 16 2 16 17
M  V30 17 1 17 18
M  V30 18 2 18 19
M  V30 19 1 19 20
M  V30 20 1 20 21
M  V30 21 1 21 22
M  V30 22 1 22 23
M  V30 23 1 23 24
M  V30 24 1 24 25
M  V30 25 1 25 26
M  V30 26 1 26 27
M  V30 27 1 27 28
M  V30 28 1 28 29
M  V30 29 2 20 30
M  V30 30 1 15 31
M  V30 31 2 31 32
M  V30 32 1 9 33
M  V30 33 1 33 2
M  V30 34 2 33 6
M  V30 35 1 32 8
M  V30 36 1 32 12
M  V30 37 1 30 16
M  V30 38 1 29 24
M  V30 39 1 3 34
M  V30 40 1 4 35
M  V30 41 1 4 36
M  V30 42 1 5 37
M  V30 43 1 5 38
M  V30 44 1 7 39
M  V30 45 1 10 40
M  V30 46 1 11 41
M  V30 47 1 13 42
M  V30 48 1 17 43
M  V30 49 1 18 44
M  V30 50 1 19 45
M  V30 51 1 22 46
M  V30 52 1 22 47
M  V30 53 1 23 48
M  V30 54 1 23 49
M  V30 55 1 25 50
M  V30 56 1 25 51
M  V30 57 1 26 52
M  V30 58 1 26 53
M  V30 59 1 28 54
M  V30 60 1 28 55
M  V30 61 1 29 56
M  V30 62 1 29 57
M  V30 63 1 30 58
M  V30 64 1 31 59
M  V30 END BOND
M  V30 END CTAB
M  END
>  <Dataset>  (885) 
ChEMBL_Kinases

>  <Ligand_Instance>  (885) 
nan

>  <PDB_ID>  (885) 
nan

>  <Standardized_SMILES>  (885) 
O=C1NCCc2[nH]c3c(ccc4cnc(-c5cccc(OCCN6CCOCC6)c5)cc43)c21

>  <Name>  (885) 
nan

>  <Pocket>  (885) 
nan

>  <ATP_Site>  (885) 
nan

>  <Peripheral>  (885) 
nan

>  <Num_H_Atoms_ProtBoundConf>  (885) 
nan

>  <Num_Resolved_Atoms>  (885) 
nan

>  <Num_Not_Resolved_Atoms>  (885) 
nan

$$$$
CHEMBL1801388
     RDKit          3D

  0  0  0  0  0  0  0  0  0  0999 V3000
M  V30 BEGIN CTAB
M  V30 COUNTS 58 63 0 0 0
M  V30 BEGIN ATOM
M  V30 1 O 7.033454 -1.357881 -0.734120 0
M  V30 2 C 6.013371 -1.992091 -0.362780 0
M  V30 3 N 5.998076 -3.391811 -0.107038 0
M  V30 4 C 4.992940 -3.998350 0.749507 0
M  V30 5 C 3.613539 -3.475964 0.513817 0
M  V30 6 C 3.609700 -2.019308 0.248266 0
M  V30 7 N 2.594565 -1.119357 0.339418 0
M  V30 8 C 3.029460 0.105959 0.007489 0
M  V30 9 C 4.375920 0.043103 -0.319124 0
M  V30 10 C 5.067939 1.183440 -0.699873 0
M  V30 11 C 4.455481 2.428854 -0.772224 0
M  V30 12 C 3.113048 2.463680 -0.441740 0
M  V30 13 C 2.458405 3.694323 -0.501977 0
M  V30 14 N 1.151280 3.732714 -0.182041 0
M  V30 15 C 0.443838 2.650107 0.191718 0
M  V30 16 C -0.961536 2.883734 0.497507 0
M  V30 17 C -1.489228 4.146525 0.397906 0
M  V30 18 N -2.804525 4.353071 0.683576 0
M  V30 19 C -3.589311 3.313817 1.064884 0
M  V30 20 C -3.091706 2.007484 1.179576 0
M  V30 21 O -4.078912 1.157103 1.576478 0
M  V30 22 C -4.084615 -0.194341 1.816899 0
M  V30 23 C -3.746473 -1.113040 0.702556 0
M  V30 24 N -3.773890 -2.520523 1.040829 0
M  V30 25 C -5.050519 -3.058948 1.323564 0
M  V30 26 C -5.569837 -4.102433 0.401830 0
M  V30 27 O -4.631045 -4.721459 -0.386461 0
M  V30 28 C -3.345340 -4.691671 0.147162 0
M  V30 29 C -2.935606 -3.251023 0.148605 0
M  V30 30 C -1.761032 1.834030 0.884555 0
M  V30 31 C 1.065539 1.422915 0.259670 0
M  V30 32 C 2.411517 1.340161 -0.061658 0
M  V30 33 C 4.716872 -1.304224 -0.159901 0
M  V30 34 H 6.756953 -3.968894 -0.574137 0
M  V30 35 H 4.955353 -5.094086 0.614641 0
M  V30 36 H 5.278748 -3.729695 1.802647 0
M  V30 37 H 3.050934 -3.591236 1.486852 0
M  V30 38 H 3.014689 -4.034926 -0.219719 0
M  V30 39 H 1.607930 -1.320148 0.622912 0
M  V30 40 H 6.112770 0.998582 -0.928706 0
M  V30 41 H 5.047698 3.276572 -1.074809 0
M  V30 42 H 3.000487 4.576105 -0.798447 0
M  V30 43 H -0.866323 4.992945 0.091435 0
M  V30 44 H -4.599542 3.669299 1.249019 0
M  V30 45 H -5.059918 -0.483441 2.306272 0
M  V30 46 H -3.332659 -0.395729 2.636684 0
M  V30 47 H -4.538346 -0.951922 -0.090344 0
M  V30 48 H -2.800237 -0.934878 0.182033 0
M  V30 49 H -5.010591 -3.453400 2.380776 0
M  V30 50 H -5.799249 -2.229616 1.366100 0
M  V30 51 H -6.063255 -4.910529 1.004930 0
M  V30 52 H -6.386056 -3.726712 -0.258236 0
M  V30 53 H -3.283230 -5.159348 1.131667 0
M  V30 54 H -2.727680 -5.315213 -0.560726 0
M  V30 55 H -1.866046 -3.192299 0.407832 0
M  V30 56 H -3.045227 -2.874037 -0.892768 0
M  V30 57 H -1.441736 0.811186 0.997280 0
M  V30 58 H 0.507770 0.554974 0.557197 0
M  V30 END ATOM
M  V30 BEGIN BOND
M  V30 1 2 1 2
M  V30 2 1 2 3
M  V30 3 1 3 4
M  V30 4 1 4 5
M  V30 5 1 5 6
M  V30 6 1 6 7
M  V30 7 1 7 8
M  V30 8 2 8 9
M  V30 9 1 9 10
M  V30 10 2 10 11
M  V30 11 1 11 12
M  V30 12 2 12 13
M  V30 13 1 13 14
M  V30 14 2 14 15
M  V30 15 1 15 16
M  V30 16 2 16 17
M  V30 17 1 17 18
M  V30 18 2 18 19
M  V30 19 1 19 20
M  V30 20 1 20 21
M  V30 21 1 21 22
M  V30 22 1 22 23
M  V30 23 1 23 24
M  V30 24 1 24 25
M  V30 25 1 25 26
M  V30 26 1 26 27
M  V30 27 1 27 28
M  V30 28 1 28 29
M  V30 29 2 20 30
M  V30 30 1 15 31
M  V30 31 2 31 32
M  V30 32 1 9 33
M  V30 33 1 33 2
M  V30 34 2 33 6
M  V30 35 1 32 8
M  V30 36 1 32 12
M  V30 37 1 30 16
M  V30 38 1 29 24
M  V30 39 1 3 34
M  V30 40 1 4 35
M  V30 41 1 4 36
M  V30 42 1 5 37
M  V30 43 1 5 38
M  V30 44 1 7 39
M  V30 45 1 10 40
M  V30 46 1 11 41
M  V30 47 1 13 42
M  V30 48 1 17 43
M  V30 49 1 19 44
M  V30 50 1 22 45
M  V30 51 1 22 46
M  V30 52 1 23 47
M  V30 53 1 23 48
M  V30 54 1 25 49
M  V30 55 1 25 50
M  V30 56 1 26 51
M  V30 57 1 26 52
M  V30 58 1 28 53
M  V30 59 1 28 54
M  V30 60 1 29 55
M  V30 61 1 29 56
M  V30 62 1 30 57
M  V30 63 1 31 58
M  V30 END BOND
M  V30 END CTAB
M  END
>  <Dataset>  (886) 
ChEMBL_Kinases

>  <Ligand_Instance>  (886) 
nan

>  <PDB_ID>  (886) 
nan

>  <Standardized_SMILES>  (886) 
O=C1NCCc2[nH]c3c(ccc4cnc(-c5cncc(OCCN6CCOCC6)c5)cc43)c21

>  <Name>  (886) 
nan

>  <Pocket>  (886) 
nan

>  <ATP_Site>  (886) 
nan

>  <Peripheral>  (886) 
nan

>  <Num_H_Atoms_ProtBoundConf>  (886) 
nan

>  <Num_Resolved_Atoms>  (886) 
nan

>  <Num_Not_Resolved_Atoms>  (886) 
nan

$$$$
CHEMBL1801380
     RDKit          3D

  0  0  0  0  0  0  0  0  0  0999 V3000
M  V30 BEGIN CTAB
M  V30 COUNTS 56 61 0 0 0
M  V30 BEGIN ATOM
M  V30 1 O 6.853481 4.592462 4.044331 0
M  V30 2 C 6.661121 3.355033 3.927001 0
M  V30 3 N 7.558390 2.279261 4.255351 0
M  V30 4 C 6.971231 0.990097 3.985170 0
M  V30 5 C 5.630978 1.354235 3.446887 0
M  V30 6 N 4.503583 0.803884 2.969111 0
M  V30 7 C 3.601138 1.746887 2.631259 0
M  V30 8 C 4.177044 2.968333 2.905620 0
M  V30 9 C 3.443540 4.105722 2.643484 0
M  V30 10 C 2.159562 3.992211 2.116323 0
M  V30 11 C 1.617938 2.751168 1.855042 0
M  V30 12 C 0.351808 2.596840 1.331091 0
M  V30 13 N -0.194904 1.375699 1.065803 0
M  V30 14 C 0.502681 0.243082 1.313186 0
M  V30 15 C -0.050930 -1.079902 1.033563 0
M  V30 16 C 0.598476 -2.275812 1.258235 0
M  V30 17 C 0.027444 -3.496298 0.967298 0
M  V30 18 C -1.250291 -3.494784 0.428843 0
M  V30 19 C -1.935511 -2.303179 0.189089 0
M  V30 20 O -3.179911 -2.573313 -0.346619 0
M  V30 21 C -4.146299 -1.630102 -0.712034 0
M  V30 22 C -5.339944 -2.395639 -1.254963 0
M  V30 23 N -4.951810 -3.154693 -2.371350 0
M  V30 24 C -4.602918 -2.511068 -3.575072 0
M  V30 25 C -3.574306 -3.422468 -4.264124 0
M  V30 26 O -4.151675 -4.629638 -4.544821 0
M  V30 27 C -5.314217 -4.930753 -3.886655 0
M  V30 28 C -5.227239 -4.539071 -2.404970 0
M  V30 29 C -1.321106 -1.130176 0.496228 0
M  V30 30 C 1.771075 0.370313 1.837547 0
M  V30 31 C 2.331563 1.601328 2.108787 0
M  V30 32 C 5.448479 2.725655 3.416436 0
M  V30 33 H 8.526240 2.375202 4.644275 0
M  V30 34 H 7.466289 0.397175 3.218534 0
M  V30 35 H 6.900482 0.426316 4.954636 0
M  V30 36 H 4.340198 -0.240961 2.868989 0
M  V30 37 H 3.894780 5.076481 2.858833 0
M  V30 38 H 1.574654 4.901367 1.907176 0
M  V30 39 H -0.259663 3.449782 1.109821 0
M  V30 40 H 1.591872 -2.249897 1.678210 0
M  V30 41 H 0.599372 -4.390000 1.171813 0
M  V30 42 H -1.609740 -4.517917 0.235593 0
M  V30 43 H -4.443499 -0.970344 0.133404 0
M  V30 44 H -3.751719 -1.005238 -1.533121 0
M  V30 45 H -5.749312 -3.031151 -0.424963 0
M  V30 46 H -6.163824 -1.661260 -1.505797 0
M  V30 47 H -5.500410 -2.401583 -4.230168 0
M  V30 48 H -4.219526 -1.508874 -3.414327 0
M  V30 49 H -2.788811 -3.605833 -3.496168 0
M  V30 50 H -3.100661 -2.902239 -5.117825 0
M  V30 51 H -5.424016 -6.052085 -3.956493 0
M  V30 52 H -6.234933 -4.525342 -4.306004 0
M  V30 53 H -6.119595 -4.868990 -1.876071 0
M  V30 54 H -4.332613 -5.073723 -2.000943 0
M  V30 55 H -1.949554 -0.263485 0.267063 0
M  V30 56 H 2.409023 -0.448582 2.071302 0
M  V30 END ATOM
M  V30 BEGIN BOND
M  V30 1 2 1 2
M  V30 2 1 2 3
M  V30 3 1 3 4
M  V30 4 1 4 5
M  V30 5 1 5 6
M  V30 6 1 6 7
M  V30 7 2 7 8
M  V30 8 1 8 9
M  V30 9 2 9 10
M  V30 10 1 10 11
M  V30 11 2 11 12
M  V30 12 1 12 13
M  V30 13 2 13 14
M  V30 14 1 14 15
M  V30 15 2 15 16
M  V30 16 1 16 17
M  V30 17 2 17 18
M  V30 18 1 18 19
M  V30 19 1 19 20
M  V30 20 1 20 21
M  V30 21 1 21 22
M  V30 22 1 22 23
M  V30 23 1 23 24
M  V30 24 1 24 25
M  V30 25 1 25 26
M  V30 26 1 26 27
M  V30 27 1 27 28
M  V30 28 2 19 29
M  V30 29 1 14 30
M  V30 30 2 30 31
M  V30 31 1 8 32
M  V30 32 1 32 2
M  V30 33 2 32 5
M  V30 34 1 31 7
M  V30 35 1 31 11
M  V30 36 1 29 15
M  V30 37 1 28 23
M  V30 38 1 3 33
M  V30 39 1 4 34
M  V30 40 1 4 35
M  V30 41 1 6 36
M  V30 42 1 9 37
M  V30 43 1 10 38
M  V30 44 1 12 39
M  V30 45 1 16 40
M  V30 46 1 17 41
M  V30 47 1 18 42
M  V30 48 1 21 43
M  V30 49 1 21 44
M  V30 50 1 22 45
M  V30 51 1 22 46
M  V30 52 1 24 47
M  V30 53 1 24 48
M  V30 54 1 25 49
M  V30 55 1 25 50
M  V30 56 1 27 51
M  V30 57 1 27 52
M  V30 58 1 28 53
M  V30 59 1 28 54
M  V30 60 1 29 55
M  V30 61 1 30 56
M  V30 END BOND
M  V30 END CTAB
M  END
>  <Dataset>  (887) 
ChEMBL_Kinases

>  <Ligand_Instance>  (887) 
nan

>  <PDB_ID>  (887) 
nan

>  <Standardized_SMILES>  (887) 
O=C1NCc2[nH]c3c(ccc4cnc(-c5cccc(OCCN6CCOCC6)c5)cc43)c21

>  <Name>  (887) 
nan

>  <Pocket>  (887) 
nan

>  <ATP_Site>  (887) 
nan

>  <Peripheral>  (887) 
nan

>  <Num_H_Atoms_ProtBoundConf>  (887) 
nan

>  <Num_Resolved_Atoms>  (887) 
nan

>  <Num_Not_Resolved_Atoms>  (887) 
nan

$$$$
CHEMBL182282
     RDKit          3D

  0  0  0  0  0  0  0  0  0  0999 V3000
M  V30 BEGIN CTAB
M  V30 COUNTS 43 45 0 0 0
M  V30 BEGIN ATOM
M  V30 1 N 2.026435 -3.862725 -0.547407 0
M  V30 2 C 1.471224 -3.072482 0.073125 0
M  V30 3 C 0.787935 -2.103392 0.864345 0
M  V30 4 C 1.362311 -0.913480 1.254543 0
M  V30 5 C 2.750359 -0.589898 0.851001 0
M  V30 6 N 3.634316 -1.683817 0.874644 0
M  V30 7 C 2.823791 0.159343 -0.443805 0
M  V30 8 C 2.265584 -0.519002 -1.612815 0
M  V30 9 C 2.913235 -1.358897 -2.501738 0
M  V30 10 C 2.269279 -1.941988 -3.574007 0
M  V30 11 C 0.934556 -1.711445 -3.811534 0
M  V30 12 C 0.232835 -0.883110 -2.961113 0
M  V30 13 C 0.907254 -0.316758 -1.899247 0
M  V30 14 C 0.619041 -0.048112 2.016997 0
M  V30 15 C -0.664266 -0.239485 2.445222 0
M  V30 16 C -1.499756 0.624379 3.244868 0
M  V30 17 C -2.774857 0.185553 3.539613 0
M  V30 18 C -3.659679 0.927311 4.295189 0
M  V30 19 C -3.306596 2.160230 4.798918 0
M  V30 20 C -2.039408 2.624219 4.520689 0
M  V30 21 C -1.185380 1.855024 3.763363 0
M  V30 22 O 0.045932 2.385565 3.534975 0
M  V30 23 N -1.175705 -1.413920 2.037201 0
M  V30 24 C -0.506479 -2.310458 1.288866 0
M  V30 25 N -1.188488 -3.508135 0.938839 0
M  V30 26 H 3.129281 0.128121 1.632682 0
M  V30 27 H 4.078549 -2.027742 0.047493 0
M  V30 28 H 3.916950 -2.051405 1.786994 0
M  V30 29 H 3.889703 0.456509 -0.591417 0
M  V30 30 H 2.292226 1.149983 -0.340949 0
M  V30 31 H 3.961549 -1.524151 -2.293937 0
M  V30 32 H 2.848689 -2.593722 -4.231778 0
M  V30 33 H 0.399882 -2.149300 -4.638025 0
M  V30 34 H -0.826375 -0.656444 -3.089336 0
M  V30 35 H 0.326185 0.340475 -1.234540 0
M  V30 36 H 1.112862 0.865940 2.295048 0
M  V30 37 H -3.171309 -0.782219 3.193411 0
M  V30 38 H -4.637523 0.576736 4.513813 0
M  V30 39 H -4.011202 2.723905 5.386418 0
M  V30 40 H -1.749310 3.590119 4.909764 0
M  V30 41 H 0.245045 3.083443 2.823270 0
M  V30 42 H -1.283429 -4.192387 1.730261 0
M  V30 43 H -1.590277 -3.761761 -0.001114 0
M  V30 END ATOM
M  V30 BEGIN BOND
M  V30 1 3 1 2
M  V30 2 1 2 3
M  V30 3 2 3 4
M  V30 4 1 4 5
M  V30 5 1 5 6
M  V30 6 1 5 7
M  V30 7 1 7 8
M  V30 8 2 8 9
M  V30 9 1 9 10
M  V30 10 2 10 11
M  V30 11 1 11 12
M  V30 12 2 12 13
M  V30 13 1 4 14
M  V30 14 2 14 15
M  V30 15 1 15 16
M  V30 16 2 16 17
M  V30 17 1 17 18
M  V30 18 2 18 19
M  V30 19 1 19 20
M  V30 20 2 20 21
M  V30 21 1 21 22
M  V30 22 1 15 23
M  V30 23 2 23 24
M  V30 24 1 24 25
M  V30 25 1 24 3
M  V30 26 1 13 8
M  V30 27 1 21 16
M  V30 28 1 5 26
M  V30 29 1 6 27
M  V30 30 1 6 28
M  V30 31 1 7 29
M  V30 32 1 7 30
M  V30 33 1 9 31
M  V30 34 1 10 32
M  V30 35 1 11 33
M  V30 36 1 12 34
M  V30 37 1 13 35
M  V30 38 1 14 36
M  V30 39 1 17 37
M  V30 40 1 18 38
M  V30 41 1 19 39
M  V30 42 1 20 40
M  V30 43 1 22 41
M  V30 44 1 25 42
M  V30 45 1 25 43
M  V30 END BOND
M  V30 END CTAB
M  END
>  <Dataset>  (888) 
ChEMBL_Kinases

>  <Ligand_Instance>  (888) 
nan

>  <PDB_ID>  (888) 
nan

>  <Standardized_SMILES>  (888) 
N#Cc1c(C(N)Cc2ccccc2)cc(-c2ccccc2O)nc1N

>  <Name>  (888) 
nan

>  <Pocket>  (888) 
nan

>  <ATP_Site>  (888) 
nan

>  <Peripheral>  (888) 
nan

>  <Num_H_Atoms_ProtBoundConf>  (888) 
nan

>  <Num_Resolved_Atoms>  (888) 
nan

>  <Num_Not_Resolved_Atoms>  (888) 
nan

$$$$
CHEMBL1822661
     RDKit          3D

  0  0  0  0  0  0  0  0  0  0999 V3000
M  V30 BEGIN CTAB
M  V30 COUNTS 68 73 0 0 0
M  V30 BEGIN ATOM
M  V30 1 C 2.789373 -3.929242 1.491434 0
M  V30 2 C 3.719874 -2.976367 2.167362 0
M  V30 3 C 3.591212 -1.626660 2.517457 0
M  V30 4 C 4.776932 -1.223587 3.139620 0
M  V30 5 N 4.726201 0.141849 3.525101 0
M  V30 6 C 5.112849 1.365154 2.913797 0
M  V30 7 N 4.212507 1.940166 2.104345 0
M  V30 8 C 4.395509 3.095677 1.450260 0
M  V30 9 S 3.266113 3.934823 0.356187 0
M  V30 10 C 1.736870 3.095995 0.121311 0
M  V30 11 C 1.338836 1.886024 0.645861 0
M  V30 12 C 0.080190 1.337871 0.373240 0
M  V30 13 C -0.808898 2.034420 -0.457586 0
M  V30 14 N -2.003840 1.277375 -0.583980 0
M  V30 15 C -3.049842 1.426030 0.362980 0
M  V30 16 O -2.847350 2.262708 1.311678 0
M  V30 17 C -4.383148 0.809901 0.522185 0
M  V30 18 N -4.787736 -0.107516 -0.444812 0
M  V30 19 C -5.114796 0.282658 -1.745921 0
M  V30 20 C -5.230165 -1.009229 -2.519383 0 CFG=1
M  V30 21 O -4.048930 -1.261634 -3.242905 0
M  V30 22 C -5.410690 -2.053646 -1.465516 0 CFG=1
M  V30 23 O -4.387265 -3.015387 -1.466455 0
M  V30 24 C -4.540662 -4.374388 -1.608363 0
M  V30 25 C -3.309950 -5.037423 -1.576542 0
M  V30 26 C -3.262196 -6.421083 -1.704712 0
M  V30 27 C -4.404579 -7.173870 -1.864681 0
M  V30 28 F -4.322131 -8.532116 -1.989512 0
M  V30 29 C -5.625017 -6.505121 -1.895437 0
M  V30 30 C -5.670672 -5.142550 -1.768928 0
M  V30 31 C -5.420744 -1.309055 -0.118329 0
M  V30 32 C -0.411214 3.239516 -0.978983 0
M  V30 33 C 0.833576 3.758692 -0.696174 0
M  V30 34 N 5.584298 3.695140 1.644658 0
M  V30 35 N 6.524293 3.200598 2.421496 0
M  V30 36 C 7.780116 3.586603 2.788108 0
M  V30 37 C 8.328299 2.659408 3.652892 0
M  V30 38 C 7.389857 1.656922 3.838811 0
M  V30 39 C 6.309241 2.039214 3.063975 0
M  V30 40 N 5.595853 -2.309574 3.160393 0
M  V30 41 N 4.967818 -3.330115 2.589035 0
M  V30 42 H 1.749611 -3.489650 1.565507 0
M  V30 43 H 2.842999 -4.927631 1.929355 0
M  V30 44 H 3.011544 -3.957458 0.405500 0
M  V30 45 H 2.637095 -1.194386 2.243886 0
M  V30 46 H 4.335403 0.401946 4.444023 0
M  V30 47 H 2.069029 1.401307 1.276600 0
M  V30 48 H -0.063297 0.382050 0.868934 0
M  V30 49 H -2.262276 0.572292 -1.305644 0
M  V30 50 H -5.159571 1.621006 0.704531 0
M  V30 51 H -4.349737 0.298827 1.534719 0
M  V30 52 H -4.389021 0.972825 -2.238075 0
M  V30 53 H -6.137427 0.750433 -1.731571 0
M  V30 54 H -6.107467 -0.958972 -3.206156 0
M  V30 55 H -4.049596 -0.661714 -4.050996 0
M  V30 56 H -6.388264 -2.548981 -1.621839 0
M  V30 57 H -2.314679 -4.587332 -1.457462 0
M  V30 58 H -2.311371 -6.977188 -1.684728 0
M  V30 59 H -6.546225 -7.056963 -2.018461 0
M  V30 60 H -6.574383 -4.566373 -1.782782 0
M  V30 61 H -6.426578 -1.276345 0.318322 0
M  V30 62 H -4.752608 -1.890420 0.585129 0
M  V30 63 H -1.185037 3.662137 -1.593577 0
M  V30 64 H 1.001825 4.704165 -1.174948 0
M  V30 65 H 8.277803 4.501776 2.442639 0
M  V30 66 H 9.330360 2.744310 4.089180 0
M  V30 67 H 7.500343 0.779520 4.457694 0
M  V30 68 H 5.424310 -4.268227 2.501018 0
M  V30 END ATOM
M  V30 BEGIN BOND
M  V30 1 1 1 2
M  V30 2 2 2 3
M  V30 3 1 3 4
M  V30 4 1 4 5
M  V30 5 1 5 6
M  V30 6 2 6 7
M  V30 7 1 7 8
M  V30 8 1 8 9
M  V30 9 1 9 10
M  V30 10 2 10 11
M  V30 11 1 11 12
M  V30 12 2 12 13
M  V30 13 1 13 14
M  V30 14 1 14 15
M  V30 15 2 15 16
M  V30 16 1 15 17
M  V30 17 1 17 18
M  V30 18 1 18 19
M  V30 19 1 19 20
M  V30 20 1 20 21
M  V30 21 1 20 22
M  V30 22 1 22 23
M  V30 23 1 23 24
M  V30 24 2 24 25
M  V30 25 1 25 26
M  V30 26 2 26 27
M  V30 27 1 27 28
M  V30 28 1 27 29
M  V30 29 2 29 30
M  V30 30 1 22 31
M  V30 31 1 13 32
M  V30 32 2 32 33
M  V30 33 2 8 34
M  V30 34 1 34 35
M  V30 35 1 35 36
M  V30 36 2 36 37
M  V30 37 1 37 38
M  V30 38 2 38 39
M  V30 39 2 4 40
M  V30 40 1 40 41
M  V30 41 1 41 2
M  V30 42 1 39 6
M  V30 43 1 33 10
M  V30 44 1 39 35
M  V30 45 1 31 18
M  V30 46 1 30 24
M  V30 47 1 1 42
M  V30 48 1 1 43
M  V30 49 1 1 44
M  V30 50 1 3 45
M  V30 51 1 5 46
M  V30 52 1 11 47
M  V30 53 1 12 48
M  V30 54 1 14 49
M  V30 55 1 17 50
M  V30 56 1 17 51
M  V30 57 1 19 52
M  V30 58 1 19 53
M  V30 59 1 20 54 CFG=3
M  V30 60 1 21 55
M  V30 61 1 22 56 CFG=3
M  V30 62 1 25 57
M  V30 63 1 26 58
M  V30 64 1 29 59
M  V30 65 1 30 60
M  V30 66 1 31 61
M  V30 67 1 31 62
M  V30 68 1 32 63
M  V30 69 1 33 64
M  V30 70 1 36 65
M  V30 71 1 37 66
M  V30 72 1 38 67
M  V30 73 1 41 68
M  V30 END BOND
M  V30 END CTAB
M  END
>  <Dataset>  (889) 
ChEMBL_Kinases

>  <Ligand_Instance>  (889) 
nan

>  <PDB_ID>  (889) 
nan

>  <Standardized_SMILES>  (889) 
Cc1cc(Nc2nc(Sc3ccc(NC(=O)CN4C[C@@H](O)[C@@H](Oc5ccc(F)cc5)C4)cc3)nn3cccc23)n[nH]1

>  <Name>  (889) 
nan

>  <Pocket>  (889) 
nan

>  <ATP_Site>  (889) 
nan

>  <Peripheral>  (889) 
nan

>  <Num_H_Atoms_ProtBoundConf>  (889) 
nan

>  <Num_Resolved_Atoms>  (889) 
nan

>  <Num_Not_Resolved_Atoms>  (889) 
nan

$$$$
CHEMBL1822660
     RDKit          3D

  0  0  0  0  0  0  0  0  0  0999 V3000
M  V30 BEGIN CTAB
M  V30 COUNTS 68 73 0 0 0
M  V30 BEGIN ATOM
M  V30 1 C 0.582808 -4.147078 4.222215 0
M  V30 2 C 1.609974 -3.596545 3.285124 0
M  V30 3 C 2.810828 -2.938372 3.580926 0
M  V30 4 C 3.438908 -2.607746 2.374000 0
M  V30 5 N 4.692685 -1.917904 2.380475 0
M  V30 6 C 4.468548 -0.517567 2.305184 0
M  V30 7 N 4.463674 0.034536 1.063421 0
M  V30 8 C 4.256800 1.336796 0.869159 0
M  V30 9 S 4.216886 2.321395 -0.615054 0
M  V30 10 C 2.593477 2.393607 -1.341879 0
M  V30 11 C 2.278534 1.474427 -2.319628 0
M  V30 12 C 1.050573 1.440923 -2.940978 0
M  V30 13 C 0.099260 2.363189 -2.569705 0
M  V30 14 N -1.253376 2.608190 -3.012002 0
M  V30 15 C -2.125502 1.750237 -2.235543 0
M  V30 16 O -1.249975 1.166235 -1.516782 0
M  V30 17 C -3.573045 1.878373 -2.557768 0
M  V30 18 N -4.436170 1.016493 -1.822122 0
M  V30 19 C -4.362419 -0.368090 -2.129257 0
M  V30 20 C -3.919705 -1.029731 -0.844411 0 CFG=2
M  V30 21 O -4.215454 -2.403330 -0.825623 0
M  V30 22 C -3.184974 -3.315119 -0.896338 0
M  V30 23 C -3.697978 -4.599840 -0.827843 0
M  V30 24 C -2.902414 -5.729662 -0.876282 0
M  V30 25 F -3.315754 -7.010260 -0.816983 0
M  V30 26 C -1.516868 -5.587790 -1.000191 0
M  V30 27 C -1.005836 -4.312157 -1.068366 0
M  V30 28 F 0.314970 -4.001611 -1.197621 0
M  V30 29 C -1.818411 -3.202481 -1.017552 0
M  V30 30 C -4.718536 -0.230856 0.157046 0 CFG=1
M  V30 31 O -4.307899 -0.411387 1.458368 0
M  V30 32 C -4.381641 1.167014 -0.387481 0
M  V30 33 C 0.390584 3.308611 -1.579325 0
M  V30 34 C 1.645701 3.319329 -0.965797 0
M  V30 35 N 4.048008 2.110098 1.952770 0
M  V30 36 N 4.036020 1.654261 3.200468 0
M  V30 37 C 3.856219 2.208892 4.426284 0
M  V30 38 C 3.955346 1.226425 5.399970 0
M  V30 39 C 4.200131 0.074249 4.691920 0
M  V30 40 C 4.247391 0.343800 3.356624 0
M  V30 41 N 2.634947 -3.056421 1.387472 0
M  V30 42 N 1.560018 -3.637452 1.923060 0
M  V30 43 H -0.060969 -3.278667 4.514018 0
M  V30 44 H 1.094852 -4.600778 5.086399 0
M  V30 45 H -0.025889 -4.876061 3.638930 0
M  V30 46 H 3.046146 -2.801461 4.631257 0
M  V30 47 H 5.492387 -2.587267 2.438790 0
M  V30 48 H 2.961501 0.708846 -2.679264 0
M  V30 49 H 0.658745 0.802365 -3.704835 0
M  V30 50 H -1.522888 3.304927 -3.778411 0
M  V30 51 H -3.683329 1.642575 -3.634057 0
M  V30 52 H -3.903577 2.950375 -2.445838 0
M  V30 53 H -3.723801 -0.637314 -2.986502 0
M  V30 54 H -5.408586 -0.724762 -2.361476 0
M  V30 55 H -2.858976 -0.830293 -0.695304 0
M  V30 56 H -4.740145 -4.905411 -0.731101 0
M  V30 57 H -0.752854 -6.348062 -1.053166 0
M  V30 58 H -1.476915 -2.199387 -1.066685 0
M  V30 59 H -5.817576 -0.363614 -0.001706 0
M  V30 60 H -3.528673 -1.030330 1.418672 0
M  V30 61 H -5.051911 1.938072 0.011259 0
M  V30 62 H -3.313398 1.333343 -0.075967 0
M  V30 63 H -0.231267 4.098389 -1.168434 0
M  V30 64 H 1.957052 4.010414 -0.195742 0
M  V30 65 H 3.664599 3.264784 4.611943 0
M  V30 66 H 3.862330 1.328688 6.480308 0
M  V30 67 H 4.329728 -0.871797 5.168488 0
M  V30 68 H 0.749856 -4.084123 1.443243 0
M  V30 END ATOM
M  V30 BEGIN BOND
M  V30 1 1 1 2
M  V30 2 2 2 3
M  V30 3 1 3 4
M  V30 4 1 4 5
M  V30 5 1 5 6
M  V30 6 2 6 7
M  V30 7 1 7 8
M  V30 8 1 8 9
M  V30 9 1 9 10
M  V30 10 2 10 11
M  V30 11 1 11 12
M  V30 12 2 12 13
M  V30 13 1 13 14
M  V30 14 1 14 15
M  V30 15 2 15 16
M  V30 16 1 15 17
M  V30 17 1 17 18
M  V30 18 1 18 19
M  V30 19 1 19 20
M  V30 20 1 20 21
M  V30 21 1 21 22
M  V30 22 2 22 23
M  V30 23 1 23 24
M  V30 24 1 24 25
M  V30 25 2 24 26
M  V30 26 1 26 27
M  V30 27 1 27 28
M  V30 28 2 27 29
M  V30 29 1 20 30
M  V30 30 1 30 31
M  V30 31 1 30 32
M  V30 32 1 13 33
M  V30 33 2 33 34
M  V30 34 2 8 35
M  V30 35 1 35 36
M  V30 36 1 36 37
M  V30 37 2 37 38
M  V30 38 1 38 39
M  V30 39 2 39 40
M  V30 40 2 4 41
M  V30 41 1 41 42
M  V30 42 1 42 2
M  V30 43 1 40 6
M  V30 44 1 34 10
M  V30 45 1 40 36
M  V30 46 1 32 18
M  V30 47 1 29 22
M  V30 48 1 1 43
M  V30 49 1 1 44
M  V30 50 1 1 45
M  V30 51 1 3 46
M  V30 52 1 5 47
M  V30 53 1 11 48
M  V30 54 1 12 49
M  V30 55 1 14 50
M  V30 56 1 17 51
M  V30 57 1 17 52
M  V30 58 1 19 53
M  V30 59 1 19 54
M  V30 60 1 20 55 CFG=1
M  V30 61 1 23 56
M  V30 62 1 26 57
M  V30 63 1 29 58
M  V30 64 1 30 59 CFG=1
M  V30 65 1 31 60
M  V30 66 1 32 61
M  V30 67 1 32 62
M  V30 68 1 33 63
M  V30 69 1 34 64
M  V30 70 1 37 65
M  V30 71 1 38 66
M  V30 72 1 39 67
M  V30 73 1 42 68
M  V30 END BOND
M  V30 END CTAB
M  END
>  <Dataset>  (890) 
ChEMBL_Kinases

>  <Ligand_Instance>  (890) 
nan

>  <PDB_ID>  (890) 
nan

>  <Standardized_SMILES>  (890) 
Cc1cc(Nc2nc(Sc3ccc(NC(=O)CN4C[C@H](Oc5cc(F)cc(F)c5)[C@@H](O)C4)cc3)nn3cccc23)n[nH]1

>  <Name>  (890) 
nan

>  <Pocket>  (890) 
nan

>  <ATP_Site>  (890) 
nan

>  <Peripheral>  (890) 
nan

>  <Num_H_Atoms_ProtBoundConf>  (890) 
nan

>  <Num_Resolved_Atoms>  (890) 
nan

>  <Num_Not_Resolved_Atoms>  (890) 
nan

$$$$
CHEMBL1822659
     RDKit          3D

  0  0  0  0  0  0  0  0  0  0999 V3000
M  V30 BEGIN CTAB
M  V30 COUNTS 68 73 0 0 0
M  V30 BEGIN ATOM
M  V30 1 C 1.462090 -2.921400 4.587069 0
M  V30 2 C 2.585079 -2.452480 3.733416 0
M  V30 3 C 3.738098 -1.760616 4.042219 0
M  V30 4 C 4.492817 -1.546257 2.900260 0
M  V30 5 N 5.743158 -0.877889 2.772215 0
M  V30 6 C 5.370518 0.493088 2.525566 0
M  V30 7 N 5.202534 0.870017 1.236479 0
M  V30 8 C 4.854977 2.131417 0.916153 0
M  V30 9 S 4.621778 2.670935 -0.782561 0
M  V30 10 C 2.900229 2.411509 -1.263648 0
M  V30 11 C 2.673867 1.165102 -1.817101 0
M  V30 12 C 1.393433 0.847795 -2.225638 0
M  V30 13 C 0.425342 1.815111 -2.046494 0
M  V30 14 N -0.911566 1.483939 -2.472904 0
M  V30 15 C -1.568121 0.885062 -1.344338 0
M  V30 16 O -0.883695 0.775046 -0.263627 0
M  V30 17 C -2.871558 0.320422 -1.021555 0
M  V30 18 N -3.844843 0.318466 -2.088735 0
M  V30 19 C -5.085876 -0.251301 -1.554486 0
M  V30 20 C -5.135840 -1.657736 -2.123057 0 CFG=2
M  V30 21 O -4.197386 -2.437906 -1.444570 0
M  V30 22 C -4.451931 -3.646125 -0.809665 0
M  V30 23 C -5.650485 -4.327229 -0.707924 0
M  V30 24 C -5.709384 -5.527278 -0.030251 0
M  V30 25 C -4.558434 -6.033762 0.541263 0
M  V30 26 F -4.615005 -7.216965 1.210023 0
M  V30 27 C -3.349203 -5.383980 0.460136 0
M  V30 28 C -3.294060 -4.172888 -0.224858 0
M  V30 29 F -2.063686 -3.604479 -0.254165 0
M  V30 30 C -4.581376 -1.393185 -3.503009 0 CFG=1
M  V30 31 O -5.531638 -0.868964 -4.371128 0
M  V30 32 C -3.475634 -0.430589 -3.243968 0
M  V30 33 C 0.626983 3.069340 -1.495285 0
M  V30 34 C 1.913708 3.362195 -1.095219 0
M  V30 35 N 4.671733 3.036146 1.915684 0
M  V30 36 N 4.830067 2.694218 3.196761 0
M  V30 37 C 4.713957 3.376834 4.363611 0
M  V30 38 C 4.995216 2.520154 5.422356 0
M  V30 39 C 5.293854 1.270806 4.890258 0
M  V30 40 C 5.178059 1.431289 3.517257 0
M  V30 41 N 3.757294 -2.128572 1.908918 0
M  V30 42 N 2.650809 -2.651841 2.405303 0
M  V30 43 H 1.638409 -2.703505 5.651397 0
M  V30 44 H 1.321349 -4.016330 4.486886 0
M  V30 45 H 0.548818 -2.354662 4.290998 0
M  V30 46 H 3.991553 -1.442598 5.044171 0
M  V30 47 H 6.688129 -1.289129 2.841709 0
M  V30 48 H 3.420141 0.409985 -1.959073 0
M  V30 49 H 1.125521 -0.105617 -2.669762 0
M  V30 50 H -1.600204 1.494726 -3.244124 0
M  V30 51 H -3.368573 0.850004 -0.162010 0
M  V30 52 H -2.774059 -0.745051 -0.705013 0
M  V30 53 H -5.117940 -0.233202 -0.451686 0
M  V30 54 H -5.938595 0.343475 -1.945772 0
M  V30 55 H -6.162169 -2.060317 -2.144260 0
M  V30 56 H -6.481869 -3.834645 -1.193878 0
M  V30 57 H -6.667507 -6.027868 0.025812 0
M  V30 58 H -2.474182 -5.824809 0.926691 0
M  V30 59 H -4.244793 -2.371928 -3.895803 0
M  V30 60 H -6.143234 -1.547943 -4.712497 0
M  V30 61 H -2.510632 -0.935394 -3.036003 0
M  V30 62 H -3.351588 0.193883 -4.157927 0
M  V30 63 H -0.166409 3.779507 -1.381772 0
M  V30 64 H 2.189050 4.303486 -0.654363 0
M  V30 65 H 4.451044 4.406855 4.492478 0
M  V30 66 H 5.013765 2.668690 6.491618 0
M  V30 67 H 5.559788 0.361868 5.409218 0
M  V30 68 H 1.921079 -3.157792 1.826971 0
M  V30 END ATOM
M  V30 BEGIN BOND
M  V30 1 1 1 2
M  V30 2 2 2 3
M  V30 3 1 3 4
M  V30 4 1 4 5
M  V30 5 1 5 6
M  V30 6 2 6 7
M  V30 7 1 7 8
M  V30 8 1 8 9
M  V30 9 1 9 10
M  V30 10 2 10 11
M  V30 11 1 11 12
M  V30 12 2 12 13
M  V30 13 1 13 14
M  V30 14 1 14 15
M  V30 15 2 15 16
M  V30 16 1 15 17
M  V30 17 1 17 18
M  V30 18 1 18 19
M  V30 19 1 19 20
M  V30 20 1 20 21
M  V30 21 1 21 22
M  V30 22 2 22 23
M  V30 23 1 23 24
M  V30 24 2 24 25
M  V30 25 1 25 26
M  V30 26 1 25 27
M  V30 27 2 27 28
M  V30 28 1 28 29
M  V30 29 1 20 30
M  V30 30 1 30 31
M  V30 31 1 30 32
M  V30 32 1 13 33
M  V30 33 2 33 34
M  V30 34 2 8 35
M  V30 35 1 35 36
M  V30 36 1 36 37
M  V30 37 2 37 38
M  V30 38 1 38 39
M  V30 39 2 39 40
M  V30 40 2 4 41
M  V30 41 1 41 42
M  V30 42 1 42 2
M  V30 43 1 40 6
M  V30 44 1 34 10
M  V30 45 1 40 36
M  V30 46 1 32 18
M  V30 47 1 28 22
M  V30 48 1 1 43
M  V30 49 1 1 44
M  V30 50 1 1 45
M  V30 51 1 3 46
M  V30 52 1 5 47
M  V30 53 1 11 48
M  V30 54 1 12 49
M  V30 55 1 14 50
M  V30 56 1 17 51
M  V30 57 1 17 52
M  V30 58 1 19 53
M  V30 59 1 19 54
M  V30 60 1 20 55 CFG=3
M  V30 61 1 23 56
M  V30 62 1 24 57
M  V30 63 1 27 58
M  V30 64 1 30 59 CFG=3
M  V30 65 1 31 60
M  V30 66 1 32 61
M  V30 67 1 32 62
M  V30 68 1 33 63
M  V30 69 1 34 64
M  V30 70 1 37 65
M  V30 71 1 38 66
M  V30 72 1 39 67
M  V30 73 1 42 68
M  V30 END BOND
M  V30 END CTAB
M  END
>  <Dataset>  (891) 
ChEMBL_Kinases

>  <Ligand_Instance>  (891) 
nan

>  <PDB_ID>  (891) 
nan

>  <Standardized_SMILES>  (891) 
Cc1cc(Nc2nc(Sc3ccc(NC(=O)CN4C[C@H](Oc5ccc(F)cc5F)[C@@H](O)C4)cc3)nn3cccc23)n[nH]1

>  <Name>  (891) 
nan

>  <Pocket>  (891) 
nan

>  <ATP_Site>  (891) 
nan

>  <Peripheral>  (891) 
nan

>  <Num_H_Atoms_ProtBoundConf>  (891) 
nan

>  <Num_Resolved_Atoms>  (891) 
nan

>  <Num_Not_Resolved_Atoms>  (891) 
nan

$$$$
CHEMBL1822658
     RDKit          3D

  0  0  0  0  0  0  0  0  0  0999 V3000
M  V30 BEGIN CTAB
M  V30 COUNTS 68 73 0 0 0
M  V30 BEGIN ATOM
M  V30 1 C 2.423728 -3.349280 -1.008313 0
M  V30 2 C 3.092731 -2.697057 0.138288 0
M  V30 3 C 2.779353 -1.590771 0.905456 0
M  V30 4 C 3.747145 -1.403830 1.865150 0
M  V30 5 N 3.746939 -0.353722 2.835595 0
M  V30 6 C 4.417613 0.835059 2.397299 0
M  V30 7 N 3.674243 1.761394 1.758873 0
M  V30 8 C 4.250389 2.905330 1.319909 0
M  V30 9 S 3.313380 4.168838 0.465736 0
M  V30 10 C 1.618302 3.591263 0.360742 0
M  V30 11 C 1.243338 2.844088 -0.720579 0
M  V30 12 C -0.069467 2.423376 -0.756938 0
M  V30 13 C -0.920910 2.767501 0.273227 0
M  V30 14 N -2.249207 2.241111 0.070855 0
M  V30 15 C -2.243629 0.948185 0.710486 0
M  V30 16 O -1.143390 0.601761 1.268538 0
M  V30 17 C -3.240932 -0.119182 0.886948 0
M  V30 18 N -4.519318 0.176751 0.270325 0
M  V30 19 C -5.447130 -0.868602 0.541400 0
M  V30 20 C -5.383511 -1.872003 -0.608490 0 CFG=2
M  V30 21 O -4.238670 -2.647609 -0.556447 0
M  V30 22 C -4.097160 -4.003382 -0.649794 0
M  V30 23 C -2.750345 -4.372089 -0.545881 0
M  V30 24 C -2.360312 -5.713940 -0.613530 0
M  V30 25 C -3.323519 -6.668911 -0.784300 0
M  V30 26 F -2.949543 -7.967458 -0.849882 0
M  V30 27 C -4.632726 -6.321986 -0.886283 0
M  V30 28 C -5.036196 -4.998423 -0.821417 0
M  V30 29 C -5.177959 -0.877208 -1.762893 0 CFG=1
M  V30 30 O -6.400627 -0.514791 -2.316195 0
M  V30 31 C -4.454398 0.288879 -1.145399 0
M  V30 32 C -0.523207 3.521189 1.353679 0
M  V30 33 C 0.788673 3.946045 1.397610 0
M  V30 34 N 5.565525 3.114693 1.522527 0
M  V30 35 N 6.294610 2.215267 2.144275 0
M  V30 36 C 7.603998 2.161804 2.477136 0
M  V30 37 C 7.910489 0.983669 3.139349 0
M  V30 38 C 6.734431 0.288410 3.213125 0
M  V30 39 C 5.764645 1.054215 2.602574 0
M  V30 40 N 4.642596 -2.405014 1.668484 0
M  V30 41 N 4.241877 -3.162312 0.643053 0
M  V30 42 H 1.462604 -2.875375 -1.260820 0
M  V30 43 H 2.195834 -4.409525 -0.702305 0
M  V30 44 H 3.075357 -3.352352 -1.904446 0
M  V30 45 H 1.877067 -1.016457 0.701775 0
M  V30 46 H 3.279081 -0.504039 3.768889 0
M  V30 47 H 1.928042 2.588338 -1.513163 0
M  V30 48 H -0.346921 1.828071 -1.629371 0
M  V30 49 H -3.194970 2.409451 -0.337454 0
M  V30 50 H -3.467323 -0.335207 1.965630 0
M  V30 51 H -2.799002 -1.063391 0.491504 0
M  V30 52 H -6.479596 -0.418886 0.450668 0
M  V30 53 H -5.373001 -1.340571 1.522845 0
M  V30 54 H -6.335593 -2.407444 -0.750811 0
M  V30 55 H -1.894919 -3.692069 -0.407139 0
M  V30 56 H -1.326180 -6.021613 -0.535804 0
M  V30 57 H -5.442597 -7.044418 -1.023266 0
M  V30 58 H -6.047184 -4.602757 -0.889959 0
M  V30 59 H -4.533200 -1.301725 -2.562273 0
M  V30 60 H -6.229152 -0.293122 -3.274247 0
M  V30 61 H -4.957191 1.228400 -1.474078 0
M  V30 62 H -3.406683 0.371091 -1.520243 0
M  V30 63 H -1.277296 3.726723 2.096203 0
M  V30 64 H 1.090241 4.528958 2.236777 0
M  V30 65 H 8.376319 2.895788 2.289268 0
M  V30 66 H 8.865615 0.659835 3.524932 0
M  V30 67 H 6.593286 -0.695982 3.673363 0
M  V30 68 H 4.858292 -3.973845 0.393992 0
M  V30 END ATOM
M  V30 BEGIN BOND
M  V30 1 1 1 2
M  V30 2 2 2 3
M  V30 3 1 3 4
M  V30 4 1 4 5
M  V30 5 1 5 6
M  V30 6 2 6 7
M  V30 7 1 7 8
M  V30 8 1 8 9
M  V30 9 1 9 10
M  V30 10 2 10 11
M  V30 11 1 11 12
M  V30 12 2 12 13
M  V30 13 1 13 14
M  V30 14 1 14 15
M  V30 15 2 15 16
M  V30 16 1 15 17
M  V30 17 1 17 18
M  V30 18 1 18 19
M  V30 19 1 19 20
M  V30 20 1 20 21
M  V30 21 1 21 22
M  V30 22 2 22 23
M  V30 23 1 23 24
M  V30 24 2 24 25
M  V30 25 1 25 26
M  V30 26 1 25 27
M  V30 27 2 27 28
M  V30 28 1 20 29
M  V30 29 1 29 30
M  V30 30 1 29 31
M  V30 31 1 13 32
M  V30 32 2 32 33
M  V30 33 2 8 34
M  V30 34 1 34 35
M  V30 35 1 35 36
M  V30 36 2 36 37
M  V30 37 1 37 38
M  V30 38 2 38 39
M  V30 39 2 4 40
M  V30 40 1 40 41
M  V30 41 1 41 2
M  V30 42 1 39 6
M  V30 43 1 33 10
M  V30 44 1 39 35
M  V30 45 1 31 18
M  V30 46 1 28 22
M  V30 47 1 1 42
M  V30 48 1 1 43
M  V30 49 1 1 44
M  V30 50 1 3 45
M  V30 51 1 5 46
M  V30 52 1 11 47
M  V30 53 1 12 48
M  V30 54 1 14 49
M  V30 55 1 17 50
M  V30 56 1 17 51
M  V30 57 1 19 52
M  V30 58 1 19 53
M  V30 59 1 20 54 CFG=3
M  V30 60 1 23 55
M  V30 61 1 24 56
M  V30 62 1 27 57
M  V30 63 1 28 58
M  V30 64 1 29 59 CFG=3
M  V30 65 1 30 60
M  V30 66 1 31 61
M  V30 67 1 31 62
M  V30 68 1 32 63
M  V30 69 1 33 64
M  V30 70 1 36 65
M  V30 71 1 37 66
M  V30 72 1 38 67
M  V30 73 1 41 68
M  V30 END BOND
M  V30 END CTAB
M  END
>  <Dataset>  (892) 
ChEMBL_Kinases

>  <Ligand_Instance>  (892) 
nan

>  <PDB_ID>  (892) 
nan

>  <Standardized_SMILES>  (892) 
Cc1cc(Nc2nc(Sc3ccc(NC(=O)CN4C[C@H](Oc5ccc(F)cc5)[C@@H](O)C4)cc3)nn3cccc23)n[nH]1

>  <Name>  (892) 
nan

>  <Pocket>  (892) 
nan

>  <ATP_Site>  (892) 
nan

>  <Peripheral>  (892) 
nan

>  <Num_H_Atoms_ProtBoundConf>  (892) 
nan

>  <Num_Resolved_Atoms>  (892) 
nan

>  <Num_Not_Resolved_Atoms>  (892) 
nan

$$$$
CHEMBL1822657
     RDKit          3D

  0  0  0  0  0  0  0  0  0  0999 V3000
M  V30 BEGIN CTAB
M  V30 COUNTS 68 73 0 0 0
M  V30 BEGIN ATOM
M  V30 1 C 1.835101 -3.488769 -0.839002 0
M  V30 2 C 1.980660 -2.975221 0.573019 0
M  V30 3 C 1.342793 -1.896687 1.173460 0
M  V30 4 C 1.912308 -1.663729 2.385348 0
M  V30 5 N 1.690561 -0.518700 3.356253 0
M  V30 6 C 2.638881 0.357412 2.637568 0
M  V30 7 N 2.788906 1.098412 1.618873 0
M  V30 8 C 3.567018 1.749056 0.845797 0
M  V30 9 S 3.652560 2.666388 -0.724373 0
M  V30 10 C 1.900616 2.595308 -1.380276 0
M  V30 11 C 1.347905 1.673684 -2.244522 0
M  V30 12 C -0.101427 1.702369 -2.136032 0
M  V30 13 C -0.733369 2.605592 -1.270468 0
M  V30 14 N -2.069667 2.057632 -1.081685 0
M  V30 15 C -1.904481 1.625302 0.381749 0
M  V30 16 O -0.870311 1.952600 0.991103 0
M  V30 17 C -2.699740 0.927372 1.405805 0
M  V30 18 N -3.872570 0.356166 1.087710 0
M  V30 19 C -3.962676 -1.026882 1.166001 0
M  V30 20 C -4.309701 -1.481436 -0.270125 0 CFG=2
M  V30 21 O -3.237446 -1.835618 -1.070889 0
M  V30 22 C -2.515984 -2.917140 -1.066293 0
M  V30 23 C -2.037438 -3.331648 -2.145220 0
M  V30 24 C -1.353232 -4.257818 -2.708399 0
M  V30 25 C -0.965747 -5.180969 -1.731472 0
M  V30 26 C -1.358799 -4.967618 -0.429037 0
M  V30 27 F -1.005896 -5.693590 0.621711 0
M  V30 28 C -2.075538 -3.932074 -0.051173 0
M  V30 29 C -5.030030 -0.309907 -0.838933 0 CFG=1
M  V30 30 O -6.292666 -0.622775 -1.065732 0
M  V30 31 C -4.827079 0.792476 0.199478 0
M  V30 32 C -0.041287 3.516662 -0.464375 0
M  V30 33 C 1.376259 3.474137 -0.526334 0
M  V30 34 N 4.572108 1.405009 1.512054 0
M  V30 35 N 5.037490 0.752922 2.572172 0
M  V30 36 C 6.169552 0.645700 3.232260 0
M  V30 37 C 5.835718 0.007967 4.347657 0
M  V30 38 C 4.510769 -0.266150 4.386801 0
M  V30 39 C 3.891053 0.201647 3.186158 0
M  V30 40 N 2.858724 -2.573972 2.517042 0
M  V30 41 N 2.916684 -3.386227 1.452573 0
M  V30 42 H 1.138905 -2.769156 -1.338725 0
M  V30 43 H 1.646632 -4.524277 -0.916874 0
M  V30 44 H 2.861746 -3.194964 -1.345167 0
M  V30 45 H 0.549544 -1.348345 0.755993 0
M  V30 46 H 1.072242 -0.333382 4.171214 0
M  V30 47 H 2.058628 1.132030 -2.849448 0
M  V30 48 H -0.532271 1.045780 -2.888340 0
M  V30 49 H -3.001384 1.915075 -1.445484 0
M  V30 50 H -2.521656 1.325103 2.404442 0
M  V30 51 H -2.020897 -0.168535 1.455608 0
M  V30 52 H -4.899665 -1.351181 1.765577 0
M  V30 53 H -3.139685 -1.542898 1.618429 0
M  V30 54 H -5.015951 -2.320166 -0.023040 0
M  V30 55 H -2.236789 -2.737838 -3.010464 0
M  V30 56 H -0.967564 -4.567528 -3.675522 0
M  V30 57 H -0.277994 -6.084518 -1.798856 0
M  V30 58 H -2.443988 -3.682166 0.972170 0
M  V30 59 H -4.591270 -0.068374 -1.819361 0
M  V30 60 H -6.388175 -1.434480 -1.621322 0
M  V30 61 H -5.849352 0.907029 0.705597 0
M  V30 62 H -4.589297 1.801991 -0.231729 0
M  V30 63 H -0.782500 3.983925 0.085654 0
M  V30 64 H 1.643269 4.186940 0.141602 0
M  V30 65 H 7.117579 1.052727 3.132973 0
M  V30 66 H 6.354755 -0.260858 5.239823 0
M  V30 67 H 3.868259 -0.778582 5.107915 0
M  V30 68 H 3.569071 -4.201099 1.335858 0
M  V30 END ATOM
M  V30 BEGIN BOND
M  V30 1 1 1 2
M  V30 2 2 2 3
M  V30 3 1 3 4
M  V30 4 1 4 5
M  V30 5 1 5 6
M  V30 6 2 6 7
M  V30 7 1 7 8
M  V30 8 1 8 9
M  V30 9 1 9 10
M  V30 10 2 10 11
M  V30 11 1 11 12
M  V30 12 2 12 13
M  V30 13 1 13 14
M  V30 14 1 14 15
M  V30 15 2 15 16
M  V30 16 1 15 17
M  V30 17 1 17 18
M  V30 18 1 18 19
M  V30 19 1 19 20
M  V30 20 1 20 21
M  V30 21 1 21 22
M  V30 22 2 22 23
M  V30 23 1 23 24
M  V30 24 2 24 25
M  V30 25 1 25 26
M  V30 26 1 26 27
M  V30 27 2 26 28
M  V30 28 1 20 29
M  V30 29 1 29 30
M  V30 30 1 29 31
M  V30 31 1 13 32
M  V30 32 2 32 33
M  V30 33 2 8 34
M  V30 34 1 34 35
M  V30 35 1 35 36
M  V30 36 2 36 37
M  V30 37 1 37 38
M  V30 38 2 38 39
M  V30 39 2 4 40
M  V30 40 1 40 41
M  V30 41 1 41 2
M  V30 42 1 39 6
M  V30 43 1 33 10
M  V30 44 1 39 35
M  V30 45 1 31 18
M  V30 46 1 28 22
M  V30 47 1 1 42
M  V30 48 1 1 43
M  V30 49 1 1 44
M  V30 50 1 3 45
M  V30 51 1 5 46
M  V30 52 1 11 47
M  V30 53 1 12 48
M  V30 54 1 14 49
M  V30 55 1 17 50
M  V30 56 1 17 51
M  V30 57 1 19 52
M  V30 58 1 19 53
M  V30 59 1 20 54 CFG=1
M  V30 60 1 23 55
M  V30 61 1 24 56
M  V30 62 1 25 57
M  V30 63 1 28 58
M  V30 64 1 29 59 CFG=3
M  V30 65 1 30 60
M  V30 66 1 31 61
M  V30 67 1 31 62
M  V30 68 1 32 63
M  V30 69 1 33 64
M  V30 70 1 36 65
M  V30 71 1 37 66
M  V30 72 1 38 67
M  V30 73 1 41 68
M  V30 END BOND
M  V30 END CTAB
M  END
>  <Dataset>  (893) 
ChEMBL_Kinases

>  <Ligand_Instance>  (893) 
nan

>  <PDB_ID>  (893) 
nan

>  <Standardized_SMILES>  (893) 
Cc1cc(Nc2nc(Sc3ccc(NC(=O)CN4C[C@H](Oc5cccc(F)c5)[C@@H](O)C4)cc3)nn3cccc23)n[nH]1

>  <Name>  (893) 
nan

>  <Pocket>  (893) 
nan

>  <ATP_Site>  (893) 
nan

>  <Peripheral>  (893) 
nan

>  <Num_H_Atoms_ProtBoundConf>  (893) 
nan

>  <Num_Resolved_Atoms>  (893) 
nan

>  <Num_Not_Resolved_Atoms>  (893) 
nan

$$$$
CHEMBL1822656
     RDKit          3D

  0  0  0  0  0  0  0  0  0  0999 V3000
M  V30 BEGIN CTAB
M  V30 COUNTS 68 73 0 0 0
M  V30 BEGIN ATOM
M  V30 1 C 2.360102 -3.527153 -0.302283 0
M  V30 2 C 3.077139 -2.736158 0.710415 0
M  V30 3 C 2.854829 -1.486055 1.295947 0
M  V30 4 C 3.841192 -1.195144 2.209041 0
M  V30 5 N 3.881786 0.020390 2.970868 0
M  V30 6 C 4.491252 1.270372 2.676981 0
M  V30 7 N 3.677464 2.135389 2.009051 0
M  V30 8 C 4.094770 3.351716 1.656831 0
M  V30 9 S 3.026901 4.482762 0.780821 0
M  V30 10 C 1.423800 3.758334 0.481978 0
M  V30 11 C 1.196259 3.036825 -0.671435 0
M  V30 12 C -0.064598 2.509630 -0.829386 0
M  V30 13 C -1.019194 2.720822 0.146967 0
M  V30 14 N -2.308264 2.126003 -0.110921 0
M  V30 15 C -2.279836 0.813375 0.460936 0
M  V30 16 O -1.218671 0.412863 1.056352 0
M  V30 17 C -3.211596 -0.300481 0.564584 0
M  V30 18 N -4.503861 -0.105747 -0.051961 0
M  V30 19 C -5.276559 -1.296924 0.213619 0
M  V30 20 C -5.207265 -2.157352 -1.032553 0 CFG=2
M  V30 21 O -4.081833 -2.950315 -1.095810 0
M  V30 22 C -3.934074 -4.294696 -1.209006 0
M  V30 23 C -2.567663 -4.615483 -1.230273 0
M  V30 24 C -2.132494 -5.937352 -1.340397 0
M  V30 25 C -3.036989 -6.969234 -1.431603 0
M  V30 26 C -4.374979 -6.652375 -1.410558 0
M  V30 27 C -4.810503 -5.355456 -1.302589 0
M  V30 28 F -6.100260 -4.951564 -1.274071 0
M  V30 29 C -5.092495 -1.116548 -2.147976 0 CFG=1
M  V30 30 O -6.383946 -0.865090 -2.606525 0
M  V30 31 C -4.463106 0.040296 -1.457764 0
M  V30 32 C -0.792817 3.441548 1.299394 0
M  V30 33 C 0.486263 3.980491 1.467169 0
M  V30 34 N 5.343378 3.744187 1.962030 0
M  V30 35 N 6.179489 2.925905 2.618763 0
M  V30 36 C 7.451369 3.024950 3.055351 0
M  V30 37 C 7.826052 1.854576 3.685906 0
M  V30 38 C 6.733208 0.980566 3.640931 0
M  V30 39 C 5.764557 1.701622 2.975120 0
M  V30 40 N 4.682920 -2.268029 2.193580 0
M  V30 41 N 4.220436 -3.153945 1.314653 0
M  V30 42 H 1.726603 -2.885742 -0.925791 0
M  V30 43 H 1.835929 -4.406095 0.121630 0
M  V30 44 H 3.147092 -3.938116 -0.994980 0
M  V30 45 H 1.995828 -0.893488 1.009564 0
M  V30 46 H 3.330157 -0.253831 3.828086 0
M  V30 47 H 1.973091 2.898952 -1.405057 0
M  V30 48 H -0.287176 1.930706 -1.729136 0
M  V30 49 H -3.246764 2.269261 -0.542817 0
M  V30 50 H -3.448474 -0.498630 1.648750 0
M  V30 51 H -2.834183 -1.259541 0.173922 0
M  V30 52 H -6.350750 -1.030906 0.437872 0
M  V30 53 H -4.867785 -1.827925 1.096935 0
M  V30 54 H -6.165063 -2.694870 -1.082889 0
M  V30 55 H -1.711639 -3.925401 -1.168185 0
M  V30 56 H -1.093957 -6.233305 -1.360909 0
M  V30 57 H -2.733400 -8.003493 -1.517872 0
M  V30 58 H -5.172518 -7.405061 -1.477900 0
M  V30 59 H -4.493589 -1.490840 -3.001648 0
M  V30 60 H -6.893737 -1.710517 -2.505433 0
M  V30 61 H -5.099561 0.940183 -1.709394 0
M  V30 62 H -3.464660 0.308672 -1.865227 0
M  V30 63 H -1.622582 3.536028 1.987780 0
M  V30 64 H 0.652177 4.533900 2.357713 0
M  V30 65 H 8.067379 3.904124 2.918921 0
M  V30 66 H 8.802878 1.656612 4.136053 0
M  V30 67 H 6.676701 -0.020808 4.038568 0
M  V30 68 H 4.708617 -4.078256 1.124033 0
M  V30 END ATOM
M  V30 BEGIN BOND
M  V30 1 1 1 2
M  V30 2 2 2 3
M  V30 3 1 3 4
M  V30 4 1 4 5
M  V30 5 1 5 6
M  V30 6 2 6 7
M  V30 7 1 7 8
M  V30 8 1 8 9
M  V30 9 1 9 10
M  V30 10 2 10 11
M  V30 11 1 11 12
M  V30 12 2 12 13
M  V30 13 1 13 14
M  V30 14 1 14 15
M  V30 15 2 15 16
M  V30 16 1 15 17
M  V30 17 1 17 18
M  V30 18 1 18 19
M  V30 19 1 19 20
M  V30 20 1 20 21
M  V30 21 1 21 22
M  V30 22 2 22 23
M  V30 23 1 23 24
M  V30 24 2 24 25
M  V30 25 1 25 26
M  V30 26 2 26 27
M  V30 27 1 27 28
M  V30 28 1 20 29
M  V30 29 1 29 30
M  V30 30 1 29 31
M  V30 31 1 13 32
M  V30 32 2 32 33
M  V30 33 2 8 34
M  V30 34 1 34 35
M  V30 35 1 35 36
M  V30 36 2 36 37
M  V30 37 1 37 38
M  V30 38 2 38 39
M  V30 39 2 4 40
M  V30 40 1 40 41
M  V30 41 1 41 2
M  V30 42 1 39 6
M  V30 43 1 33 10
M  V30 44 1 39 35
M  V30 45 1 31 18
M  V30 46 1 27 22
M  V30 47 1 1 42
M  V30 48 1 1 43
M  V30 49 1 1 44
M  V30 50 1 3 45
M  V30 51 1 5 46
M  V30 52 1 11 47
M  V30 53 1 12 48
M  V30 54 1 14 49
M  V30 55 1 17 50
M  V30 56 1 17 51
M  V30 57 1 19 52
M  V30 58 1 19 53
M  V30 59 1 20 54 CFG=3
M  V30 60 1 23 55
M  V30 61 1 24 56
M  V30 62 1 25 57
M  V30 63 1 26 58
M  V30 64 1 29 59 CFG=3
M  V30 65 1 30 60
M  V30 66 1 31 61
M  V30 67 1 31 62
M  V30 68 1 32 63
M  V30 69 1 33 64
M  V30 70 1 36 65
M  V30 71 1 37 66
M  V30 72 1 38 67
M  V30 73 1 41 68
M  V30 END BOND
M  V30 END CTAB
M  END
>  <Dataset>  (894) 
ChEMBL_Kinases

>  <Ligand_Instance>  (894) 
nan

>  <PDB_ID>  (894) 
nan

>  <Standardized_SMILES>  (894) 
Cc1cc(Nc2nc(Sc3ccc(NC(=O)CN4C[C@H](Oc5ccccc5F)[C@@H](O)C4)cc3)nn3cccc23)n[nH]1

>  <Name>  (894) 
nan

>  <Pocket>  (894) 
nan

>  <ATP_Site>  (894) 
nan

>  <Peripheral>  (894) 
nan

>  <Num_H_Atoms_ProtBoundConf>  (894) 
nan

>  <Num_Resolved_Atoms>  (894) 
nan

>  <Num_Not_Resolved_Atoms>  (894) 
nan

$$$$
CHEMBL1822655
     RDKit          3D

  0  0  0  0  0  0  0  0  0  0999 V3000
M  V30 BEGIN CTAB
M  V30 COUNTS 70 74 0 0 0
M  V30 BEGIN ATOM
M  V30 1 C 4.037577 -1.583497 2.193539 0
M  V30 2 C 4.206215 -0.207312 1.680908 0
M  V30 3 C 4.823358 0.127659 0.498529 0
M  V30 4 C 4.794150 1.484767 0.352436 0
M  V30 5 N 5.210788 2.489770 -0.561745 0
M  V30 6 C 4.125500 2.690149 -1.486927 0
M  V30 7 N 3.136999 3.575936 -1.171017 0
M  V30 8 C 2.128581 3.753411 -2.050859 0
M  V30 9 S 0.940378 4.943588 -1.446404 0
M  V30 10 C -0.344317 4.145646 -0.494251 0
M  V30 11 C -1.541661 3.704359 -1.019384 0
M  V30 12 C -2.453260 3.085815 -0.188848 0
M  V30 13 C -2.092720 2.950423 1.135753 0
M  V30 14 N -3.020895 2.304016 2.043664 0
M  V30 15 C -2.678883 0.941742 1.871718 0
M  V30 16 O -1.731349 0.791761 1.022962 0
M  V30 17 C -3.283472 -0.258632 2.545197 0
M  V30 18 N -2.648949 -1.467046 2.072987 0
M  V30 19 C -2.980989 -1.723432 0.697206 0
M  V30 20 C -4.190695 -2.576421 0.791821 0
M  V30 21 N -5.424387 -2.653201 0.411034 0
M  V30 22 O -6.005494 -1.684999 -0.372303 0
M  V30 23 C -3.454409 -3.567814 1.647265 0 CFG=1
M  V30 24 O -2.425565 -4.048690 0.893395 0
M  V30 25 C -2.364684 -5.393403 0.674531 0
M  V30 26 C -1.147417 -5.683044 -0.172746 0
M  V30 27 C -2.186407 -6.182794 1.973980 0
M  V30 28 C -3.585109 -5.960873 -0.003458 0
M  V30 29 C -2.986821 -2.654542 2.768932 0
M  V30 30 C -0.909262 3.375646 1.703875 0
M  V30 31 C -0.014799 3.994754 0.836727 0
M  V30 32 N 2.123709 3.059555 -3.205551 0
M  V30 33 N 3.073540 2.200436 -3.522004 0
M  V30 34 C 3.202819 1.444896 -4.622986 0
M  V30 35 C 4.363217 0.721431 -4.471258 0
M  V30 36 C 4.952560 1.045063 -3.249259 0
M  V30 37 C 4.093579 1.990517 -2.682160 0
M  V30 38 N 4.153039 1.963032 1.459708 0
M  V30 39 N 3.807519 0.949509 2.242739 0
M  V30 40 H 4.463696 -1.618443 3.236973 0
M  V30 41 H 4.534689 -2.306000 1.537439 0
M  V30 42 H 2.959896 -1.851839 2.208503 0
M  V30 43 H 5.286552 -0.443547 -0.266526 0
M  V30 44 H 6.073465 3.057173 -0.680193 0
M  V30 45 H -1.718348 3.867548 -2.089812 0
M  V30 46 H -3.391451 2.735152 -0.578337 0
M  V30 47 H -3.794792 2.471914 2.746555 0
M  V30 48 H -4.381887 -0.269926 2.502395 0
M  V30 49 H -3.014238 -0.146886 3.622850 0
M  V30 50 H -2.137760 -2.279700 0.208423 0
M  V30 51 H -3.189032 -0.781930 0.136700 0
M  V30 52 H -5.473976 -0.823001 -0.565347 0
M  V30 53 H -4.177462 -4.281863 2.033530 0
M  V30 54 H -0.600878 -4.722571 -0.377758 0
M  V30 55 H -0.425560 -6.354023 0.347199 0
M  V30 56 H -1.486009 -6.120618 -1.131343 0
M  V30 57 H -3.091398 -6.122925 2.608867 0
M  V30 58 H -1.269302 -5.898629 2.514884 0
M  V30 59 H -2.090313 -7.259559 1.709890 0
M  V30 60 H -4.330948 -6.267035 0.771098 0
M  V30 61 H -3.979996 -5.332511 -0.800941 0
M  V30 62 H -3.277467 -6.922442 -0.502728 0
M  V30 63 H -2.035961 -3.088305 3.160770 0
M  V30 64 H -3.731531 -2.491663 3.545515 0
M  V30 65 H -0.711164 3.225508 2.761767 0
M  V30 66 H 0.910125 4.323094 1.298877 0
M  V30 67 H 2.606444 1.328053 -5.509835 0
M  V30 68 H 4.904532 -0.020471 -5.069949 0
M  V30 69 H 5.844544 0.735657 -2.724575 0
M  V30 70 H 3.305317 0.937289 3.165866 0
M  V30 END ATOM
M  V30 BEGIN BOND
M  V30 1 1 1 2
M  V30 2 2 2 3
M  V30 3 1 3 4
M  V30 4 1 4 5
M  V30 5 1 5 6
M  V30 6 2 6 7
M  V30 7 1 7 8
M  V30 8 1 8 9
M  V30 9 1 9 10
M  V30 10 2 10 11
M  V30 11 1 11 12
M  V30 12 2 12 13
M  V30 13 1 13 14
M  V30 14 1 14 15
M  V30 15 2 15 16
M  V30 16 1 15 17
M  V30 17 1 17 18
M  V30 18 1 18 19
M  V30 19 1 19 20
M  V30 20 2 20 21 CFG=2
M  V30 21 1 21 22
M  V30 22 1 20 23
M  V30 23 1 23 24
M  V30 24 1 24 25
M  V30 25 1 25 26
M  V30 26 1 25 27
M  V30 27 1 25 28
M  V30 28 1 23 29
M  V30 29 1 13 30
M  V30 30 2 30 31
M  V30 31 2 8 32
M  V30 32 1 32 33
M  V30 33 1 33 34
M  V30 34 2 34 35
M  V30 35 1 35 36
M  V30 36 2 36 37
M  V30 37 2 4 38
M  V30 38 1 38 39
M  V30 39 1 39 2
M  V30 40 1 37 6
M  V30 41 1 31 10
M  V30 42 1 37 33
M  V30 43 1 29 18
M  V30 44 1 1 40
M  V30 45 1 1 41
M  V30 46 1 1 42
M  V30 47 1 3 43
M  V30 48 1 5 44
M  V30 49 1 11 45
M  V30 50 1 12 46
M  V30 51 1 14 47
M  V30 52 1 17 48
M  V30 53 1 17 49
M  V30 54 1 19 50
M  V30 55 1 19 51
M  V30 56 1 22 52
M  V30 57 1 23 53 CFG=1
M  V30 58 1 26 54
M  V30 59 1 26 55
M  V30 60 1 26 56
M  V30 61 1 27 57
M  V30 62 1 27 58
M  V30 63 1 27 59
M  V30 64 1 28 60
M  V30 65 1 28 61
M  V30 66 1 28 62
M  V30 67 1 29 63
M  V30 68 1 29 64
M  V30 69 1 30 65
M  V30 70 1 31 66
M  V30 71 1 34 67
M  V30 72 1 35 68
M  V30 73 1 36 69
M  V30 74 1 39 70
M  V30 END BOND
M  V30 END CTAB
M  END
>  <Dataset>  (895) 
ChEMBL_Kinases

>  <Ligand_Instance>  (895) 
nan

>  <PDB_ID>  (895) 
nan

>  <Standardized_SMILES>  (895) 
Cc1cc(Nc2nc(Sc3ccc(NC(=O)CN4CC(=NO)[C@@H](OC(C)(C)C)C4)cc3)nn3cccc23)n[nH]1

>  <Name>  (895) 
nan

>  <Pocket>  (895) 
nan

>  <ATP_Site>  (895) 
nan

>  <Peripheral>  (895) 
nan

>  <Num_H_Atoms_ProtBoundConf>  (895) 
nan

>  <Num_Resolved_Atoms>  (895) 
nan

>  <Num_Not_Resolved_Atoms>  (895) 
nan

$$$$
CHEMBL1822654
     RDKit          3D

  0  0  0  0  0  0  0  0  0  0999 V3000
M  V30 BEGIN CTAB
M  V30 COUNTS 71 76 0 0 0
M  V30 BEGIN ATOM
M  V30 1 C 6.669036 -2.855807 4.702468 0
M  V30 2 C 6.143394 -2.381799 3.400084 0
M  V30 3 C 6.769792 -1.959884 2.244979 0
M  V30 4 C 5.865743 -1.605193 1.266076 0
M  V30 5 N 6.137654 -1.127934 -0.043744 0
M  V30 6 C 5.047400 -0.828677 -0.869514 0
M  V30 7 N 4.519439 0.418486 -0.864867 0
M  V30 8 C 3.467820 0.743189 -1.643202 0
M  V30 9 S 2.663415 2.334078 -1.747709 0
M  V30 10 C 1.333657 2.440866 -0.534237 0
M  V30 11 C 0.513694 3.531697 -0.365950 0
M  V30 12 C -0.475380 3.520476 0.591407 0
M  V30 13 C -0.668293 2.436055 1.393558 0
M  V30 14 N -1.662450 2.301709 2.423308 0
M  V30 15 C -2.878353 1.737781 1.919619 0
M  V30 16 O -2.697882 1.526585 0.691354 0
M  V30 17 C -3.979500 1.558139 2.925860 0
M  V30 18 N -5.152360 0.979060 2.279000 0
M  V30 19 C -4.893026 -0.362743 1.874556 0
M  V30 20 C -5.407964 -0.562866 0.483699 0 CFG=2
M  V30 21 O -4.374149 -0.983209 -0.322867 0
M  V30 22 C -4.465614 -2.201807 -0.907780 0
M  V30 23 C -4.554496 -2.049140 -2.401057 0
M  V30 24 C -3.387982 -2.790171 -2.992486 0
M  V30 25 C -2.495343 -3.235982 -1.860229 0
M  V30 26 C -3.365511 -3.166372 -0.620546 0
M  V30 27 C -5.882009 0.769198 0.030423 0 CFG=1
M  V30 28 O -7.241375 0.753726 -0.325605 0
M  V30 29 C -5.625625 1.709210 1.158005 0
M  V30 30 C 0.145672 1.309643 1.251266 0
M  V30 31 C 1.115688 1.348382 0.296405 0
M  V30 32 N 2.886559 -0.173404 -2.473228 0
M  V30 33 N 3.372008 -1.422695 -2.515284 0
M  V30 34 C 3.015888 -2.513083 -3.217536 0
M  V30 35 C 3.842313 -3.584764 -2.904370 0
M  V30 36 C 4.730630 -3.072323 -1.959428 0
M  V30 37 C 4.435284 -1.744936 -1.726085 0
M  V30 38 N 4.668559 -1.819253 1.847608 0
M  V30 39 N 4.820308 -2.268344 3.081402 0
M  V30 40 H 7.718390 -3.226245 4.571106 0
M  V30 41 H 6.710704 -2.067654 5.481180 0
M  V30 42 H 6.093655 -3.713533 5.106460 0
M  V30 43 H 7.867113 -1.931810 2.172950 0
M  V30 44 H 7.136490 -1.023350 -0.326792 0
M  V30 45 H 0.681755 4.381480 -1.010413 0
M  V30 46 H -1.128902 4.358831 0.742944 0
M  V30 47 H -1.456764 2.603696 3.420123 0
M  V30 48 H -4.318123 2.542897 3.335874 0
M  V30 49 H -3.674367 0.899269 3.752212 0
M  V30 50 H -5.402607 -1.097479 2.575915 0
M  V30 51 H -3.804414 -0.614537 1.880097 0
M  V30 52 H -6.229662 -1.315712 0.553541 0
M  V30 53 H -5.450279 -2.638727 -0.578476 0
M  V30 54 H -5.498583 -2.453766 -2.837431 0
M  V30 55 H -4.546235 -0.970680 -2.712570 0
M  V30 56 H -3.747283 -3.637677 -3.627092 0
M  V30 57 H -2.849656 -2.112206 -3.700037 0
M  V30 58 H -2.183314 -4.280602 -2.087493 0
M  V30 59 H -1.572691 -2.661273 -1.781140 0
M  V30 60 H -3.808499 -4.181476 -0.520949 0
M  V30 61 H -2.805602 -2.992144 0.301289 0
M  V30 62 H -5.272500 1.081820 -0.864887 0
M  V30 63 H -7.764964 0.908247 0.489519 0
M  V30 64 H -4.826601 2.454900 0.870942 0
M  V30 65 H -6.545365 2.279708 1.436889 0
M  V30 66 H 0.028432 0.410087 1.874998 0
M  V30 67 H 1.761365 0.472868 0.173092 0
M  V30 68 H 2.197761 -2.535832 -3.923480 0
M  V30 69 H 3.827761 -4.603759 -3.289368 0
M  V30 70 H 5.513547 -3.665251 -1.508278 0
M  V30 71 H 4.030073 -2.507410 3.733524 0
M  V30 END ATOM
M  V30 BEGIN BOND
M  V30 1 1 1 2
M  V30 2 2 2 3
M  V30 3 1 3 4
M  V30 4 1 4 5
M  V30 5 1 5 6
M  V30 6 2 6 7
M  V30 7 1 7 8
M  V30 8 1 8 9
M  V30 9 1 9 10
M  V30 10 2 10 11
M  V30 11 1 11 12
M  V30 12 2 12 13
M  V30 13 1 13 14
M  V30 14 1 14 15
M  V30 15 2 15 16
M  V30 16 1 15 17
M  V30 17 1 17 18
M  V30 18 1 18 19
M  V30 19 1 19 20
M  V30 20 1 20 21
M  V30 21 1 21 22
M  V30 22 1 22 23
M  V30 23 1 23 24
M  V30 24 1 24 25
M  V30 25 1 25 26
M  V30 26 1 20 27
M  V30 27 1 27 28
M  V30 28 1 27 29
M  V30 29 1 13 30
M  V30 30 2 30 31
M  V30 31 2 8 32
M  V30 32 1 32 33
M  V30 33 1 33 34
M  V30 34 2 34 35
M  V30 35 1 35 36
M  V30 36 2 36 37
M  V30 37 2 4 38
M  V30 38 1 38 39
M  V30 39 1 39 2
M  V30 40 1 37 6
M  V30 41 1 31 10
M  V30 42 1 37 33
M  V30 43 1 29 18
M  V30 44 1 26 22
M  V30 45 1 1 40
M  V30 46 1 1 41
M  V30 47 1 1 42
M  V30 48 1 3 43
M  V30 49 1 5 44
M  V30 50 1 11 45
M  V30 51 1 12 46
M  V30 52 1 14 47
M  V30 53 1 17 48
M  V30 54 1 17 49
M  V30 55 1 19 50
M  V30 56 1 19 51
M  V30 57 1 20 52 CFG=1
M  V30 58 1 22 53
M  V30 59 1 23 54
M  V30 60 1 23 55
M  V30 61 1 24 56
M  V30 62 1 24 57
M  V30 63 1 25 58
M  V30 64 1 25 59
M  V30 65 1 26 60
M  V30 66 1 26 61
M  V30 67 1 27 62 CFG=3
M  V30 68 1 28 63
M  V30 69 1 29 64
M  V30 70 1 29 65
M  V30 71 1 30 66
M  V30 72 1 31 67
M  V30 73 1 34 68
M  V30 74 1 35 69
M  V30 75 1 36 70
M  V30 76 1 39 71
M  V30 END BOND
M  V30 END CTAB
M  END
>  <Dataset>  (896) 
ChEMBL_Kinases

>  <Ligand_Instance>  (896) 
nan

>  <PDB_ID>  (896) 
nan

>  <Standardized_SMILES>  (896) 
Cc1cc(Nc2nc(Sc3ccc(NC(=O)CN4C[C@H](OC5CCCC5)[C@@H](O)C4)cc3)nn3cccc23)n[nH]1

>  <Name>  (896) 
nan

>  <Pocket>  (896) 
nan

>  <ATP_Site>  (896) 
nan

>  <Peripheral>  (896) 
nan

>  <Num_H_Atoms_ProtBoundConf>  (896) 
nan

>  <Num_Resolved_Atoms>  (896) 
nan

>  <Num_Not_Resolved_Atoms>  (896) 
nan

$$$$
CHEMBL1822653
     RDKit          3D

  0  0  0  0  0  0  0  0  0  0999 V3000
M  V30 BEGIN CTAB
M  V30 COUNTS 68 73 0 0 0
M  V30 BEGIN ATOM
M  V30 1 C 6.183255 -4.140787 4.584429 0
M  V30 2 C 5.799735 -2.909148 3.841513 0
M  V30 3 C 6.630614 -2.271662 2.922767 0
M  V30 4 C 5.876421 -1.201673 2.496293 0
M  V30 5 N 6.286238 -0.226121 1.538903 0
M  V30 6 C 5.577629 0.901896 1.042402 0
M  V30 7 N 4.788623 0.853351 -0.058190 0
M  V30 8 C 4.115138 1.942879 -0.521008 0
M  V30 9 S 3.098974 1.772750 -1.984868 0
M  V30 10 C 1.434441 1.297390 -1.537605 0
M  V30 11 C 0.462369 1.103654 -2.493180 0
M  V30 12 C -0.846637 0.733298 -2.212653 0
M  V30 13 C -1.191823 0.547218 -0.873326 0
M  V30 14 N -2.498013 0.165023 -0.456916 0
M  V30 15 C -3.442077 1.182876 -0.180643 0
M  V30 16 O -2.960654 2.363063 -0.352120 0
M  V30 17 C -4.846163 1.321703 0.255364 0
M  V30 18 N -5.447854 0.069566 0.458060 0
M  V30 19 C -5.656396 -0.684418 -0.711380 0
M  V30 20 C -5.460072 -2.114316 -0.360467 0 CFG=2
M  V30 21 O -6.506051 -2.928069 -0.843438 0
M  V30 22 C -5.979007 -3.898681 -1.711795 0
M  V30 23 C -5.280251 -3.296430 -2.902484 0
M  V30 24 C -4.681346 -4.223620 -3.895136 0
M  V30 25 C -3.757596 -3.486771 -2.966957 0
M  V30 26 C -5.351454 -2.165637 1.122080 0 CFG=1
M  V30 27 O -4.276373 -2.933040 1.571082 0
M  V30 28 C -5.101813 -0.719100 1.563537 0
M  V30 29 C -0.226694 0.737022 0.112189 0
M  V30 30 C 1.060544 1.105546 -0.225293 0
M  V30 31 N 4.250723 3.084721 0.145789 0
M  V30 32 N 4.995082 3.233040 1.227300 0
M  V30 33 C 5.266203 4.286049 2.042689 0
M  V30 34 C 6.131131 3.876144 3.054167 0
M  V30 35 C 6.340727 2.541426 2.778326 0
M  V30 36 C 5.649104 2.142979 1.663319 0
M  V30 37 N 4.704433 -1.236375 3.131231 0
M  V30 38 N 4.616026 -2.266515 3.964561 0
M  V30 39 H 5.421632 -4.948109 4.456602 0
M  V30 40 H 6.298631 -3.932950 5.667308 0
M  V30 41 H 7.147307 -4.532331 4.228485 0
M  V30 42 H 7.621085 -2.561997 2.630409 0
M  V30 43 H 7.226503 -0.276126 1.090737 0
M  V30 44 H 0.722110 1.246018 -3.531532 0
M  V30 45 H -1.597462 0.584653 -2.964011 0
M  V30 46 H -2.955379 -0.757481 -0.294275 0
M  V30 47 H -5.388962 1.963719 -0.480042 0
M  V30 48 H -4.816796 1.900659 1.213631 0
M  V30 49 H -4.954274 -0.433264 -1.550284 0
M  V30 50 H -6.723568 -0.583940 -1.078956 0
M  V30 51 H -4.513248 -2.515112 -0.834066 0
M  V30 52 H -6.783384 -4.589771 -2.027885 0
M  V30 53 H -5.252428 -4.549926 -1.148974 0
M  V30 54 H -5.676152 -2.339547 -3.310132 0
M  V30 55 H -4.597808 -3.967590 -4.974532 0
M  V30 56 H -4.792974 -5.310732 -3.740828 0
M  V30 57 H -3.268295 -4.074911 -2.162246 0
M  V30 58 H -3.151633 -2.639334 -3.345231 0
M  V30 59 H -6.309860 -2.541750 1.535208 0
M  V30 60 H -4.245007 -3.789966 1.086043 0
M  V30 61 H -4.034200 -0.592227 1.819071 0
M  V30 62 H -5.666877 -0.495481 2.494105 0
M  V30 63 H -0.415197 0.611534 1.183152 0
M  V30 64 H 1.858033 1.267744 0.515207 0
M  V30 65 H 4.891317 5.296639 1.955485 0
M  V30 66 H 6.553473 4.452673 3.875689 0
M  V30 67 H 6.985779 1.932906 3.404659 0
M  V30 68 H 3.843268 -2.564098 4.593429 0
M  V30 END ATOM
M  V30 BEGIN BOND
M  V30 1 1 1 2
M  V30 2 2 2 3
M  V30 3 1 3 4
M  V30 4 1 4 5
M  V30 5 1 5 6
M  V30 6 2 6 7
M  V30 7 1 7 8
M  V30 8 1 8 9
M  V30 9 1 9 10
M  V30 10 2 10 11
M  V30 11 1 11 12
M  V30 12 2 12 13
M  V30 13 1 13 14
M  V30 14 1 14 15
M  V30 15 2 15 16
M  V30 16 1 15 17
M  V30 17 1 17 18
M  V30 18 1 18 19
M  V30 19 1 19 20
M  V30 20 1 20 21
M  V30 21 1 21 22
M  V30 22 1 22 23
M  V30 23 1 23 24
M  V30 24 1 24 25
M  V30 25 1 20 26
M  V30 26 1 26 27
M  V30 27 1 26 28
M  V30 28 1 13 29
M  V30 29 2 29 30
M  V30 30 2 8 31
M  V30 31 1 31 32
M  V30 32 1 32 33
M  V30 33 2 33 34
M  V30 34 1 34 35
M  V30 35 2 35 36
M  V30 36 2 4 37
M  V30 37 1 37 38
M  V30 38 1 38 2
M  V30 39 1 36 6
M  V30 40 1 30 10
M  V30 41 1 36 32
M  V30 42 1 28 18
M  V30 43 1 25 23
M  V30 44 1 1 39
M  V30 45 1 1 40
M  V30 46 1 1 41
M  V30 47 1 3 42
M  V30 48 1 5 43
M  V30 49 1 11 44
M  V30 50 1 12 45
M  V30 51 1 14 46
M  V30 52 1 17 47
M  V30 53 1 17 48
M  V30 54 1 19 49
M  V30 55 1 19 50
M  V30 56 1 20 51 CFG=3
M  V30 57 1 22 52
M  V30 58 1 22 53
M  V30 59 1 23 54
M  V30 60 1 24 55
M  V30 61 1 24 56
M  V30 62 1 25 57
M  V30 63 1 25 58
M  V30 64 1 26 59 CFG=1
M  V30 65 1 27 60
M  V30 66 1 28 61
M  V30 67 1 28 62
M  V30 68 1 29 63
M  V30 69 1 30 64
M  V30 70 1 33 65
M  V30 71 1 34 66
M  V30 72 1 35 67
M  V30 73 1 38 68
M  V30 END BOND
M  V30 END CTAB
M  END
>  <Dataset>  (897) 
ChEMBL_Kinases

>  <Ligand_Instance>  (897) 
nan

>  <PDB_ID>  (897) 
nan

>  <Standardized_SMILES>  (897) 
Cc1cc(Nc2nc(Sc3ccc(NC(=O)CN4C[C@H](OCC5CC5)[C@@H](O)C4)cc3)nn3cccc23)n[nH]1

>  <Name>  (897) 
nan

>  <Pocket>  (897) 
nan

>  <ATP_Site>  (897) 
nan

>  <Peripheral>  (897) 
nan

>  <Num_H_Atoms_ProtBoundConf>  (897) 
nan

>  <Num_Resolved_Atoms>  (897) 
nan

>  <Num_Not_Resolved_Atoms>  (897) 
nan

$$$$
CHEMBL1822652
     RDKit          3D

  0  0  0  0  0  0  0  0  0  0999 V3000
M  V30 BEGIN CTAB
M  V30 COUNTS 67 71 0 0 0
M  V30 BEGIN ATOM
M  V30 1 C 3.707120 -2.595851 0.889229 0
M  V30 2 C 4.025100 -1.261205 0.312729 0
M  V30 3 C 4.810999 -0.261569 0.851197 0
M  V30 4 C 4.845389 0.820453 -0.002139 0
M  V30 5 N 5.507596 2.084869 0.088598 0
M  V30 6 C 4.575842 2.910690 0.810746 0
M  V30 7 N 3.598007 3.590283 0.147215 0
M  V30 8 C 2.738463 4.357585 0.878144 0
M  V30 9 S 1.421524 5.270271 0.044367 0
M  V30 10 C -0.051674 4.225333 -0.057903 0
M  V30 11 C -1.022618 4.207512 0.922508 0
M  V30 12 C -2.110584 3.368992 0.753933 0
M  V30 13 C -2.181292 2.589932 -0.378411 0
M  V30 14 N -3.286440 1.686589 -0.616030 0
M  V30 15 C -2.961384 0.417184 -0.062852 0
M  V30 16 O -1.794688 0.528102 0.453459 0
M  V30 17 C -3.904064 -0.722358 -0.149052 0
M  V30 18 N -3.392347 -1.915261 0.462379 0
M  V30 19 C -4.297640 -3.042885 0.415896 0
M  V30 20 C -3.637270 -4.136026 -0.392145 0 CFG=2
M  V30 21 O -3.159180 -5.109221 0.466035 0
M  V30 22 C -3.642486 -6.375967 0.180304 0
M  V30 23 C -4.257330 -7.099127 1.327935 0
M  V30 24 C -2.444211 -7.186153 -0.290920 0
M  V30 25 C -2.542769 -3.384004 -1.097312 0 CFG=1
M  V30 26 O -3.115355 -2.723557 -2.183341 0
M  V30 27 C -2.145130 -2.365097 -0.062461 0
M  V30 28 C -1.208232 2.590553 -1.387953 0
M  V30 29 C -0.112657 3.444460 -1.203869 0
M  V30 30 N 2.879433 4.422977 2.231101 0
M  V30 31 N 3.837606 3.755756 2.869048 0
M  V30 32 C 4.163927 3.672430 4.190008 0
M  V30 33 C 5.255744 2.835915 4.325812 0
M  V30 34 C 5.624070 2.382650 3.057073 0
M  V30 35 C 4.711793 2.984645 2.201055 0
M  V30 36 N 4.087126 0.487852 -1.056310 0
M  V30 37 N 3.615738 -0.721483 -0.864307 0
M  V30 38 H 3.098168 -3.151562 0.127180 0
M  V30 39 H 4.579114 -3.201292 1.131651 0
M  V30 40 H 3.022261 -2.457074 1.774003 0
M  V30 41 H 5.332803 -0.283864 1.789678 0
M  V30 42 H 6.449970 2.244630 -0.317103 0
M  V30 43 H -0.901480 4.837557 1.772441 0
M  V30 44 H -2.890853 3.315314 1.482034 0
M  V30 45 H -4.209578 1.873076 -1.110145 0
M  V30 46 H -4.220665 -0.881548 -1.176026 0
M  V30 47 H -4.820981 -0.415645 0.426687 0
M  V30 48 H -4.577888 -3.390168 1.433273 0
M  V30 49 H -5.206592 -2.719897 -0.126564 0
M  V30 50 H -4.325200 -4.565162 -1.151861 0
M  V30 51 H -4.337495 -6.360600 -0.705350 0
M  V30 52 H -3.737146 -6.845976 2.258337 0
M  V30 53 H -5.350173 -6.967894 1.443974 0
M  V30 54 H -4.075867 -8.195337 1.178705 0
M  V30 55 H -2.254093 -7.029256 -1.374745 0
M  V30 56 H -2.612570 -8.289935 -0.182590 0
M  V30 57 H -1.514472 -6.912196 0.268253 0
M  V30 58 H -1.698801 -4.032256 -1.400368 0
M  V30 59 H -2.848900 -3.114752 -3.050734 0
M  V30 60 H -1.619371 -2.927796 0.739251 0
M  V30 61 H -1.502394 -1.575634 -0.488992 0
M  V30 62 H -1.276419 1.973404 -2.272316 0
M  V30 63 H 0.652380 3.460576 -1.973293 0
M  V30 64 H 3.591329 4.220164 4.955657 0
M  V30 65 H 5.690143 2.621042 5.293689 0
M  V30 66 H 6.436476 1.720798 2.844254 0
M  V30 67 H 3.000929 -1.184200 -1.557968 0
M  V30 END ATOM
M  V30 BEGIN BOND
M  V30 1 1 1 2
M  V30 2 2 2 3
M  V30 3 1 3 4
M  V30 4 1 4 5
M  V30 5 1 5 6
M  V30 6 2 6 7
M  V30 7 1 7 8
M  V30 8 1 8 9
M  V30 9 1 9 10
M  V30 10 2 10 11
M  V30 11 1 11 12
M  V30 12 2 12 13
M  V30 13 1 13 14
M  V30 14 1 14 15
M  V30 15 2 15 16
M  V30 16 1 15 17
M  V30 17 1 17 18
M  V30 18 1 18 19
M  V30 19 1 19 20
M  V30 20 1 20 21
M  V30 21 1 21 22
M  V30 22 1 22 23
M  V30 23 1 22 24
M  V30 24 1 20 25
M  V30 25 1 25 26
M  V30 26 1 25 27
M  V30 27 1 13 28
M  V30 28 2 28 29
M  V30 29 2 8 30
M  V30 30 1 30 31
M  V30 31 1 31 32
M  V30 32 2 32 33
M  V30 33 1 33 34
M  V30 34 2 34 35
M  V30 35 2 4 36
M  V30 36 1 36 37
M  V30 37 1 37 2
M  V30 38 1 35 6
M  V30 39 1 29 10
M  V30 40 1 35 31
M  V30 41 1 27 18
M  V30 42 1 1 38
M  V30 43 1 1 39
M  V30 44 1 1 40
M  V30 45 1 3 41
M  V30 46 1 5 42
M  V30 47 1 11 43
M  V30 48 1 12 44
M  V30 49 1 14 45
M  V30 50 1 17 46
M  V30 51 1 17 47
M  V30 52 1 19 48
M  V30 53 1 19 49
M  V30 54 1 20 50 CFG=3
M  V30 55 1 22 51
M  V30 56 1 23 52
M  V30 57 1 23 53
M  V30 58 1 23 54
M  V30 59 1 24 55
M  V30 60 1 24 56
M  V30 61 1 24 57
M  V30 62 1 25 58 CFG=3
M  V30 63 1 26 59
M  V30 64 1 27 60
M  V30 65 1 27 61
M  V30 66 1 28 62
M  V30 67 1 29 63
M  V30 68 1 32 64
M  V30 69 1 33 65
M  V30 70 1 34 66
M  V30 71 1 37 67
M  V30 END BOND
M  V30 END CTAB
M  END
>  <Dataset>  (898) 
ChEMBL_Kinases

>  <Ligand_Instance>  (898) 
nan

>  <PDB_ID>  (898) 
nan

>  <Standardized_SMILES>  (898) 
Cc1cc(Nc2nc(Sc3ccc(NC(=O)CN4C[C@H](OC(C)C)[C@@H](O)C4)cc3)nn3cccc23)n[nH]1

>  <Name>  (898) 
nan

>  <Pocket>  (898) 
nan

>  <ATP_Site>  (898) 
nan

>  <Peripheral>  (898) 
nan

>  <Num_H_Atoms_ProtBoundConf>  (898) 
nan

>  <Num_Resolved_Atoms>  (898) 
nan

>  <Num_Not_Resolved_Atoms>  (898) 
nan

$$$$
CHEMBL1822651
     RDKit          3D

  0  0  0  0  0  0  0  0  0  0999 V3000
M  V30 BEGIN CTAB
M  V30 COUNTS 68 72 0 0 0
M  V30 BEGIN ATOM
M  V30 1 C 3.450668 -5.952780 3.889121 0
M  V30 2 O 3.313793 -4.817273 3.085917 0
M  V30 3 C 2.129514 -4.795348 2.416845 0
M  V30 4 C 1.877700 -3.623459 1.524568 0
M  V30 5 O 1.863213 -2.383756 2.104498 0
M  V30 6 C 3.027918 -1.947153 2.675863 0 CFG=1
M  V30 7 C 3.526428 -0.674382 1.961502 0
M  V30 8 N 3.559049 0.331284 2.939764 0
M  V30 9 C 3.979893 1.623239 2.668862 0
M  V30 10 C 3.006921 2.392192 1.870402 0
M  V30 11 O 3.488660 3.531521 1.613872 0
M  V30 12 N 1.735875 2.076846 1.396632 0
M  V30 13 C 0.602981 2.485312 0.666685 0
M  V30 14 C -0.477976 3.113841 1.296109 0
M  V30 15 C -1.586153 3.506129 0.549044 0
M  V30 16 C -1.525769 3.232575 -0.802885 0
M  V30 17 S -2.925503 3.685574 -1.856926 0
M  V30 18 C -4.072351 2.288264 -1.934146 0
M  V30 19 N -3.943284 1.344940 -2.885764 0
M  V30 20 C -4.767982 0.284167 -2.967984 0
M  V30 21 N -4.472215 -0.611412 -4.047914 0
M  V30 22 C -3.449851 -1.495575 -3.560604 0
M  V30 23 C -2.169208 -1.014010 -3.868430 0
M  V30 24 C -1.231229 -1.920373 -3.364595 0
M  V30 25 C 0.262870 -1.902496 -3.409206 0
M  V30 26 N -1.955805 -2.885128 -2.788971 0
M  V30 27 N -3.244180 -2.646876 -2.898113 0
M  V30 28 C -5.790747 0.134853 -2.056437 0
M  V30 29 C -6.735426 -0.863556 -1.960877 0
M  V30 30 C -7.490474 -0.484840 -0.861790 0
M  V30 31 C -6.970336 0.694560 -0.367130 0
M  V30 32 N -5.903345 1.086257 -1.114827 0
M  V30 33 N -5.094279 2.112439 -1.046940 0
M  V30 34 C -0.481326 2.618011 -1.454778 0
M  V30 35 C 0.614879 2.230348 -0.712595 0
M  V30 36 C 3.769564 -0.274032 4.201403 0
M  V30 37 C 2.869352 -1.500106 4.097009 0 CFG=2
M  V30 38 O 3.212668 -2.454649 5.045031 0
M  V30 39 H 2.626050 -5.955742 4.627950 0
M  V30 40 H 4.386563 -5.918952 4.481868 0
M  V30 41 H 3.459310 -6.878503 3.252975 0
M  V30 42 H 2.111734 -5.716169 1.757592 0
M  V30 43 H 1.249370 -4.926517 3.101049 0
M  V30 44 H 2.652035 -3.665678 0.694945 0
M  V30 45 H 0.917052 -3.751218 0.956508 0
M  V30 46 H 3.871617 -2.684923 2.599845 0
M  V30 47 H 2.828078 -0.455845 1.150256 0
M  V30 48 H 4.528302 -0.886322 1.497997 0
M  V30 49 H 5.003417 1.655714 2.163196 0
M  V30 50 H 4.186038 2.222912 3.611316 0
M  V30 51 H 1.360485 1.151487 1.673595 0
M  V30 52 H -0.435384 3.285408 2.363078 0
M  V30 53 H -2.426887 3.991590 1.018018 0
M  V30 54 H -4.795214 -0.773663 -5.045036 0
M  V30 55 H -1.742091 -0.142667 -4.382983 0
M  V30 56 H 0.713146 -1.576539 -2.446112 0
M  V30 57 H 0.691576 -2.895418 -3.634701 0
M  V30 58 H 0.638465 -1.226620 -4.233427 0
M  V30 59 H -1.674261 -3.760771 -2.286865 0
M  V30 60 H -6.817437 -1.717437 -2.618166 0
M  V30 61 H -8.333562 -1.030782 -0.476901 0
M  V30 62 H -7.349792 1.236704 0.491528 0
M  V30 63 H -0.490134 2.430694 -2.516882 0
M  V30 64 H 1.467542 1.745933 -1.154353 0
M  V30 65 H 3.463967 0.408689 5.010313 0
M  V30 66 H 4.805421 -0.664165 4.356337 0
M  V30 67 H 1.821066 -1.151035 4.216444 0
M  V30 68 H 2.461799 -3.056177 5.263165 0
M  V30 END ATOM
M  V30 BEGIN BOND
M  V30 1 1 1 2
M  V30 2 1 2 3
M  V30 3 1 3 4
M  V30 4 1 4 5
M  V30 5 1 5 6
M  V30 6 1 6 7
M  V30 7 1 7 8
M  V30 8 1 8 9
M  V30 9 1 9 10
M  V30 10 2 10 11
M  V30 11 1 10 12
M  V30 12 1 12 13
M  V30 13 2 13 14
M  V30 14 1 14 15
M  V30 15 2 15 16
M  V30 16 1 16 17
M  V30 17 1 17 18
M  V30 18 1 18 19
M  V30 19 2 19 20
M  V30 20 1 20 21
M  V30 21 1 21 22
M  V30 22 1 22 23
M  V30 23 2 23 24
M  V30 24 1 24 25
M  V30 25 1 24 26
M  V30 26 1 26 27
M  V30 27 1 20 28
M  V30 28 2 28 29
M  V30 29 1 29 30
M  V30 30 2 30 31
M  V30 31 1 31 32
M  V30 32 1 32 33
M  V30 33 1 16 34
M  V30 34 2 34 35
M  V30 35 1 8 36
M  V30 36 1 36 37
M  V30 37 1 37 38
M  V30 38 1 37 6
M  V30 39 1 35 13
M  V30 40 2 33 18
M  V30 41 2 27 22
M  V30 42 1 32 28
M  V30 43 1 1 39
M  V30 44 1 1 40
M  V30 45 1 1 41
M  V30 46 1 3 42
M  V30 47 1 3 43
M  V30 48 1 4 44
M  V30 49 1 4 45
M  V30 50 1 6 46 CFG=1
M  V30 51 1 7 47
M  V30 52 1 7 48
M  V30 53 1 9 49
M  V30 54 1 9 50
M  V30 55 1 12 51
M  V30 56 1 14 52
M  V30 57 1 15 53
M  V30 58 1 21 54
M  V30 59 1 23 55
M  V30 60 1 25 56
M  V30 61 1 25 57
M  V30 62 1 25 58
M  V30 63 1 26 59
M  V30 64 1 29 60
M  V30 65 1 30 61
M  V30 66 1 31 62
M  V30 67 1 34 63
M  V30 68 1 35 64
M  V30 69 1 36 65
M  V30 70 1 36 66
M  V30 71 1 37 67 CFG=1
M  V30 72 1 38 68
M  V30 END BOND
M  V30 END CTAB
M  END
>  <Dataset>  (899) 
ChEMBL_Kinases

>  <Ligand_Instance>  (899) 
nan

>  <PDB_ID>  (899) 
nan

>  <Standardized_SMILES>  (899) 
COCCO[C@H]1CN(CC(=O)Nc2ccc(Sc3nc(Nc4cc(C)[nH]n4)c4cccn4n3)cc2)C[C@@H]1O

>  <Name>  (899) 
nan

>  <Pocket>  (899) 
nan

>  <ATP_Site>  (899) 
nan

>  <Peripheral>  (899) 
nan

>  <Num_H_Atoms_ProtBoundConf>  (899) 
nan

>  <Num_Resolved_Atoms>  (899) 
nan

>  <Num_Not_Resolved_Atoms>  (899) 
nan

$$$$
CHEMBL1822650
     RDKit          3D

  0  0  0  0  0  0  0  0  0  0999 V3000
M  V30 BEGIN CTAB
M  V30 COUNTS 73 77 0 0 0
M  V30 BEGIN ATOM
M  V30 1 C 5.873209 -0.172683 2.286222 0
M  V30 2 C 5.057355 -1.385451 2.688259 0
M  V30 3 C 5.222830 -2.414712 1.581818 0
M  V30 4 C 4.387768 -3.622737 2.025685 0
M  V30 5 C 6.675580 -2.714911 1.490020 0
M  V30 6 O 4.623016 -1.895429 0.458825 0
M  V30 7 C 4.676667 -2.703000 -0.656834 0 CFG=1
M  V30 8 C 3.313835 -3.039223 -1.207766 0
M  V30 9 N 3.189128 -2.536893 -2.520078 0
M  V30 10 C 1.911144 -2.241467 -3.024694 0
M  V30 11 C 1.172381 -1.129963 -2.451687 0
M  V30 12 O 0.040444 -1.024448 -3.041064 0
M  V30 13 N 1.448392 -0.176282 -1.407925 0
M  V30 14 C 0.358987 0.726558 -1.237441 0
M  V30 15 C -0.528478 0.234044 -0.281497 0
M  V30 16 C -1.675725 0.916260 0.073871 0
M  V30 17 C -1.914783 2.135361 -0.571363 0
M  V30 18 S -3.363935 3.111668 -0.189199 0
M  V30 19 C -4.311641 2.306259 1.069473 0
M  V30 20 N -5.294142 1.407494 0.888880 0
M  V30 21 C -5.946354 0.857569 1.918275 0
M  V30 22 N -6.980171 -0.084103 1.773591 0
M  V30 23 C -7.454624 -0.548510 0.532128 0
M  V30 24 C -7.057465 -0.223921 -0.745283 0
M  V30 25 C -7.796614 -0.918948 -1.678948 0
M  V30 26 C -7.804861 -0.965755 -3.153726 0
M  V30 27 N -8.648994 -1.670499 -0.931074 0
M  V30 28 N -8.445240 -1.451604 0.335205 0
M  V30 29 C -5.535185 1.281668 3.160506 0
M  V30 30 C -6.007900 0.904705 4.419542 0
M  V30 31 C -5.305477 1.582561 5.399000 0
M  V30 32 C -4.413162 2.364291 4.719248 0
M  V30 33 N -4.560546 2.175428 3.388524 0
M  V30 34 N -3.943427 2.691686 2.322137 0
M  V30 35 C -1.038290 2.625006 -1.517832 0
M  V30 36 C 0.105467 1.931691 -1.862987 0
M  V30 37 C 4.240990 -1.628742 -2.798287 0
M  V30 38 C 5.305548 -1.900986 -1.769625 0 CFG=2
M  V30 39 O 6.410981 -2.547316 -2.319376 0
M  V30 40 H 5.792881 0.647474 3.029619 0
M  V30 41 H 6.938677 -0.471538 2.210646 0
M  V30 42 H 5.575910 0.239399 1.309967 0
M  V30 43 H 3.999252 -1.107608 2.845820 0
M  V30 44 H 5.530752 -1.777309 3.632968 0
M  V30 45 H 4.665891 -4.443362 1.348300 0
M  V30 46 H 4.477372 -3.836097 3.095017 0
M  V30 47 H 3.328733 -3.356473 1.787934 0
M  V30 48 H 6.788047 -3.816240 1.336062 0
M  V30 49 H 7.252062 -2.475673 2.411020 0
M  V30 50 H 7.208912 -2.212545 0.672389 0
M  V30 51 H 5.201737 -3.662424 -0.479544 0
M  V30 52 H 3.171396 -4.157558 -1.275585 0
M  V30 53 H 2.520309 -2.721417 -0.503897 0
M  V30 54 H 1.276742 -3.166371 -2.890848 0
M  V30 55 H 2.000149 -2.171394 -4.149256 0
M  V30 56 H 2.398932 -0.370696 -1.009338 0
M  V30 57 H -0.439120 -0.698201 0.278160 0
M  V30 58 H -2.395705 0.583961 0.803836 0
M  V30 59 H -7.425307 -0.462048 2.649398 0
M  V30 60 H -6.295112 0.459639 -1.031798 0
M  V30 61 H -6.862182 -0.541395 -3.554076 0
M  V30 62 H -8.711160 -0.491012 -3.593704 0
M  V30 63 H -7.828230 -2.026186 -3.528441 0
M  V30 64 H -9.408155 -2.365037 -1.161174 0
M  V30 65 H -6.798035 0.195805 4.630606 0
M  V30 66 H -5.418538 1.523912 6.470670 0
M  V30 67 H -3.662134 3.062531 5.095045 0
M  V30 68 H -1.183655 3.553721 -2.035411 0
M  V30 69 H 0.868813 2.196878 -2.579477 0
M  V30 70 H 3.970010 -0.572691 -2.800937 0
M  V30 71 H 4.674091 -1.893726 -3.806062 0
M  V30 72 H 5.686691 -0.927887 -1.393251 0
M  V30 73 H 6.353998 -3.498722 -2.016057 0
M  V30 END ATOM
M  V30 BEGIN BOND
M  V30 1 1 1 2
M  V30 2 1 2 3
M  V30 3 1 3 4
M  V30 4 1 3 5
M  V30 5 1 3 6
M  V30 6 1 6 7
M  V30 7 1 7 8
M  V30 8 1 8 9
M  V30 9 1 9 10
M  V30 10 1 10 11
M  V30 11 2 11 12
M  V30 12 1 11 13
M  V30 13 1 13 14
M  V30 14 2 14 15
M  V30 15 1 15 16
M  V30 16 2 16 17
M  V30 17 1 17 18
M  V30 18 1 18 19
M  V30 19 1 19 20
M  V30 20 2 20 21
M  V30 21 1 21 22
M  V30 22 1 22 23
M  V30 23 1 23 24
M  V30 24 2 24 25
M  V30 25 1 25 26
M  V30 26 1 25 27
M  V30 27 1 27 28
M  V30 28 1 21 29
M  V30 29 2 29 30
M  V30 30 1 30 31
M  V30 31 2 31 32
M  V30 32 1 32 33
M  V30 33 1 33 34
M  V30 34 1 17 35
M  V30 35 2 35 36
M  V30 36 1 9 37
M  V30 37 1 37 38
M  V30 38 1 38 39
M  V30 39 1 38 7
M  V30 40 1 36 14
M  V30 41 2 34 19
M  V30 42 2 28 23
M  V30 43 1 33 29
M  V30 44 1 1 40
M  V30 45 1 1 41
M  V30 46 1 1 42
M  V30 47 1 2 43
M  V30 48 1 2 44
M  V30 49 1 4 45
M  V30 50 1 4 46
M  V30 51 1 4 47
M  V30 52 1 5 48
M  V30 53 1 5 49
M  V30 54 1 5 50
M  V30 55 1 7 51 CFG=1
M  V30 56 1 8 52
M  V30 57 1 8 53
M  V30 58 1 10 54
M  V30 59 1 10 55
M  V30 60 1 13 56
M  V30 61 1 15 57
M  V30 62 1 16 58
M  V30 63 1 22 59
M  V30 64 1 24 60
M  V30 65 1 26 61
M  V30 66 1 26 62
M  V30 67 1 26 63
M  V30 68 1 27 64
M  V30 69 1 30 65
M  V30 70 1 31 66
M  V30 71 1 32 67
M  V30 72 1 35 68
M  V30 73 1 36 69
M  V30 74 1 37 70
M  V30 75 1 37 71
M  V30 76 1 38 72 CFG=1
M  V30 77 1 39 73
M  V30 END BOND
M  V30 END CTAB
M  END
>  <Dataset>  (900) 
ChEMBL_Kinases

>  <Ligand_Instance>  (900) 
nan

>  <PDB_ID>  (900) 
nan

>  <Standardized_SMILES>  (900) 
CCC(C)(C)O[C@H]1CN(CC(=O)Nc2ccc(Sc3nc(Nc4cc(C)[nH]n4)c4cccn4n3)cc2)C[C@@H]1O

>  <Name>  (900) 
nan

>  <Pocket>  (900) 
nan

>  <ATP_Site>  (900) 
nan

>  <Peripheral>  (900) 
nan

>  <Num_H_Atoms_ProtBoundConf>  (900) 
nan

>  <Num_Resolved_Atoms>  (900) 
nan

>  <Num_Not_Resolved_Atoms>  (900) 
nan

$$$$
CHEMBL1822649
     RDKit          3D

  0  0  0  0  0  0  0  0  0  0999 V3000
M  V30 BEGIN CTAB
M  V30 COUNTS 70 74 0 0 0
M  V30 BEGIN ATOM
M  V30 1 C 8.500561 -3.184776 2.746191 0
M  V30 2 C 8.223464 -1.724983 2.624657 0
M  V30 3 C 7.456278 -0.957233 3.479679 0
M  V30 4 C 7.421376 0.348168 3.055805 0
M  V30 5 N 6.761482 1.479714 3.619828 0
M  V30 6 C 5.475836 1.469202 2.991676 0
M  V30 7 N 5.252358 2.122280 1.834205 0
M  V30 8 C 4.031363 2.093823 1.267042 0
M  V30 9 S 3.674455 2.949458 -0.279148 0
M  V30 10 C 1.939903 2.662377 -0.692975 0
M  V30 11 C 1.639883 1.564684 -1.466593 0
M  V30 12 C 0.298179 1.357416 -1.775854 0
M  V30 13 C -0.643092 2.245207 -1.300513 0
M  V30 14 N -1.975647 1.891404 -1.707336 0
M  V30 15 C -2.517163 1.020191 -0.697756 0
M  V30 16 O -1.752245 0.763296 0.284642 0
M  V30 17 C -3.792884 0.323771 -0.513214 0
M  V30 18 N -4.737942 0.537244 -1.590115 0
M  V30 19 C -5.951933 -0.149017 -1.220827 0
M  V30 20 C -5.881184 -1.519443 -1.854011 0 CFG=2
M  V30 21 O -5.098355 -2.399928 -1.179128 0
M  V30 22 C -5.573406 -3.636227 -0.906128 0
M  V30 23 C -4.476325 -4.384458 -0.150146 0
M  V30 24 C -6.739402 -3.529660 0.053998 0
M  V30 25 C -5.992827 -4.493987 -2.048607 0
M  V30 26 F -4.980135 -4.760746 -2.949841 0
M  V30 27 F -6.298776 -5.746679 -1.494089 0
M  V30 28 F -7.168126 -4.096689 -2.653144 0
M  V30 29 C -5.121488 -1.176596 -3.145864 0 CFG=1
M  V30 30 O -6.026306 -0.933336 -4.181889 0
M  V30 31 C -4.303988 0.023792 -2.837697 0
M  V30 32 C -0.318210 3.336151 -0.528286 0
M  V30 33 C 1.001677 3.563267 -0.208493 0
M  V30 34 N 3.057964 1.391238 1.903128 0
M  V30 35 N 3.237161 0.742186 3.031929 0
M  V30 36 C 2.355377 0.019112 3.747154 0
M  V30 37 C 3.057026 -0.436877 4.829154 0
M  V30 38 C 4.354740 0.013929 4.758689 0
M  V30 39 C 4.450564 0.760307 3.611885 0
M  V30 40 N 8.176846 0.344273 1.939846 0
M  V30 41 N 8.643569 -0.862300 1.689066 0
M  V30 42 H 9.554138 -3.374555 2.953084 0
M  V30 43 H 7.852478 -3.595960 3.550665 0
M  V30 44 H 8.259487 -3.729980 1.806505 0
M  V30 45 H 6.952383 -1.339134 4.364031 0
M  V30 46 H 7.029054 2.210319 4.318619 0
M  V30 47 H 2.428675 0.903314 -1.809687 0
M  V30 48 H 0.103387 0.487121 -2.383843 0
M  V30 49 H -2.697467 2.034381 -2.462001 0
M  V30 50 H -4.285162 0.632657 0.436169 0
M  V30 51 H -3.569843 -0.772512 -0.389781 0
M  V30 52 H -6.791414 0.419404 -1.704874 0
M  V30 53 H -6.027313 -0.150818 -0.129525 0
M  V30 54 H -6.874491 -1.841629 -2.157315 0
M  V30 55 H -4.036956 -3.626673 0.553346 0
M  V30 56 H -3.678697 -4.741401 -0.859347 0
M  V30 57 H -4.947616 -5.201957 0.401730 0
M  V30 58 H -7.654091 -3.155855 -0.421830 0
M  V30 59 H -6.955808 -4.543880 0.473007 0
M  V30 60 H -6.408256 -2.924860 0.920654 0
M  V30 61 H -4.448098 -2.011330 -3.429678 0
M  V30 62 H -6.044515 -1.747800 -4.741840 0
M  V30 63 H -3.215846 -0.245539 -2.799049 0
M  V30 64 H -4.415783 0.822605 -3.611395 0
M  V30 65 H -1.131497 3.970603 -0.206793 0
M  V30 66 H 1.268347 4.415099 0.396172 0
M  V30 67 H 1.324830 -0.144706 3.492443 0
M  V30 68 H 2.611088 -1.060602 5.604055 0
M  V30 69 H 5.162274 -0.180578 5.475365 0
M  V30 70 H 9.257861 -1.169613 0.892698 0
M  V30 END ATOM
M  V30 BEGIN BOND
M  V30 1 1 1 2
M  V30 2 2 2 3
M  V30 3 1 3 4
M  V30 4 1 4 5
M  V30 5 1 5 6
M  V30 6 2 6 7
M  V30 7 1 7 8
M  V30 8 1 8 9
M  V30 9 1 9 10
M  V30 10 2 10 11
M  V30 11 1 11 12
M  V30 12 2 12 13
M  V30 13 1 13 14
M  V30 14 1 14 15
M  V30 15 2 15 16
M  V30 16 1 15 17
M  V30 17 1 17 18
M  V30 18 1 18 19
M  V30 19 1 19 20
M  V30 20 1 20 21
M  V30 21 1 21 22
M  V30 22 1 22 23
M  V30 23 1 22 24
M  V30 24 1 22 25
M  V30 25 1 25 26
M  V30 26 1 25 27
M  V30 27 1 25 28
M  V30 28 1 20 29
M  V30 29 1 29 30
M  V30 30 1 29 31
M  V30 31 1 13 32
M  V30 32 2 32 33
M  V30 33 2 8 34
M  V30 34 1 34 35
M  V30 35 1 35 36
M  V30 36 2 36 37
M  V30 37 1 37 38
M  V30 38 2 38 39
M  V30 39 2 4 40
M  V30 40 1 40 41
M  V30 41 1 41 2
M  V30 42 1 39 6
M  V30 43 1 33 10
M  V30 44 1 39 35
M  V30 45 1 31 18
M  V30 46 1 1 42
M  V30 47 1 1 43
M  V30 48 1 1 44
M  V30 49 1 3 45
M  V30 50 1 5 46
M  V30 51 1 11 47
M  V30 52 1 12 48
M  V30 53 1 14 49
M  V30 54 1 17 50
M  V30 55 1 17 51
M  V30 56 1 19 52
M  V30 57 1 19 53
M  V30 58 1 20 54 CFG=3
M  V30 59 1 23 55
M  V30 60 1 23 56
M  V30 61 1 23 57
M  V30 62 1 24 58
M  V30 63 1 24 59
M  V30 64 1 24 60
M  V30 65 1 29 61 CFG=3
M  V30 66 1 30 62
M  V30 67 1 31 63
M  V30 68 1 31 64
M  V30 69 1 32 65
M  V30 70 1 33 66
M  V30 71 1 36 67
M  V30 72 1 37 68
M  V30 73 1 38 69
M  V30 74 1 41 70
M  V30 END BOND
M  V30 END CTAB
M  END
>  <Dataset>  (901) 
ChEMBL_Kinases

>  <Ligand_Instance>  (901) 
nan

>  <PDB_ID>  (901) 
nan

>  <Standardized_SMILES>  (901) 
Cc1cc(Nc2nc(Sc3ccc(NC(=O)CN4C[C@H](OC(C)(C)C(F)(F)F)[C@@H](O)C4)cc3)nn3cccc23)n[nH]1

>  <Name>  (901) 
nan

>  <Pocket>  (901) 
nan

>  <ATP_Site>  (901) 
nan

>  <Peripheral>  (901) 
nan

>  <Num_H_Atoms_ProtBoundConf>  (901) 
nan

>  <Num_Resolved_Atoms>  (901) 
nan

>  <Num_Not_Resolved_Atoms>  (901) 
nan

$$$$
CHEMBL1822648
     RDKit          3D

  0  0  0  0  0  0  0  0  0  0999 V3000
M  V30 BEGIN CTAB
M  V30 COUNTS 57 61 0 0 0
M  V30 BEGIN ATOM
M  V30 1 C 3.920348 -4.022121 5.476420 0
M  V30 2 C 3.216231 -3.322621 4.364700 0
M  V30 3 C 3.983532 -2.985422 3.267198 0
M  V30 4 C 3.113626 -2.351052 2.401380 0
M  V30 5 N 3.016608 -1.721886 1.143237 0
M  V30 6 C 2.599643 -2.002864 -0.168377 0
M  V30 7 N 2.684264 -1.031086 -1.127953 0
M  V30 8 C 2.261601 -1.256829 -2.373707 0
M  V30 9 S 2.517681 0.255249 -3.351438 0
M  V30 10 C 1.051392 1.295819 -3.066028 0
M  V30 11 C 1.381380 2.062189 -1.932966 0
M  V30 12 C 0.385482 2.936578 -1.459723 0
M  V30 13 C -0.792998 2.944159 -2.154857 0
M  V30 14 N -1.826178 3.806776 -1.663935 0
M  V30 15 C -2.437865 2.881670 -0.739400 0
M  V30 16 O -1.895222 1.709962 -0.672493 0
M  V30 17 C -3.466056 2.494600 0.294519 0
M  V30 18 N -3.203855 1.169294 0.656847 0
M  V30 19 C -3.434535 0.104240 -0.236439 0
M  V30 20 C -4.304387 -0.899478 0.536487 0 CFG=2
M  V30 21 O -5.643003 -0.569745 0.489513 0
M  V30 22 C -3.779258 -0.720272 1.949876 0 CFG=1
M  V30 23 F -2.663053 -1.552641 2.094317 0
M  V30 24 C -3.367872 0.743849 1.991275 0
M  V30 25 C -1.112668 2.197617 -3.262829 0
M  V30 26 C -0.145758 1.339194 -3.733503 0
M  V30 27 N 1.729014 -2.446477 -2.771143 0
M  V30 28 N 1.627192 -3.436169 -1.860745 0
M  V30 29 C 1.146881 -4.676772 -1.999655 0
M  V30 30 C 1.260148 -5.313889 -0.758729 0
M  V30 31 C 1.823323 -4.360499 0.057828 0
M  V30 32 C 2.057566 -3.176458 -0.624397 0
M  V30 33 N 1.895156 -2.324783 2.980448 0
M  V30 34 N 1.957091 -2.916962 4.174466 0
M  V30 35 H 4.638479 -3.316802 5.964428 0
M  V30 36 H 4.439422 -4.900393 5.061551 0
M  V30 37 H 3.148300 -4.378892 6.214174 0
M  V30 38 H 4.999930 -3.052867 2.880759 0
M  V30 39 H 3.387378 -0.739349 1.315569 0
M  V30 40 H 2.273045 2.118182 -1.331561 0
M  V30 41 H 0.501253 3.595639 -0.588306 0
M  V30 42 H -2.485347 4.568781 -1.444440 0
M  V30 43 H -3.421148 3.238647 1.090678 0
M  V30 44 H -4.461980 2.641733 -0.222123 0
M  V30 45 H -3.840876 0.342761 -1.223521 0
M  V30 46 H -2.457987 -0.467747 -0.357978 0
M  V30 47 H -4.119020 -1.928303 0.180936 0
M  V30 48 H -5.909368 0.009044 1.242818 0
M  V30 49 H -4.544497 -0.945871 2.699474 0
M  V30 50 H -2.350580 0.810459 2.490346 0
M  V30 51 H -4.076385 1.273861 2.623413 0
M  V30 52 H -2.030668 2.189232 -3.825753 0
M  V30 53 H -0.141318 0.652822 -4.565830 0
M  V30 54 H 0.735853 -5.113853 -2.922354 0
M  V30 55 H 0.963909 -6.332035 -0.539416 0
M  V30 56 H 2.050399 -4.547533 1.117164 0
M  V30 57 H 1.207770 -3.084438 4.910869 0
M  V30 END ATOM
M  V30 BEGIN BOND
M  V30 1 1 1 2
M  V30 2 2 2 3
M  V30 3 1 3 4
M  V30 4 1 4 5
M  V30 5 1 5 6
M  V30 6 2 6 7
M  V30 7 1 7 8
M  V30 8 1 8 9
M  V30 9 1 9 10
M  V30 10 2 10 11
M  V30 11 1 11 12
M  V30 12 2 12 13
M  V30 13 1 13 14
M  V30 14 1 14 15
M  V30 15 2 15 16
M  V30 16 1 15 17
M  V30 17 1 17 18
M  V30 18 1 18 19
M  V30 19 1 19 20
M  V30 20 1 20 21
M  V30 21 1 20 22
M  V30 22 1 22 23
M  V30 23 1 22 24
M  V30 24 1 13 25
M  V30 25 2 25 26
M  V30 26 2 8 27
M  V30 27 1 27 28
M  V30 28 1 28 29
M  V30 29 2 29 30
M  V30 30 1 30 31
M  V30 31 2 31 32
M  V30 32 2 4 33
M  V30 33 1 33 34
M  V30 34 1 34 2
M  V30 35 1 32 6
M  V30 36 1 26 10
M  V30 37 1 32 28
M  V30 38 1 24 18
M  V30 39 1 1 35
M  V30 40 1 1 36
M  V30 41 1 1 37
M  V30 42 1 3 38
M  V30 43 1 5 39
M  V30 44 1 11 40
M  V30 45 1 12 41
M  V30 46 1 14 42
M  V30 47 1 17 43
M  V30 48 1 17 44
M  V30 49 1 19 45
M  V30 50 1 19 46
M  V30 51 1 20 47 CFG=3
M  V30 52 1 21 48
M  V30 53 1 22 49 CFG=1
M  V30 54 1 24 50
M  V30 55 1 24 51
M  V30 56 1 25 52
M  V30 57 1 26 53
M  V30 58 1 29 54
M  V30 59 1 30 55
M  V30 60 1 31 56
M  V30 61 1 34 57
M  V30 END BOND
M  V30 END CTAB
M  END
>  <Dataset>  (902) 
ChEMBL_Kinases

>  <Ligand_Instance>  (902) 
nan

>  <PDB_ID>  (902) 
nan

>  <Standardized_SMILES>  (902) 
Cc1cc(Nc2nc(Sc3ccc(NC(=O)CN4C[C@H](O)[C@@H](F)C4)cc3)nn3cccc23)n[nH]1

>  <Name>  (902) 
nan

>  <Pocket>  (902) 
nan

>  <ATP_Site>  (902) 
nan

>  <Peripheral>  (902) 
nan

>  <Num_H_Atoms_ProtBoundConf>  (902) 
nan

>  <Num_Resolved_Atoms>  (902) 
nan

>  <Num_Not_Resolved_Atoms>  (902) 
nan

$$$$
CHEMBL1807590
     RDKit          3D

  0  0  0  0  0  0  0  0  0  0999 V3000
M  V30 BEGIN CTAB
M  V30 COUNTS 56 60 0 0 0
M  V30 BEGIN ATOM
M  V30 1 C -0.048328 0.280417 -3.478633 0
M  V30 2 C 0.869752 0.540197 -2.336758 0
M  V30 3 C 2.236475 0.322121 -2.543635 0
M  V30 4 C 3.054078 0.573346 -1.462097 0
M  V30 5 C 2.606884 1.011143 -0.237246 0
M  V30 6 C 3.493479 1.276556 0.887846 0
M  V30 7 O 3.089670 1.673231 2.002669 0
M  V30 8 N 4.893069 1.107259 0.812716 0
M  V30 9 C 5.855708 1.334747 1.833794 0
M  V30 10 C 7.238674 1.706380 1.600687 0
M  V30 11 C 6.915870 0.283863 2.132627 0
M  V30 12 C 1.242600 1.222385 -0.050251 0
M  V30 13 C 0.404284 0.978635 -1.116925 0
M  V30 14 N -0.991941 1.181075 -0.973156 0
M  V30 15 C -1.548784 1.617899 0.280119 0
M  V30 16 N -1.278874 2.786162 0.887285 0
M  V30 17 C -1.896795 3.035726 2.055139 0
M  V30 18 N -2.772795 2.181778 2.654141 0
M  V30 19 N -2.997681 1.038057 1.998644 0
M  V30 20 C -3.835286 0.083394 2.437041 0
M  V30 21 C -3.841526 -0.969913 1.514997 0
M  V30 22 C -4.595115 -2.192042 1.588541 0
M  V30 23 O -5.802034 -1.952590 1.909632 0
M  V30 24 C -4.216176 -3.578904 1.366322 0
M  V30 25 C -5.161321 -4.485381 0.969400 0
M  V30 26 C -4.531447 -5.709410 0.841420 0
M  V30 27 N -3.230450 -5.597318 1.144318 0
M  V30 28 C -2.227906 -6.634811 1.135356 0
M  V30 29 C -3.046258 -4.300274 1.461898 0
M  V30 30 C -2.964897 -0.561480 0.533940 0
M  V30 31 C -2.569896 -1.266300 -0.709321 0
M  V30 32 C -2.432447 0.675491 0.813158 0
M  V30 33 H -0.767185 1.125691 -3.546787 0
M  V30 34 H -0.555159 -0.707585 -3.321320 0
M  V30 35 H 0.476256 0.203022 -4.433260 0
M  V30 36 H 2.647685 -0.021710 -3.484755 0
M  V30 37 H 4.108300 0.402718 -1.628533 0
M  V30 38 H 5.353326 0.778851 -0.063429 0
M  V30 39 H 5.402364 1.707456 2.791242 0
M  V30 40 H 7.757273 2.382428 2.321084 0
M  V30 41 H 7.754148 1.658344 0.629523 0
M  V30 42 H 7.229824 0.074283 3.158421 0
M  V30 43 H 7.010591 -0.564613 1.435443 0
M  V30 44 H 0.796802 1.559505 0.858629 0
M  V30 45 H -1.683509 1.036885 -1.719654 0
M  V30 46 H -1.643768 3.995007 2.505676 0
M  V30 47 H -4.448356 0.031932 3.330616 0
M  V30 48 H -6.219525 -4.365943 0.768870 0
M  V30 49 H -4.985883 -6.655277 0.540355 0
M  V30 50 H -2.708809 -7.609009 0.854574 0
M  V30 51 H -1.762190 -6.811052 2.131785 0
M  V30 52 H -1.499108 -6.435282 0.333653 0
M  V30 53 H -2.124729 -3.794172 1.767412 0
M  V30 54 H -1.474316 -1.197226 -0.848798 0
M  V30 55 H -3.158965 -0.913674 -1.581661 0
M  V30 56 H -2.792145 -2.347886 -0.629910 0
M  V30 END ATOM
M  V30 BEGIN BOND
M  V30 1 1 1 2
M  V30 2 2 2 3
M  V30 3 1 3 4
M  V30 4 2 4 5
M  V30 5 1 5 6
M  V30 6 2 6 7
M  V30 7 1 6 8
M  V30 8 1 8 9
M  V30 9 1 9 10
M  V30 10 1 10 11
M  V30 11 1 5 12
M  V30 12 2 12 13
M  V30 13 1 13 14
M  V30 14 1 14 15
M  V30 15 2 15 16
M  V30 16 1 16 17
M  V30 17 2 17 18
M  V30 18 1 18 19
M  V30 19 1 19 20
M  V30 20 2 20 21
M  V30 21 1 21 22
M  V30 22 2 22 23
M  V30 23 1 22 24
M  V30 24 1 24 25
M  V30 25 2 25 26
M  V30 26 1 26 27
M  V30 27 1 27 28
M  V30 28 1 27 29
M  V30 29 1 21 30
M  V30 30 1 30 31
M  V30 31 2 30 32
M  V30 32 1 13 2
M  V30 33 1 32 15
M  V30 34 1 11 9
M  V30 35 1 32 19
M  V30 36 2 29 24
M  V30 37 1 1 33
M  V30 38 1 1 34
M  V30 39 1 1 35
M  V30 40 1 3 36
M  V30 41 1 4 37
M  V30 42 1 8 38
M  V30 43 1 9 39
M  V30 44 1 10 40
M  V30 45 1 10 41
M  V30 46 1 11 42
M  V30 47 1 11 43
M  V30 48 1 12 44
M  V30 49 1 14 45
M  V30 50 1 17 46
M  V30 51 1 20 47
M  V30 52 1 25 48
M  V30 53 1 26 49
M  V30 54 1 28 50
M  V30 55 1 28 51
M  V30 56 1 28 52
M  V30 57 1 29 53
M  V30 58 1 31 54
M  V30 59 1 31 55
M  V30 60 1 31 56
M  V30 END BOND
M  V30 END CTAB
M  END
>  <Dataset>  (903) 
ChEMBL_Kinases

>  <Ligand_Instance>  (903) 
nan

>  <PDB_ID>  (903) 
nan

>  <Standardized_SMILES>  (903) 
Cc1ccc(C(=O)NC2CC2)cc1Nc1ncnn2cc(C(=O)c3ccn(C)c3)c(C)c12

>  <Name>  (903) 
nan

>  <Pocket>  (903) 
nan

>  <ATP_Site>  (903) 
nan

>  <Peripheral>  (903) 
nan

>  <Num_H_Atoms_ProtBoundConf>  (903) 
nan

>  <Num_Resolved_Atoms>  (903) 
nan

>  <Num_Not_Resolved_Atoms>  (903) 
nan

$$$$
CHEMBL1822489
     RDKit          3D

  0  0  0  0  0  0  0  0  0  0999 V3000
M  V30 BEGIN CTAB
M  V30 COUNTS 71 76 0 0 0
M  V30 BEGIN ATOM
M  V30 1 C 4.450037 -3.426311 6.969292 0
M  V30 2 C 3.565446 -2.836099 5.944626 0
M  V30 3 C 2.691670 -1.815833 6.216540 0
M  V30 4 C 2.066085 -1.562813 5.021492 0
M  V30 5 N 1.059740 -0.570854 4.801591 0
M  V30 6 C 0.301268 -0.183657 3.664042 0
M  V30 7 N 0.237424 1.137037 3.326729 0
M  V30 8 C -0.471009 1.547829 2.259296 0
M  V30 9 S -0.416324 3.303176 1.975436 0
M  V30 10 C -1.394894 3.777768 0.586507 0
M  V30 11 C -2.697654 4.120714 0.967334 0
M  V30 12 C -3.627744 4.525912 0.020590 0
M  V30 13 C -3.270011 4.592859 -1.311278 0
M  V30 14 N -4.041982 4.993868 -2.430871 0
M  V30 15 C -4.142484 6.273229 -3.037746 0
M  V30 16 O -3.463532 7.232888 -2.544857 0
M  V30 17 C -5.053093 6.329616 -4.203215 0
M  V30 18 C -4.367413 6.957236 -5.420651 0
M  V30 19 C -5.524389 7.611616 -4.762594 0
M  V30 20 C -1.986120 4.255357 -1.694334 0
M  V30 21 C -1.043527 3.845800 -0.742772 0
M  V30 22 N -1.125321 0.638576 1.516541 0
M  V30 23 N -1.083648 -0.660460 1.819483 0
M  V30 24 C -1.675266 -1.683083 1.175934 0
M  V30 25 C -1.289677 -2.779730 1.916761 0
M  V30 26 N -1.728897 -4.070067 1.516445 0
M  V30 27 C -0.817142 -4.683569 0.619628 0
M  V30 28 O 0.242033 -4.005337 0.310065 0
M  V30 29 C -0.067831 -5.500597 -0.283240 0
M  V30 30 N 1.120752 -5.012665 -0.809964 0
M  V30 31 C 1.187921 -3.989034 -1.756329 0
M  V30 32 C 2.643531 -3.911324 -2.238659 0
M  V30 33 C 3.292744 -5.157108 -1.706685 0
M  V30 34 C 2.118492 -5.953687 -1.160662 0 CFG=2
M  V30 35 C 1.592542 -6.771833 -2.348661 0
M  V30 36 O 2.578672 -7.715729 -2.723806 0
M  V30 37 C -0.484634 -2.491842 2.994554 0
M  V30 38 C -0.378356 -1.121917 2.891664 0
M  V30 39 N 2.575398 -2.411711 4.122708 0
M  V30 40 N 3.486085 -3.194618 4.656849 0
M  V30 41 H 3.928083 -4.262995 7.485022 0
M  V30 42 H 5.345699 -3.891985 6.496425 0
M  V30 43 H 4.744445 -2.651714 7.708521 0
M  V30 44 H 2.496245 -1.290666 7.136171 0
M  V30 45 H 0.773176 0.038734 5.623426 0
M  V30 46 H -3.137177 4.123597 1.960462 0
M  V30 47 H -4.653694 4.812350 0.209436 0
M  V30 48 H -4.528403 4.089476 -2.701189 0
M  V30 49 H -5.622135 5.416907 -4.521273 0
M  V30 50 H -3.375002 7.431268 -5.296707 0
M  V30 51 H -4.470750 6.478984 -6.411090 0
M  V30 52 H -5.334953 8.565340 -4.238407 0
M  V30 53 H -6.470926 7.627921 -5.335471 0
M  V30 54 H -1.564854 4.252324 -2.668912 0
M  V30 55 H -0.037204 3.563234 -0.933301 0
M  V30 56 H -2.287966 -1.611514 0.302606 0
M  V30 57 H -2.323927 -4.915335 1.450385 0
M  V30 58 H -0.743448 -5.792430 -1.138450 0
M  V30 59 H 0.124270 -6.501940 0.216410 0
M  V30 60 H 0.780294 -3.004623 -1.565341 0
M  V30 61 H 0.602654 -4.346724 -2.666850 0
M  V30 62 H 3.132711 -2.978214 -1.877190 0
M  V30 63 H 2.656682 -3.838540 -3.343518 0
M  V30 64 H 4.045376 -4.958437 -0.928722 0
M  V30 65 H 3.744047 -5.696904 -2.582335 0
M  V30 66 H 2.418462 -6.657935 -0.357577 0
M  V30 67 H 1.454071 -6.115763 -3.232271 0
M  V30 68 H 0.634615 -7.269466 -2.112566 0
M  V30 69 H 2.235539 -8.247896 -3.470752 0
M  V30 70 H -0.059419 -3.163783 3.720859 0
M  V30 71 H 4.071871 -3.966307 4.224015 0
M  V30 END ATOM
M  V30 BEGIN BOND
M  V30 1 1 1 2
M  V30 2 2 2 3
M  V30 3 1 3 4
M  V30 4 1 4 5
M  V30 5 1 5 6
M  V30 6 2 6 7
M  V30 7 1 7 8
M  V30 8 1 8 9
M  V30 9 1 9 10
M  V30 10 2 10 11
M  V30 11 1 11 12
M  V30 12 2 12 13
M  V30 13 1 13 14
M  V30 14 1 14 15
M  V30 15 2 15 16
M  V30 16 1 15 17
M  V30 17 1 17 18
M  V30 18 1 18 19
M  V30 19 1 13 20
M  V30 20 2 20 21
M  V30 21 2 8 22
M  V30 22 1 22 23
M  V30 23 1 23 24
M  V30 24 2 24 25
M  V30 25 1 25 26
M  V30 26 1 26 27
M  V30 27 2 27 28
M  V30 28 1 27 29
M  V30 29 1 29 30
M  V30 30 1 30 31
M  V30 31 1 31 32
M  V30 32 1 32 33
M  V30 33 1 33 34
M  V30 34 1 34 35
M  V30 35 1 35 36
M  V30 36 1 25 37
M  V30 37 2 37 38
M  V30 38 2 4 39
M  V30 39 1 39 40
M  V30 40 1 40 2
M  V30 41 1 38 6
M  V30 42 1 21 10
M  V30 43 1 38 23
M  V30 44 1 19 17
M  V30 45 1 34 30
M  V30 46 1 1 41
M  V30 47 1 1 42
M  V30 48 1 1 43
M  V30 49 1 3 44
M  V30 50 1 5 45
M  V30 51 1 11 46
M  V30 52 1 12 47
M  V30 53 1 14 48
M  V30 54 1 17 49
M  V30 55 1 18 50
M  V30 56 1 18 51
M  V30 57 1 19 52
M  V30 58 1 19 53
M  V30 59 1 20 54
M  V30 60 1 21 55
M  V30 61 1 24 56
M  V30 62 1 26 57
M  V30 63 1 29 58
M  V30 64 1 29 59
M  V30 65 1 31 60
M  V30 66 1 31 61
M  V30 67 1 32 62
M  V30 68 1 32 63
M  V30 69 1 33 64
M  V30 70 1 33 65
M  V30 71 1 34 66 CFG=1
M  V30 72 1 35 67
M  V30 73 1 35 68
M  V30 74 1 36 69
M  V30 75 1 37 70
M  V30 76 1 40 71
M  V30 END BOND
M  V30 END CTAB
M  END
>  <Dataset>  (904) 
ChEMBL_Kinases

>  <Ligand_Instance>  (904) 
nan

>  <PDB_ID>  (904) 
nan

>  <Standardized_SMILES>  (904) 
Cc1cc(Nc2nc(Sc3ccc(NC(=O)C4CC4)cc3)nn3cc(NC(=O)CN4CCC[C@@H]4CO)cc23)n[nH]1

>  <Name>  (904) 
nan

>  <Pocket>  (904) 
nan

>  <ATP_Site>  (904) 
nan

>  <Peripheral>  (904) 
nan

>  <Num_H_Atoms_ProtBoundConf>  (904) 
nan

>  <Num_Resolved_Atoms>  (904) 
nan

>  <Num_Not_Resolved_Atoms>  (904) 
nan

$$$$
CHEMBL1822490
     RDKit          3D

  0  0  0  0  0  0  0  0  0  0999 V3000
M  V30 BEGIN CTAB
M  V30 COUNTS 71 76 0 0 0
M  V30 BEGIN ATOM
M  V30 1 C 4.352617 -5.176003 0.328008 0
M  V30 2 C 4.028205 -4.763087 1.712396 0
M  V30 3 C 3.765621 -3.541069 2.252155 0
M  V30 4 C 3.510928 -3.494672 3.572473 0
M  V30 5 N 3.173187 -2.475798 4.496669 0
M  V30 6 C 2.890895 -1.307565 3.788250 0
M  V30 7 N 3.821918 -0.474330 3.173421 0
M  V30 8 C 3.302336 0.602585 2.570418 0
M  V30 9 S 4.019130 1.904766 1.523493 0
M  V30 10 C 3.760659 1.452536 -0.205026 0
M  V30 11 C 3.454717 2.447933 -1.052885 0
M  V30 12 C 3.148037 2.553234 -2.419742 0
M  V30 13 C 3.205567 1.235432 -2.913351 0
M  V30 14 N 2.873289 0.906341 -4.294690 0
M  V30 15 C 1.478637 0.578476 -4.045217 0
M  V30 16 O 1.125548 0.701217 -2.855915 0
M  V30 17 C 0.596900 0.121312 -5.189582 0
M  V30 18 C -0.103824 -1.190930 -4.827617 0
M  V30 19 C -0.857862 0.062519 -5.013561 0
M  V30 20 C 3.515726 0.092967 -2.151820 0
M  V30 21 C 3.790473 0.218130 -0.797133 0
M  V30 22 N 2.030226 0.966078 2.499707 0
M  V30 23 N 1.062377 0.208161 3.072135 0
M  V30 24 C -0.314497 0.086794 3.228880 0
M  V30 25 C -0.778666 -1.111913 3.969665 0
M  V30 26 N -2.153414 -0.696905 3.813007 0
M  V30 27 C -2.689856 -1.178340 2.573408 0
M  V30 28 O -2.004299 -1.880293 1.778876 0
M  V30 29 C -3.892098 -1.124116 1.829934 0
M  V30 30 O -4.665897 -0.587461 2.650115 0
M  V30 31 N -5.185029 -0.936634 1.358471 0
M  V30 32 C -6.497142 -0.509647 1.795071 0
M  V30 33 C -6.713124 0.842420 1.174019 0
M  V30 34 N -6.415699 0.964551 -0.205442 0
M  V30 35 C -6.071384 2.367001 -0.459335 0
M  V30 36 C -5.407730 0.168291 -0.777306 0
M  V30 37 C -5.234784 -1.182329 -0.097504 0
M  V30 38 C 0.476302 -1.526482 4.132661 0
M  V30 39 C 1.582592 -0.885756 3.680139 0
M  V30 40 N 3.618233 -4.817123 3.933836 0
M  V30 41 N 3.920508 -5.545487 2.843955 0
M  V30 42 H 5.056247 -4.413238 -0.131822 0
M  V30 43 H 4.864571 -6.159949 0.284223 0
M  V30 44 H 3.433356 -5.133066 -0.264587 0
M  V30 45 H 3.774916 -2.639958 1.630461 0
M  V30 46 H 3.162024 -2.643865 5.515418 0
M  V30 47 H 3.415163 3.496217 -0.677034 0
M  V30 48 H 2.910110 3.302205 -3.099470 0
M  V30 49 H 3.338470 0.871921 -5.217338 0
M  V30 50 H 0.991908 0.098489 -6.210688 0
M  V30 51 H 0.020980 -1.569024 -3.771341 0
M  V30 52 H -0.158163 -1.980397 -5.573665 0
M  V30 53 H -1.357771 0.520298 -4.125180 0
M  V30 54 H -1.486940 0.185694 -5.936145 0
M  V30 55 H 3.546945 -0.918504 -2.564665 0
M  V30 56 H 4.035077 -0.595309 -0.121967 0
M  V30 57 H -0.689366 1.027264 2.695017 0
M  V30 58 H -2.817587 -0.156490 4.361990 0
M  V30 59 H -7.257888 -1.202730 1.387871 0
M  V30 60 H -6.565023 -0.372587 2.907497 0
M  V30 61 H -6.214114 1.594700 1.833630 0
M  V30 62 H -7.823679 1.069196 1.303996 0
M  V30 63 H -5.999152 2.944863 0.486117 0
M  V30 64 H -5.075896 2.445522 -0.959190 0
M  V30 65 H -6.810563 2.882090 -1.087015 0
M  V30 66 H -5.622794 -0.020106 -1.843491 0
M  V30 67 H -4.380536 0.625146 -0.768247 0
M  V30 68 H -4.352033 -1.663483 -0.493942 0
M  V30 69 H -6.133615 -1.758246 -0.315892 0
M  V30 70 H 0.255366 -2.448618 4.714068 0
M  V30 71 H 4.057936 -6.592270 2.865953 0
M  V30 END ATOM
M  V30 BEGIN BOND
M  V30 1 1 1 2
M  V30 2 2 2 3
M  V30 3 1 3 4
M  V30 4 1 4 5
M  V30 5 1 5 6
M  V30 6 2 6 7
M  V30 7 1 7 8
M  V30 8 1 8 9
M  V30 9 1 9 10
M  V30 10 2 10 11
M  V30 11 1 11 12
M  V30 12 2 12 13
M  V30 13 1 13 14
M  V30 14 1 14 15
M  V30 15 2 15 16
M  V30 16 1 15 17
M  V30 17 1 17 18
M  V30 18 1 18 19
M  V30 19 1 13 20
M  V30 20 2 20 21
M  V30 21 2 8 22
M  V30 22 1 22 23
M  V30 23 1 23 24
M  V30 24 2 24 25
M  V30 25 1 25 26
M  V30 26 1 26 27
M  V30 27 2 27 28
M  V30 28 1 27 29
M  V30 29 2 29 30
M  V30 30 1 29 31
M  V30 31 1 31 32
M  V30 32 1 32 33
M  V30 33 1 33 34
M  V30 34 1 34 35
M  V30 35 1 34 36
M  V30 36 1 36 37
M  V30 37 1 25 38
M  V30 38 2 38 39
M  V30 39 2 4 40
M  V30 40 1 40 41
M  V30 41 1 41 2
M  V30 42 1 39 6
M  V30 43 1 21 10
M  V30 44 1 39 23
M  V30 45 1 19 17
M  V30 46 1 37 31
M  V30 47 1 1 42
M  V30 48 1 1 43
M  V30 49 1 1 44
M  V30 50 1 3 45
M  V30 51 1 5 46
M  V30 52 1 11 47
M  V30 53 1 12 48
M  V30 54 1 14 49
M  V30 55 1 17 50
M  V30 56 1 18 51
M  V30 57 1 18 52
M  V30 58 1 19 53
M  V30 59 1 19 54
M  V30 60 1 20 55
M  V30 61 1 21 56
M  V30 62 1 24 57
M  V30 63 1 26 58
M  V30 64 1 32 59
M  V30 65 1 32 60
M  V30 66 1 33 61
M  V30 67 1 33 62
M  V30 68 1 35 63
M  V30 69 1 35 64
M  V30 70 1 35 65
M  V30 71 1 36 66
M  V30 72 1 36 67
M  V30 73 1 37 68
M  V30 74 1 37 69
M  V30 75 1 38 70
M  V30 76 1 41 71
M  V30 END BOND
M  V30 END CTAB
M  END
>  <Dataset>  (905) 
ChEMBL_Kinases

>  <Ligand_Instance>  (905) 
nan

>  <PDB_ID>  (905) 
nan

>  <Standardized_SMILES>  (905) 
Cc1cc(Nc2nc(Sc3ccc(NC(=O)C4CC4)cc3)nn3cc(NC(=O)C(=O)N4CCN(C)CC4)cc23)n[nH]1

>  <Name>  (905) 
nan

>  <Pocket>  (905) 
nan

>  <ATP_Site>  (905) 
nan

>  <Peripheral>  (905) 
nan

>  <Num_H_Atoms_ProtBoundConf>  (905) 
nan

>  <Num_Resolved_Atoms>  (905) 
nan

>  <Num_Not_Resolved_Atoms>  (905) 
nan

$$$$
CHEMBL1822491
     RDKit          3D

  0  0  0  0  0  0  0  0  0  0999 V3000
M  V30 BEGIN CTAB
M  V30 COUNTS 53 57 0 0 0
M  V30 BEGIN ATOM
M  V30 1 C -3.066261 -2.222930 -3.105755 0
M  V30 2 C -3.302219 -1.828836 -1.704891 0
M  V30 3 C -3.156356 -2.620664 -0.604209 0
M  V30 4 C -3.497169 -1.884247 0.512854 0
M  V30 5 N -3.563948 -2.053325 1.933087 0
M  V30 6 C -2.621252 -1.270252 2.686640 0
M  V30 7 N -2.446944 0.065184 2.445063 0
M  V30 8 C -1.535564 0.760227 3.194075 0
M  V30 9 S -1.501244 2.487146 2.673729 0
M  V30 10 C -0.368466 2.679085 1.332568 0
M  V30 11 C 0.140059 3.623897 0.639188 0
M  V30 12 C 0.941817 4.039700 -0.376981 0
M  V30 13 C 1.386345 2.774183 -0.841013 0
M  V30 14 N 2.277356 2.697129 -1.946751 0
M  V30 15 C 2.189324 1.937431 -3.070867 0
M  V30 16 O 1.105520 1.224071 -3.008523 0
M  V30 17 C 2.343586 1.231962 -4.389288 0
M  V30 18 N 1.306579 0.307689 -4.607681 0
M  V30 19 C 1.507590 -0.573473 -5.743720 0
M  V30 20 C 2.806093 -1.400066 -5.553537 0
M  V30 21 C 2.582665 -0.410962 -6.708546 0
M  V30 22 C 1.072537 1.451358 -0.365395 0
M  V30 23 C 0.179360 1.507788 0.734933 0
M  V30 24 N -0.821804 0.126363 4.152175 0
M  V30 25 N -1.033397 -1.172706 4.343245 0
M  V30 26 C -0.364943 -1.884859 5.331730 0
M  V30 27 C -0.846754 -3.160476 5.255000 0
M  V30 28 C -1.787223 -3.252776 4.257775 0
M  V30 29 C -1.908056 -1.982808 3.675122 0
M  V30 30 N -3.844744 -0.658664 0.083547 0
M  V30 31 N -3.720224 -0.654162 -1.230760 0
M  V30 32 H -3.950172 -2.789808 -3.532295 0
M  V30 33 H -2.995707 -1.266498 -3.686052 0
M  V30 34 H -2.174898 -2.839720 -3.285530 0
M  V30 35 H -2.853330 -3.632388 -0.462257 0
M  V30 36 H -4.302110 -2.726431 2.235030 0
M  V30 37 H -0.282566 4.586692 1.088098 0
M  V30 38 H 1.248452 4.927693 -0.823759 0
M  V30 39 H 3.176768 3.086530 -2.315805 0
M  V30 40 H 2.314026 2.091459 -5.138835 0
M  V30 41 H 3.359169 0.830403 -4.494948 0
M  V30 42 H 0.943924 -0.240592 -3.792253 0
M  V30 43 H 0.649333 -1.257359 -6.002253 0
M  V30 44 H 3.531012 -1.110302 -4.798193 0
M  V30 45 H 2.771259 -2.481743 -5.753612 0
M  V30 46 H 2.519376 -0.941605 -7.697022 0
M  V30 47 H 3.256707 0.453913 -6.774317 0
M  V30 48 H 1.460286 0.571544 -0.793375 0
M  V30 49 H -0.038515 0.472282 1.070591 0
M  V30 50 H 0.378710 -1.692544 6.083650 0
M  V30 51 H -0.744131 -4.131699 5.705803 0
M  V30 52 H -2.459866 -3.960215 3.773485 0
M  V30 53 H -3.917218 0.163839 -1.868557 0
M  V30 END ATOM
M  V30 BEGIN BOND
M  V30 1 1 1 2
M  V30 2 2 2 3
M  V30 3 1 3 4
M  V30 4 1 4 5
M  V30 5 1 5 6
M  V30 6 2 6 7
M  V30 7 1 7 8
M  V30 8 1 8 9
M  V30 9 1 9 10
M  V30 10 2 10 11
M  V30 11 1 11 12
M  V30 12 2 12 13
M  V30 13 1 13 14
M  V30 14 1 14 15
M  V30 15 2 15 16
M  V30 16 1 15 17
M  V30 17 1 17 18
M  V30 18 1 18 19
M  V30 19 1 19 20
M  V30 20 1 20 21
M  V30 21 1 13 22
M  V30 22 2 22 23
M  V30 23 2 8 24
M  V30 24 1 24 25
M  V30 25 1 25 26
M  V30 26 2 26 27
M  V30 27 1 27 28
M  V30 28 2 28 29
M  V30 29 2 4 30
M  V30 30 1 30 31
M  V30 31 1 31 2
M  V30 32 1 29 6
M  V30 33 1 23 10
M  V30 34 1 29 25
M  V30 35 1 21 19
M  V30 36 1 1 32
M  V30 37 1 1 33
M  V30 38 1 1 34
M  V30 39 1 3 35
M  V30 40 1 5 36
M  V30 41 1 11 37
M  V30 42 1 12 38
M  V30 43 1 14 39
M  V30 44 1 17 40
M  V30 45 1 17 41
M  V30 46 1 18 42
M  V30 47 1 19 43
M  V30 48 1 20 44
M  V30 49 1 20 45
M  V30 50 1 21 46
M  V30 51 1 21 47
M  V30 52 1 22 48
M  V30 53 1 23 49
M  V30 54 1 26 50
M  V30 55 1 27 51
M  V30 56 1 28 52
M  V30 57 1 31 53
M  V30 END BOND
M  V30 END CTAB
M  END
>  <Dataset>  (906) 
ChEMBL_Kinases

>  <Ligand_Instance>  (906) 
nan

>  <PDB_ID>  (906) 
nan

>  <Standardized_SMILES>  (906) 
Cc1cc(Nc2nc(Sc3ccc(NC(=O)CNC4CC4)cc3)nn3cccc23)n[nH]1

>  <Name>  (906) 
nan

>  <Pocket>  (906) 
nan

>  <ATP_Site>  (906) 
nan

>  <Peripheral>  (906) 
nan

>  <Num_H_Atoms_ProtBoundConf>  (906) 
nan

>  <Num_Resolved_Atoms>  (906) 
nan

>  <Num_Not_Resolved_Atoms>  (906) 
nan

$$$$
CHEMBL1822492
     RDKit          3D

  0  0  0  0  0  0  0  0  0  0999 V3000
M  V30 BEGIN CTAB
M  V30 COUNTS 59 63 0 0 0
M  V30 BEGIN ATOM
M  V30 1 C 1.434009 -3.756105 3.782021 0
M  V30 2 C 0.690520 -3.627576 2.478287 0
M  V30 3 C 1.275465 -3.473252 1.236475 0
M  V30 4 C 0.281187 -3.384578 0.258725 0
M  V30 5 N 0.466826 -3.217175 -1.162607 0
M  V30 6 C 1.836946 -3.152441 -1.537881 0
M  V30 7 N 2.384061 -1.906472 -1.490824 0
M  V30 8 C 3.687590 -1.704809 -1.822427 0
M  V30 9 S 4.365596 -0.034083 -1.740188 0
M  V30 10 C 3.000244 1.020524 -1.199615 0
M  V30 11 C 2.746954 1.236921 0.143800 0
M  V30 12 C 1.678269 2.064022 0.445786 0
M  V30 13 C 0.898250 2.648402 -0.544260 0
M  V30 14 N -0.204911 3.494607 -0.141841 0
M  V30 15 C -1.355135 2.647477 -0.048004 0
M  V30 16 O -0.968923 1.491224 -0.352745 0
M  V30 17 C -2.648255 3.312664 0.363833 0
M  V30 18 N -3.692884 2.308200 0.396096 0
M  V30 19 C -3.438497 1.398007 1.463019 0
M  V30 20 C -3.414733 2.020450 2.837434 0
M  V30 21 C -3.454227 0.776126 3.731885 0
M  V30 22 C -4.023757 -0.340204 2.878405 0
M  V30 23 C -4.560591 0.371089 1.627940 0
M  V30 24 C 1.168863 2.418618 -1.889745 0
M  V30 25 C 2.235493 1.592752 -2.219755 0
M  V30 26 N 4.413243 -2.757488 -2.194327 0
M  V30 27 N 3.936665 -3.999177 -2.260810 0
M  V30 28 C 4.426327 -5.200230 -2.591601 0
M  V30 29 C 3.452648 -6.169618 -2.475834 0
M  V30 30 C 2.304467 -5.535540 -2.052375 0
M  V30 31 C 2.636043 -4.207061 -1.930716 0
M  V30 32 N -0.880953 -3.491171 0.963473 0
M  V30 33 N -0.640643 -3.631452 2.245823 0
M  V30 34 H 1.621079 -2.685508 4.091002 0
M  V30 35 H 0.838669 -4.309096 4.530627 0
M  V30 36 H 2.429784 -4.202433 3.590996 0
M  V30 37 H 2.338682 -3.431761 1.081550 0
M  V30 38 H -0.420462 -3.166643 -1.716028 0
M  V30 39 H 3.371250 0.768735 0.888890 0
M  V30 40 H 1.500121 2.218467 1.513327 0
M  V30 41 H -0.176686 4.542232 0.050617 0
M  V30 42 H -2.480635 3.770593 1.349101 0
M  V30 43 H -2.890989 4.140161 -0.343213 0
M  V30 44 H -3.736706 1.818802 -0.517784 0
M  V30 45 H -2.506694 0.813034 1.341206 0
M  V30 46 H -2.502989 2.621429 3.026265 0
M  V30 47 H -4.343614 2.590133 3.067316 0
M  V30 48 H -2.380399 0.590088 4.013142 0
M  V30 49 H -4.072675 0.943508 4.641120 0
M  V30 50 H -3.143006 -0.928020 2.486275 0
M  V30 51 H -4.769354 -0.956631 3.376032 0
M  V30 52 H -4.652034 -0.292193 0.771657 0
M  V30 53 H -5.494507 0.890308 1.916866 0
M  V30 54 H 0.579393 2.859521 -2.655121 0
M  V30 55 H 2.428049 1.427494 -3.270299 0
M  V30 56 H 5.469489 -5.298153 -2.898921 0
M  V30 57 H 3.612511 -7.218828 -2.690171 0
M  V30 58 H 1.339282 -5.997414 -1.857370 0
M  V30 59 H -1.324846 -3.735415 3.025018 0
M  V30 END ATOM
M  V30 BEGIN BOND
M  V30 1 1 1 2
M  V30 2 2 2 3
M  V30 3 1 3 4
M  V30 4 1 4 5
M  V30 5 1 5 6
M  V30 6 2 6 7
M  V30 7 1 7 8
M  V30 8 1 8 9
M  V30 9 1 9 10
M  V30 10 2 10 11
M  V30 11 1 11 12
M  V30 12 2 12 13
M  V30 13 1 13 14
M  V30 14 1 14 15
M  V30 15 2 15 16
M  V30 16 1 15 17
M  V30 17 1 17 18
M  V30 18 1 18 19
M  V30 19 1 19 20
M  V30 20 1 20 21
M  V30 21 1 21 22
M  V30 22 1 22 23
M  V30 23 1 13 24
M  V30 24 2 24 25
M  V30 25 2 8 26
M  V30 26 1 26 27
M  V30 27 1 27 28
M  V30 28 2 28 29
M  V30 29 1 29 30
M  V30 30 2 30 31
M  V30 31 2 4 32
M  V30 32 1 32 33
M  V30 33 1 33 2
M  V30 34 1 31 6
M  V30 35 1 25 10
M  V30 36 1 31 27
M  V30 37 1 23 19
M  V30 38 1 1 34
M  V30 39 1 1 35
M  V30 40 1 1 36
M  V30 41 1 3 37
M  V30 42 1 5 38
M  V30 43 1 11 39
M  V30 44 1 12 40
M  V30 45 1 14 41
M  V30 46 1 17 42
M  V30 47 1 17 43
M  V30 48 1 18 44
M  V30 49 1 19 45
M  V30 50 1 20 46
M  V30 51 1 20 47
M  V30 52 1 21 48
M  V30 53 1 21 49
M  V30 54 1 22 50
M  V30 55 1 22 51
M  V30 56 1 23 52
M  V30 57 1 23 53
M  V30 58 1 24 54
M  V30 59 1 25 55
M  V30 60 1 28 56
M  V30 61 1 29 57
M  V30 62 1 30 58
M  V30 63 1 33 59
M  V30 END BOND
M  V30 END CTAB
M  END
>  <Dataset>  (907) 
ChEMBL_Kinases

>  <Ligand_Instance>  (907) 
nan

>  <PDB_ID>  (907) 
nan

>  <Standardized_SMILES>  (907) 
Cc1cc(Nc2nc(Sc3ccc(NC(=O)CNC4CCCC4)cc3)nn3cccc23)n[nH]1

>  <Name>  (907) 
nan

>  <Pocket>  (907) 
nan

>  <ATP_Site>  (907) 
nan

>  <Peripheral>  (907) 
nan

>  <Num_H_Atoms_ProtBoundConf>  (907) 
nan

>  <Num_Resolved_Atoms>  (907) 
nan

>  <Num_Not_Resolved_Atoms>  (907) 
nan

$$$$
CHEMBL1822493
     RDKit          3D

  0  0  0  0  0  0  0  0  0  0999 V3000
M  V30 BEGIN CTAB
M  V30 COUNTS 57 61 0 0 0
M  V30 BEGIN ATOM
M  V30 1 C 5.087259 -6.097903 3.819196 0
M  V30 2 C 3.780209 -5.548735 3.355457 0
M  V30 3 C 3.697982 -4.263360 2.883065 0
M  V30 4 C 2.366330 -4.152105 2.560081 0
M  V30 5 N 1.487018 -3.173932 2.019654 0
M  V30 6 C 1.436516 -2.911833 0.591657 0
M  V30 7 N 2.111946 -1.927561 -0.042940 0
M  V30 8 C 2.068791 -1.692374 -1.356660 0
M  V30 9 S 3.066321 -0.211930 -1.761639 0
M  V30 10 C 1.855785 1.167839 -1.577740 0
M  V30 11 C 1.851018 1.462504 -0.231727 0
M  V30 12 C 0.836931 2.374376 0.083455 0
M  V30 13 C 0.005852 2.838033 -0.949970 0
M  V30 14 N -1.081961 3.700891 -0.609764 0
M  V30 15 C -2.114216 4.594236 -0.286626 0
M  V30 16 O -1.399230 5.674979 -0.494497 0
M  V30 17 C -3.504154 4.264619 0.136651 0
M  V30 18 N -3.822134 2.891092 0.223244 0
M  V30 19 C -3.937488 2.103445 -0.921601 0
M  V30 20 C -3.444249 0.711024 -0.853683 0
M  V30 21 O -3.144841 0.155705 0.340488 0
M  V30 22 C -3.531652 0.781299 1.483603 0
M  V30 23 C -3.441935 2.266304 1.447958 0
M  V30 24 C 0.147933 2.443392 -2.257497 0
M  V30 25 C 1.112859 1.560868 -2.654082 0
M  V30 26 N 1.290393 -2.505638 -2.121742 0
M  V30 27 N 0.600396 -3.496130 -1.534521 0
M  V30 28 C -0.212980 -4.358042 -2.155635 0
M  V30 29 C -0.698150 -5.167718 -1.157003 0
M  V30 30 C -0.177807 -4.792535 0.059153 0
M  V30 31 C 0.645717 -3.725523 -0.205328 0
M  V30 32 N 1.731973 -5.319645 2.838931 0
M  V30 33 N 2.581701 -6.206027 3.333458 0
M  V30 34 H 5.942844 -5.614021 3.245926 0
M  V30 35 H 5.280808 -5.899227 4.876164 0
M  V30 36 H 5.151505 -7.163221 3.550054 0
M  V30 37 H 4.323155 -3.421437 2.730242 0
M  V30 38 H 0.823866 -2.586721 2.573282 0
M  V30 39 H 2.459772 1.141198 0.582924 0
M  V30 40 H 0.607413 2.772659 1.048604 0
M  V30 41 H -1.657402 2.804970 -0.411439 0
M  V30 42 H -4.245460 4.734701 -0.555599 0
M  V30 43 H -3.677461 4.706719 1.143475 0
M  V30 44 H -5.036752 2.120823 -1.239842 0
M  V30 45 H -3.454679 2.567826 -1.826202 0
M  V30 46 H -4.235619 0.035656 -1.333325 0
M  V30 47 H -2.562823 0.571705 -1.531778 0
M  V30 48 H -4.542376 0.482545 1.852559 0
M  V30 49 H -2.842086 0.415314 2.296529 0
M  V30 50 H -2.435585 2.570870 1.845516 0
M  V30 51 H -4.140244 2.643035 2.261033 0
M  V30 52 H -0.531094 2.850718 -3.008200 0
M  V30 53 H 1.317655 1.176994 -3.626864 0
M  V30 54 H -0.445907 -4.418183 -3.206328 0
M  V30 55 H -1.401494 -6.000885 -1.245786 0
M  V30 56 H -0.387670 -5.259935 1.002219 0
M  V30 57 H 2.499511 -7.185470 3.664528 0
M  V30 END ATOM
M  V30 BEGIN BOND
M  V30 1 1 1 2
M  V30 2 2 2 3
M  V30 3 1 3 4
M  V30 4 1 4 5
M  V30 5 1 5 6
M  V30 6 2 6 7
M  V30 7 1 7 8
M  V30 8 1 8 9
M  V30 9 1 9 10
M  V30 10 2 10 11
M  V30 11 1 11 12
M  V30 12 2 12 13
M  V30 13 1 13 14
M  V30 14 1 14 15
M  V30 15 2 15 16
M  V30 16 1 15 17
M  V30 17 1 17 18
M  V30 18 1 18 19
M  V30 19 1 19 20
M  V30 20 1 20 21
M  V30 21 1 21 22
M  V30 22 1 22 23
M  V30 23 1 13 24
M  V30 24 2 24 25
M  V30 25 2 8 26
M  V30 26 1 26 27
M  V30 27 1 27 28
M  V30 28 2 28 29
M  V30 29 1 29 30
M  V30 30 2 30 31
M  V30 31 2 4 32
M  V30 32 1 32 33
M  V30 33 1 33 2
M  V30 34 1 31 6
M  V30 35 1 25 10
M  V30 36 1 31 27
M  V30 37 1 23 18
M  V30 38 1 1 34
M  V30 39 1 1 35
M  V30 40 1 1 36
M  V30 41 1 3 37
M  V30 42 1 5 38
M  V30 43 1 11 39
M  V30 44 1 12 40
M  V30 45 1 14 41
M  V30 46 1 17 42
M  V30 47 1 17 43
M  V30 48 1 19 44
M  V30 49 1 19 45
M  V30 50 1 20 46
M  V30 51 1 20 47
M  V30 52 1 22 48
M  V30 53 1 22 49
M  V30 54 1 23 50
M  V30 55 1 23 51
M  V30 56 1 24 52
M  V30 57 1 25 53
M  V30 58 1 28 54
M  V30 59 1 29 55
M  V30 60 1 30 56
M  V30 61 1 33 57
M  V30 END BOND
M  V30 END CTAB
M  END
>  <Dataset>  (908) 
ChEMBL_Kinases

>  <Ligand_Instance>  (908) 
nan

>  <PDB_ID>  (908) 
nan

>  <Standardized_SMILES>  (908) 
Cc1cc(Nc2nc(Sc3ccc(NC(=O)CN4CCOCC4)cc3)nn3cccc23)n[nH]1

>  <Name>  (908) 
nan

>  <Pocket>  (908) 
nan

>  <ATP_Site>  (908) 
nan

>  <Peripheral>  (908) 
nan

>  <Num_H_Atoms_ProtBoundConf>  (908) 
nan

>  <Num_Resolved_Atoms>  (908) 
nan

>  <Num_Not_Resolved_Atoms>  (908) 
nan

$$$$
CHEMBL1822494
     RDKit          3D

  0  0  0  0  0  0  0  0  0  0999 V3000
M  V30 BEGIN CTAB
M  V30 COUNTS 52 55 0 0 0
M  V30 BEGIN ATOM
M  V30 1 C -0.650139 -3.025834 4.832071 0
M  V30 2 C 0.348390 -3.195762 3.781789 0
M  V30 3 C 1.623426 -3.720153 3.615632 0
M  V30 4 C 2.071518 -3.560759 2.311854 0
M  V30 5 N 3.368094 -3.995113 1.843333 0
M  V30 6 C 3.487969 -3.630776 0.447972 0
M  V30 7 N 3.601732 -2.288800 0.235911 0
M  V30 8 C 3.706095 -1.764188 -1.016735 0
M  V30 9 S 3.838387 0.028996 -1.042856 0
M  V30 10 C 2.194300 0.754602 -1.026916 0
M  V30 11 C 1.819788 0.931593 0.318607 0
M  V30 12 C 0.564713 1.470290 0.642536 0
M  V30 13 C -0.325594 1.837780 -0.338209 0
M  V30 14 N -1.614503 2.387094 -0.163832 0
M  V30 15 C -2.263218 2.709802 1.042923 0
M  V30 16 O -1.677595 2.512443 2.150401 0
M  V30 17 C -3.561965 3.266270 1.398575 0
M  V30 18 N -4.422005 3.568936 0.265649 0
M  V30 19 C -4.858531 2.354629 -0.403020 0
M  V30 20 C -5.564014 4.366696 0.686270 0
M  V30 21 C 0.076225 1.650494 -1.634405 0
M  V30 22 C 1.290847 1.128363 -1.990860 0
M  V30 23 N 3.693405 -2.627658 -2.046205 0
M  V30 24 N 3.584330 -3.940046 -1.852676 0
M  V30 25 C 3.560814 -4.943980 -2.742918 0
M  V30 26 C 3.438326 -6.131488 -2.030767 0
M  V30 27 C 3.383824 -5.863328 -0.659882 0
M  V30 28 C 3.479138 -4.492967 -0.623357 0
M  V30 29 N 1.042769 -2.944654 1.739341 0
M  V30 30 N 0.041961 -2.723639 2.559061 0
M  V30 31 H -1.011589 -1.950646 4.873432 0
M  V30 32 H -1.562490 -3.599925 4.588913 0
M  V30 33 H -0.284414 -3.276198 5.838923 0
M  V30 34 H 2.091766 -4.176135 4.495353 0
M  V30 35 H 4.006327 -4.470815 2.492878 0
M  V30 36 H 2.394276 0.696584 1.229937 0
M  V30 37 H 0.271136 1.606383 1.665521 0
M  V30 38 H -2.245218 2.616270 -0.958704 0
M  V30 39 H -3.475651 4.199052 2.003554 0
M  V30 40 H -4.120231 2.514486 2.014133 0
M  V30 41 H -4.222445 1.476773 -0.185967 0
M  V30 42 H -5.877871 2.092329 -0.009587 0
M  V30 43 H -4.988285 2.522670 -1.492251 0
M  V30 44 H -6.211259 4.645269 -0.143835 0
M  V30 45 H -5.227120 5.280291 1.195859 0
M  V30 46 H -6.143037 3.773024 1.445951 0
M  V30 47 H -0.531580 1.898572 -2.504367 0
M  V30 48 H 1.717179 0.934165 -2.940707 0
M  V30 49 H 3.621717 -4.910932 -3.826332 0
M  V30 50 H 3.386222 -7.157259 -2.405215 0
M  V30 51 H 3.291684 -6.498026 0.188957 0
M  V30 52 H -0.793261 -2.231318 2.117954 0
M  V30 END ATOM
M  V30 BEGIN BOND
M  V30 1 1 1 2
M  V30 2 2 2 3
M  V30 3 1 3 4
M  V30 4 1 4 5
M  V30 5 1 5 6
M  V30 6 2 6 7
M  V30 7 1 7 8
M  V30 8 1 8 9
M  V30 9 1 9 10
M  V30 10 2 10 11
M  V30 11 1 11 12
M  V30 12 2 12 13
M  V30 13 1 13 14
M  V30 14 1 14 15
M  V30 15 2 15 16
M  V30 16 1 15 17
M  V30 17 1 17 18
M  V30 18 1 18 19
M  V30 19 1 18 20
M  V30 20 1 13 21
M  V30 21 2 21 22
M  V30 22 2 8 23
M  V30 23 1 23 24
M  V30 24 1 24 25
M  V30 25 2 25 26
M  V30 26 1 26 27
M  V30 27 2 27 28
M  V30 28 2 4 29
M  V30 29 1 29 30
M  V30 30 1 30 2
M  V30 31 1 28 6
M  V30 32 1 22 10
M  V30 33 1 28 24
M  V30 34 1 1 31
M  V30 35 1 1 32
M  V30 36 1 1 33
M  V30 37 1 3 34
M  V30 38 1 5 35
M  V30 39 1 11 36
M  V30 40 1 12 37
M  V30 41 1 14 38
M  V30 42 1 17 39
M  V30 43 1 17 40
M  V30 44 1 19 41
M  V30 45 1 19 42
M  V30 46 1 19 43
M  V30 47 1 20 44
M  V30 48 1 20 45
M  V30 49 1 20 46
M  V30 50 1 21 47
M  V30 51 1 22 48
M  V30 52 1 25 49
M  V30 53 1 26 50
M  V30 54 1 27 51
M  V30 55 1 30 52
M  V30 END BOND
M  V30 END CTAB
M  END
>  <Dataset>  (909) 
ChEMBL_Kinases

>  <Ligand_Instance>  (909) 
nan

>  <PDB_ID>  (909) 
nan

>  <Standardized_SMILES>  (909) 
Cc1cc(Nc2nc(Sc3ccc(NC(=O)CN(C)C)cc3)nn3cccc23)n[nH]1

>  <Name>  (909) 
nan

>  <Pocket>  (909) 
nan

>  <ATP_Site>  (909) 
nan

>  <Peripheral>  (909) 
nan

>  <Num_H_Atoms_ProtBoundConf>  (909) 
nan

>  <Num_Resolved_Atoms>  (909) 
nan

>  <Num_Not_Resolved_Atoms>  (909) 
nan

$$$$
CHEMBL1822495
     RDKit          3D

  0  0  0  0  0  0  0  0  0  0999 V3000
M  V30 BEGIN CTAB
M  V30 COUNTS 60 64 0 0 0
M  V30 BEGIN ATOM
M  V30 1 C 2.623351 -3.757173 7.795819 0
M  V30 2 C 2.324667 -3.022598 6.562313 0
M  V30 3 C 3.278578 -2.433646 5.748717 0
M  V30 4 C 2.640443 -1.830873 4.680142 0
M  V30 5 N 2.965639 -1.103684 3.537679 0
M  V30 6 C 3.183611 -1.493653 2.212792 0
M  V30 7 N 3.485615 -0.537888 1.287139 0
M  V30 8 C 3.681887 -0.885039 0.002771 0
M  V30 9 S 4.080529 0.294041 -1.308345 0
M  V30 10 C 2.532779 0.917339 -2.012683 0
M  V30 11 C 2.113730 2.087597 -1.395924 0
M  V30 12 C 0.894803 2.575798 -1.882056 0
M  V30 13 C 0.229586 1.894673 -2.888435 0
M  V30 14 N -1.011759 2.484642 -3.265026 0
M  V30 15 C -1.847762 1.815499 -2.321469 0
M  V30 16 O -1.010470 1.072606 -1.685317 0
M  V30 17 C -3.308837 1.863695 -2.032792 0
M  V30 18 N -3.720865 0.974100 -1.014789 0
M  V30 19 C -5.028023 1.458409 -0.546509 0
M  V30 20 C -5.999986 0.843814 -1.513036 0
M  V30 21 C -5.274446 -0.297581 -2.165545 0
M  V30 22 C -4.008297 -0.366526 -1.317562 0 CFG=1
M  V30 23 C -2.979745 -1.216897 -1.987107 0
M  V30 24 O -2.591119 -0.835220 -3.244119 0
M  V30 25 C 0.693605 0.734567 -3.468353 0
M  V30 26 C 1.888658 0.228035 -3.013814 0
M  V30 27 N 3.582590 -2.173803 -0.377234 0
M  V30 28 N 3.285996 -3.119944 0.528567 0
M  V30 29 C 3.155681 -4.434618 0.299684 0
M  V30 30 C 2.849333 -5.033959 1.509954 0
M  V30 31 C 2.809010 -3.997889 2.449888 0
M  V30 32 C 3.082882 -2.803383 1.828814 0
M  V30 33 N 1.296632 -2.047400 4.834504 0
M  V30 34 N 1.155280 -2.758805 5.966038 0
M  V30 35 H 3.427854 -4.503050 7.723762 0
M  V30 36 H 1.679544 -4.284749 8.114131 0
M  V30 37 H 2.800840 -3.034869 8.645765 0
M  V30 38 H 4.340405 -2.369492 5.800879 0
M  V30 39 H 3.038230 -0.088394 3.819834 0
M  V30 40 H 2.640179 2.594016 -0.622787 0
M  V30 41 H 0.503514 3.500254 -1.437752 0
M  V30 42 H -1.574320 3.150773 -3.882189 0
M  V30 43 H -3.515330 2.918566 -1.677689 0
M  V30 44 H -3.870098 1.766124 -2.965739 0
M  V30 45 H -5.009615 2.574775 -0.618489 0
M  V30 46 H -5.210552 1.129646 0.501963 0
M  V30 47 H -6.847627 0.414511 -0.918616 0
M  V30 48 H -6.425520 1.585721 -2.220305 0
M  V30 49 H -5.060808 -0.139682 -3.235111 0
M  V30 50 H -5.773013 -1.279364 -2.029129 0
M  V30 51 H -4.293664 -0.880972 -0.380313 0
M  V30 52 H -3.448237 -2.238116 -2.093868 0
M  V30 53 H -2.144027 -1.390697 -1.264854 0
M  V30 54 H -1.619847 -1.102087 -3.343350 0
M  V30 55 H 0.154774 0.231231 -4.249459 0
M  V30 56 H 2.353862 -0.653529 -3.372080 0
M  V30 57 H 3.231071 -5.081666 -0.554433 0
M  V30 58 H 2.663271 -6.038247 1.799712 0
M  V30 59 H 2.598445 -4.100380 3.502240 0
M  V30 60 H 0.263763 -3.119525 6.418040 0
M  V30 END ATOM
M  V30 BEGIN BOND
M  V30 1 1 1 2
M  V30 2 2 2 3
M  V30 3 1 3 4
M  V30 4 1 4 5
M  V30 5 1 5 6
M  V30 6 2 6 7
M  V30 7 1 7 8
M  V30 8 1 8 9
M  V30 9 1 9 10
M  V30 10 2 10 11
M  V30 11 1 11 12
M  V30 12 2 12 13
M  V30 13 1 13 14
M  V30 14 1 14 15
M  V30 15 2 15 16
M  V30 16 1 15 17
M  V30 17 1 17 18
M  V30 18 1 18 19
M  V30 19 1 19 20
M  V30 20 1 20 21
M  V30 21 1 21 22
M  V30 22 1 22 23
M  V30 23 1 23 24
M  V30 24 1 13 25
M  V30 25 2 25 26
M  V30 26 2 8 27
M  V30 27 1 27 28
M  V30 28 1 28 29
M  V30 29 2 29 30
M  V30 30 1 30 31
M  V30 31 2 31 32
M  V30 32 2 4 33
M  V30 33 1 33 34
M  V30 34 1 34 2
M  V30 35 1 32 6
M  V30 36 1 26 10
M  V30 37 1 32 28
M  V30 38 1 22 18
M  V30 39 1 1 35
M  V30 40 1 1 36
M  V30 41 1 1 37
M  V30 42 1 3 38
M  V30 43 1 5 39
M  V30 44 1 11 40
M  V30 45 1 12 41
M  V30 46 1 14 42
M  V30 47 1 17 43
M  V30 48 1 17 44
M  V30 49 1 19 45
M  V30 50 1 19 46
M  V30 51 1 20 47
M  V30 52 1 20 48
M  V30 53 1 21 49
M  V30 54 1 21 50
M  V30 55 1 22 51 CFG=1
M  V30 56 1 23 52
M  V30 57 1 23 53
M  V30 58 1 24 54
M  V30 59 1 25 55
M  V30 60 1 26 56
M  V30 61 1 29 57
M  V30 62 1 30 58
M  V30 63 1 31 59
M  V30 64 1 34 60
M  V30 END BOND
M  V30 END CTAB
M  END
>  <Dataset>  (910) 
ChEMBL_Kinases

>  <Ligand_Instance>  (910) 
nan

>  <PDB_ID>  (910) 
nan

>  <Standardized_SMILES>  (910) 
Cc1cc(Nc2nc(Sc3ccc(NC(=O)CN4CCC[C@H]4CO)cc3)nn3cccc23)n[nH]1

>  <Name>  (910) 
nan

>  <Pocket>  (910) 
nan

>  <ATP_Site>  (910) 
nan

>  <Peripheral>  (910) 
nan

>  <Num_H_Atoms_ProtBoundConf>  (910) 
nan

>  <Num_Resolved_Atoms>  (910) 
nan

>  <Num_Not_Resolved_Atoms>  (910) 
nan

$$$$
CHEMBL1822647
     RDKit          3D

  0  0  0  0  0  0  0  0  0  0999 V3000
M  V30 BEGIN CTAB
M  V30 COUNTS 70 74 0 0 0
M  V30 BEGIN ATOM
M  V30 1 C 0.999446 -2.061522 3.037269 0
M  V30 2 C 1.555743 -1.501181 1.772232 0
M  V30 3 C 2.064048 -2.136976 0.644064 0
M  V30 4 C 2.477946 -1.180553 -0.275984 0
M  V30 5 N 3.068390 -1.427207 -1.546257 0
M  V30 6 C 3.502557 -0.346860 -2.366319 0
M  V30 7 N 3.263384 0.939590 -2.055466 0
M  V30 8 C 3.722165 1.983663 -2.797503 0
M  V30 9 S 3.322185 3.676651 -2.316304 0
M  V30 10 C 2.183453 3.551251 -0.941443 0
M  V30 11 C 0.890934 3.702386 -1.472803 0
M  V30 12 C -0.251986 3.639473 -0.662609 0
M  V30 13 C -0.091177 3.420586 0.701033 0
M  V30 14 N -1.228798 3.377433 1.551778 0
M  V30 15 C -1.838634 2.096067 1.445605 0
M  V30 16 O -1.192319 1.365483 0.618933 0
M  V30 17 C -3.071065 1.705134 2.213243 0
M  V30 18 N -3.494367 0.397433 1.874918 0
M  V30 19 C -2.566170 -0.618524 2.321798 0
M  V30 20 C -3.388564 -1.915144 2.280433 0 CFG=2
M  V30 21 O -3.105699 -2.578824 1.185923 0
M  V30 22 C -2.704141 -3.817741 1.025506 0
M  V30 23 C -2.527731 -3.978877 -0.502785 0
M  V30 24 C -1.320824 -4.029885 1.598040 0
M  V30 25 C -3.562520 -4.956452 1.436876 0
M  V30 26 C -4.816531 -1.426275 2.206037 0 CFG=1
M  V30 27 O -5.643452 -2.128863 3.085622 0
M  V30 28 C -4.754328 0.028191 2.497342 0
M  V30 29 C 1.185261 3.275253 1.195478 0
M  V30 30 C 2.307878 3.336606 0.408072 0
M  V30 31 N 4.446736 1.673941 -3.890109 0
M  V30 32 N 4.711749 0.433041 -4.246119 0
M  V30 33 C 5.404659 -0.057262 -5.288277 0
M  V30 34 C 5.405185 -1.452549 -5.235834 0
M  V30 35 C 4.678816 -1.759513 -4.111641 0
M  V30 36 C 4.249214 -0.601304 -3.498314 0
M  V30 37 N 2.218670 0.004041 0.295152 0
M  V30 38 N 1.675264 -0.171794 1.502004 0
M  V30 39 H -0.039166 -1.738608 3.157055 0
M  V30 40 H 1.573900 -1.614378 3.891274 0
M  V30 41 H 1.145783 -3.151537 3.051161 0
M  V30 42 H 2.103715 -3.213057 0.557303 0
M  V30 43 H 3.185127 -2.406528 -1.881656 0
M  V30 44 H 0.554901 3.879380 -2.508488 0
M  V30 45 H -1.274981 3.744913 -0.990116 0
M  V30 46 H -1.659636 4.096330 2.202964 0
M  V30 47 H -3.902071 2.437610 2.059768 0
M  V30 48 H -2.729388 1.672480 3.287547 0
M  V30 49 H -2.226211 -0.404354 3.335248 0
M  V30 50 H -1.740144 -0.686890 1.614235 0
M  V30 51 H -3.281735 -2.385349 3.263817 0
M  V30 52 H -1.957525 -4.899509 -0.704243 0
M  V30 53 H -3.569438 -3.994564 -0.903695 0
M  V30 54 H -2.015769 -3.062694 -0.856694 0
M  V30 55 H -0.569966 -3.428793 1.032078 0
M  V30 56 H -1.043744 -5.094387 1.431106 0
M  V30 57 H -1.341636 -3.772523 2.676976 0
M  V30 58 H -4.315902 -4.727439 2.208157 0
M  V30 59 H -2.968535 -5.808455 1.829851 0
M  V30 60 H -4.133268 -5.402851 0.590080 0
M  V30 61 H -5.171499 -1.567626 1.142500 0
M  V30 62 H -6.130585 -2.802656 2.539985 0
M  V30 63 H -5.622168 0.530428 2.020625 0
M  V30 64 H -4.746280 0.165991 3.598785 0
M  V30 65 H 1.396961 3.102859 2.238873 0
M  V30 66 H 3.355762 3.245356 0.637806 0
M  V30 67 H 5.895696 0.504554 -6.062870 0
M  V30 68 H 5.892129 -2.096356 -5.957730 0
M  V30 69 H 4.479731 -2.782633 -3.767042 0
M  V30 70 H 1.362336 0.568047 2.194254 0
M  V30 END ATOM
M  V30 BEGIN BOND
M  V30 1 1 1 2
M  V30 2 2 2 3
M  V30 3 1 3 4
M  V30 4 1 4 5
M  V30 5 1 5 6
M  V30 6 2 6 7
M  V30 7 1 7 8
M  V30 8 1 8 9
M  V30 9 1 9 10
M  V30 10 2 10 11
M  V30 11 1 11 12
M  V30 12 2 12 13
M  V30 13 1 13 14
M  V30 14 1 14 15
M  V30 15 2 15 16
M  V30 16 1 15 17
M  V30 17 1 17 18
M  V30 18 1 18 19
M  V30 19 1 19 20
M  V30 20 1 20 21
M  V30 21 1 21 22
M  V30 22 1 22 23
M  V30 23 1 22 24
M  V30 24 1 22 25
M  V30 25 1 20 26
M  V30 26 1 26 27
M  V30 27 1 26 28
M  V30 28 1 13 29
M  V30 29 2 29 30
M  V30 30 2 8 31
M  V30 31 1 31 32
M  V30 32 1 32 33
M  V30 33 2 33 34
M  V30 34 1 34 35
M  V30 35 2 35 36
M  V30 36 2 4 37
M  V30 37 1 37 38
M  V30 38 1 38 2
M  V30 39 1 36 6
M  V30 40 1 30 10
M  V30 41 1 36 32
M  V30 42 1 28 18
M  V30 43 1 1 39
M  V30 44 1 1 40
M  V30 45 1 1 41
M  V30 46 1 3 42
M  V30 47 1 5 43
M  V30 48 1 11 44
M  V30 49 1 12 45
M  V30 50 1 14 46
M  V30 51 1 17 47
M  V30 52 1 17 48
M  V30 53 1 19 49
M  V30 54 1 19 50
M  V30 55 1 20 51 CFG=1
M  V30 56 1 23 52
M  V30 57 1 23 53
M  V30 58 1 23 54
M  V30 59 1 24 55
M  V30 60 1 24 56
M  V30 61 1 24 57
M  V30 62 1 25 58
M  V30 63 1 25 59
M  V30 64 1 25 60
M  V30 65 1 26 61 CFG=3
M  V30 66 1 27 62
M  V30 67 1 28 63
M  V30 68 1 28 64
M  V30 69 1 29 65
M  V30 70 1 30 66
M  V30 71 1 33 67
M  V30 72 1 34 68
M  V30 73 1 35 69
M  V30 74 1 38 70
M  V30 END BOND
M  V30 END CTAB
M  END
>  <Dataset>  (911) 
ChEMBL_Kinases

>  <Ligand_Instance>  (911) 
nan

>  <PDB_ID>  (911) 
nan

>  <Standardized_SMILES>  (911) 
Cc1cc(Nc2nc(Sc3ccc(NC(=O)CN4C[C@H](OC(C)(C)C)[C@@H](O)C4)cc3)nn3cccc23)n[nH]1

>  <Name>  (911) 
nan

>  <Pocket>  (911) 
nan

>  <ATP_Site>  (911) 
nan

>  <Peripheral>  (911) 
nan

>  <Num_H_Atoms_ProtBoundConf>  (911) 
nan

>  <Num_Resolved_Atoms>  (911) 
nan

>  <Num_Not_Resolved_Atoms>  (911) 
nan

$$$$
CHEMBL1822638
     RDKit          3D

  0  0  0  0  0  0  0  0  0  0999 V3000
M  V30 BEGIN CTAB
M  V30 COUNTS 60 64 0 0 0
M  V30 BEGIN ATOM
M  V30 1 C 0.615234 -3.449091 4.037497 0
M  V30 2 C 1.908913 -3.112283 3.398594 0
M  V30 3 C 2.780981 -2.159298 3.859133 0
M  V30 4 C 3.878575 -2.098443 3.035501 0
M  V30 5 N 5.114064 -1.385425 2.911620 0
M  V30 6 C 4.764127 -0.199641 2.211420 0
M  V30 7 N 4.570189 -0.146304 0.865420 0
M  V30 8 C 4.239539 1.032386 0.307214 0
M  V30 9 S 3.957948 1.085859 -1.483656 0
M  V30 10 C 2.200395 0.721702 -1.750786 0
M  V30 11 C 1.309474 1.778172 -1.738417 0
M  V30 12 C -0.025105 1.469353 -1.921944 0
M  V30 13 C -0.338771 0.136141 -2.100488 0
M  V30 14 N -1.737265 -0.166860 -2.259140 0
M  V30 15 C -2.100733 -0.466315 -0.891937 0
M  V30 16 O -1.101137 -0.362400 -0.079173 0
M  V30 17 C -3.275108 -0.865115 -0.083430 0
M  V30 18 N -4.497415 -1.039091 -0.710222 0
M  V30 19 C -5.199038 0.057275 -1.259572 0
M  V30 20 C -6.065798 -0.537564 -2.356976 0
M  V30 21 F -6.061148 0.189837 -3.513805 0
M  V30 22 F -7.402184 -0.621543 -1.963878 0
M  V30 23 C -5.604510 -1.968912 -2.526665 0
M  V30 24 C -4.945212 -2.268656 -1.194712 0 CFG=1
M  V30 25 C -3.961674 -3.390543 -1.283260 0
M  V30 26 O -2.882389 -3.095174 -2.111838 0
M  V30 27 C 0.554587 -0.912963 -2.113258 0
M  V30 28 C 1.888957 -0.613429 -1.930315 0
M  V30 29 N 4.108560 2.126561 1.078902 0
M  V30 30 N 4.289569 2.114950 2.391228 0
M  V30 31 C 4.210583 3.088504 3.339636 0
M  V30 32 C 4.497812 2.532404 4.569519 0
M  V30 33 C 4.750196 1.205645 4.331428 0
M  V30 34 C 4.619276 0.955605 2.978243 0
M  V30 35 N 3.651787 -3.021642 2.084875 0
M  V30 36 N 2.481968 -3.617170 2.309298 0
M  V30 37 H -0.178114 -3.523521 3.239336 0
M  V30 38 H 0.713539 -4.468971 4.490636 0
M  V30 39 H 0.270976 -2.692803 4.742821 0
M  V30 40 H 2.763692 -1.482798 4.704367 0
M  V30 41 H 5.996071 -1.788971 3.309584 0
M  V30 42 H 1.690232 2.778603 -1.587739 0
M  V30 43 H -0.756473 2.250853 -1.920585 0
M  V30 44 H -2.605274 -0.288499 -2.795154 0
M  V30 45 H -3.394881 -0.102851 0.746748 0
M  V30 46 H -3.024916 -1.820812 0.469799 0
M  V30 47 H -5.917645 0.408311 -0.461202 0
M  V30 48 H -4.620574 0.913850 -1.602271 0
M  V30 49 H -6.466169 -2.665907 -2.669572 0
M  V30 50 H -4.959207 -2.112839 -3.394989 0
M  V30 51 H -5.794843 -2.602549 -0.519991 0
M  V30 52 H -3.682075 -3.809837 -0.311483 0
M  V30 53 H -4.488012 -4.239466 -1.821368 0
M  V30 54 H -3.157036 -3.181224 -3.045837 0
M  V30 55 H 0.242551 -1.934480 -2.260033 0
M  V30 56 H 2.643836 -1.382054 -1.928968 0
M  V30 57 H 3.960076 4.113773 3.108963 0
M  V30 58 H 4.486427 3.158980 5.463625 0
M  V30 59 H 5.008216 0.509029 5.129808 0
M  V30 60 H 2.031030 -4.377314 1.742321 0
M  V30 END ATOM
M  V30 BEGIN BOND
M  V30 1 1 1 2
M  V30 2 2 2 3
M  V30 3 1 3 4
M  V30 4 1 4 5
M  V30 5 1 5 6
M  V30 6 2 6 7
M  V30 7 1 7 8
M  V30 8 1 8 9
M  V30 9 1 9 10
M  V30 10 2 10 11
M  V30 11 1 11 12
M  V30 12 2 12 13
M  V30 13 1 13 14
M  V30 14 1 14 15
M  V30 15 2 15 16
M  V30 16 1 15 17
M  V30 17 1 17 18
M  V30 18 1 18 19
M  V30 19 1 19 20
M  V30 20 1 20 21
M  V30 21 1 20 22
M  V30 22 1 20 23
M  V30 23 1 23 24
M  V30 24 1 24 25
M  V30 25 1 25 26
M  V30 26 1 13 27
M  V30 27 2 27 28
M  V30 28 2 8 29
M  V30 29 1 29 30
M  V30 30 1 30 31
M  V30 31 2 31 32
M  V30 32 1 32 33
M  V30 33 2 33 34
M  V30 34 2 4 35
M  V30 35 1 35 36
M  V30 36 1 36 2
M  V30 37 1 34 6
M  V30 38 1 28 10
M  V30 39 1 34 30
M  V30 40 1 24 18
M  V30 41 1 1 37
M  V30 42 1 1 38
M  V30 43 1 1 39
M  V30 44 1 3 40
M  V30 45 1 5 41
M  V30 46 1 11 42
M  V30 47 1 12 43
M  V30 48 1 14 44
M  V30 49 1 17 45
M  V30 50 1 17 46
M  V30 51 1 19 47
M  V30 52 1 19 48
M  V30 53 1 23 49
M  V30 54 1 23 50
M  V30 55 1 24 51 CFG=1
M  V30 56 1 25 52
M  V30 57 1 25 53
M  V30 58 1 26 54
M  V30 59 1 27 55
M  V30 60 1 28 56
M  V30 61 1 31 57
M  V30 62 1 32 58
M  V30 63 1 33 59
M  V30 64 1 36 60
M  V30 END BOND
M  V30 END CTAB
M  END
>  <Dataset>  (912) 
ChEMBL_Kinases

>  <Ligand_Instance>  (912) 
nan

>  <PDB_ID>  (912) 
nan

>  <Standardized_SMILES>  (912) 
Cc1cc(Nc2nc(Sc3ccc(NC(=O)CN4CC(F)(F)C[C@H]4CO)cc3)nn3cccc23)n[nH]1

>  <Name>  (912) 
nan

>  <Pocket>  (912) 
nan

>  <ATP_Site>  (912) 
nan

>  <Peripheral>  (912) 
nan

>  <Num_H_Atoms_ProtBoundConf>  (912) 
nan

>  <Num_Resolved_Atoms>  (912) 
nan

>  <Num_Not_Resolved_Atoms>  (912) 
nan

$$$$
CHEMBL1822639
     RDKit          3D

  0  0  0  0  0  0  0  0  0  0999 V3000
M  V30 BEGIN CTAB
M  V30 COUNTS 60 64 0 0 0
M  V30 BEGIN ATOM
M  V30 1 C 0.831628 -2.231659 6.466700 0
M  V30 2 C 1.684380 -1.772442 5.328195 0
M  V30 3 C 2.631431 -2.603384 4.717109 0
M  V30 4 C 3.218986 -1.834635 3.724733 0
M  V30 5 N 4.218501 -2.167660 2.805029 0
M  V30 6 C 4.018364 -2.234646 1.420655 0
M  V30 7 N 4.224388 -1.027262 0.806375 0
M  V30 8 C 4.086400 -0.904908 -0.526643 0
M  V30 9 S 4.340688 0.730852 -1.271753 0
M  V30 10 C 2.703987 1.513169 -1.305874 0
M  V30 11 C 2.244100 2.238794 -0.239563 0
M  V30 12 C 0.975473 2.749049 -0.379419 0
M  V30 13 C 0.254933 2.515855 -1.543403 0
M  V30 14 N -1.086440 2.992572 -1.730779 0
M  V30 15 C -1.766264 1.818625 -1.235965 0
M  V30 16 O -0.861831 0.988607 -0.894859 0
M  V30 17 C -3.226644 1.543180 -1.109828 0
M  V30 18 N -3.478681 0.244391 -0.582071 0
M  V30 19 C -3.112284 -0.822290 -1.498057 0
M  V30 20 C -4.303714 -1.068399 -2.353377 0 CFG=2
M  V30 21 F -4.107761 -0.690652 -3.669619 0
M  V30 22 C -5.414008 -0.296167 -1.700247 0
M  V30 23 C -4.892268 0.074730 -0.366784 0 CFG=1
M  V30 24 C -5.098515 -0.990927 0.686298 0
M  V30 25 O -4.579493 -2.215926 0.312777 0
M  V30 26 C 0.786291 1.765792 -2.594763 0
M  V30 27 C 2.071521 1.226199 -2.496434 0
M  V30 28 N 3.740383 -1.959248 -1.312539 0
M  V30 29 N 3.530587 -3.157108 -0.741361 0
M  V30 30 C 3.187191 -4.374951 -1.188069 0
M  V30 31 C 3.108838 -5.259047 -0.145908 0
M  V30 32 C 3.418976 -4.562508 1.018594 0
M  V30 33 C 3.670948 -3.280023 0.604735 0
M  V30 34 N 2.632763 -0.625904 3.771525 0
M  V30 35 N 1.715093 -0.562349 4.716703 0
M  V30 36 H 1.469117 -2.726301 7.229511 0
M  V30 37 H 0.077847 -2.956629 6.136271 0
M  V30 38 H 0.311173 -1.358138 6.905630 0
M  V30 39 H 2.884035 -3.634906 4.943741 0
M  V30 40 H 5.205522 -2.400477 3.043584 0
M  V30 41 H 2.844101 2.391887 0.642433 0
M  V30 42 H 0.531088 3.336257 0.414848 0
M  V30 43 H -1.722115 3.767080 -2.049366 0
M  V30 44 H -3.677553 1.718231 -2.115197 0
M  V30 45 H -3.668268 2.303636 -0.441818 0
M  V30 46 H -2.264586 -0.489887 -2.159486 0
M  V30 47 H -2.722804 -1.726412 -0.990326 0
M  V30 48 H -4.613682 -2.133565 -2.392744 0
M  V30 49 H -5.542514 0.644240 -2.285379 0
M  V30 50 H -6.354703 -0.888277 -1.676286 0
M  V30 51 H -5.296375 1.028235 0.032027 0
M  V30 52 H -6.127100 -1.053159 1.060984 0
M  V30 53 H -4.483275 -0.661734 1.567514 0
M  V30 54 H -5.289059 -2.900516 0.136969 0
M  V30 55 H 0.185412 1.603364 -3.504771 0
M  V30 56 H 2.446424 0.655526 -3.324741 0
M  V30 57 H 3.023137 -4.526847 -2.241270 0
M  V30 58 H 2.851740 -6.324861 -0.216589 0
M  V30 59 H 3.450025 -4.976013 2.028277 0
M  V30 60 H 1.071140 0.204580 5.028941 0
M  V30 END ATOM
M  V30 BEGIN BOND
M  V30 1 1 1 2
M  V30 2 2 2 3
M  V30 3 1 3 4
M  V30 4 1 4 5
M  V30 5 1 5 6
M  V30 6 2 6 7
M  V30 7 1 7 8
M  V30 8 1 8 9
M  V30 9 1 9 10
M  V30 10 2 10 11
M  V30 11 1 11 12
M  V30 12 2 12 13
M  V30 13 1 13 14
M  V30 14 1 14 15
M  V30 15 2 15 16
M  V30 16 1 15 17
M  V30 17 1 17 18
M  V30 18 1 18 19
M  V30 19 1 19 20
M  V30 20 1 20 21
M  V30 21 1 20 22
M  V30 22 1 22 23
M  V30 23 1 23 24
M  V30 24 1 24 25
M  V30 25 1 13 26
M  V30 26 2 26 27
M  V30 27 2 8 28
M  V30 28 1 28 29
M  V30 29 1 29 30
M  V30 30 2 30 31
M  V30 31 1 31 32
M  V30 32 2 32 33
M  V30 33 2 4 34
M  V30 34 1 34 35
M  V30 35 1 35 2
M  V30 36 1 33 6
M  V30 37 1 27 10
M  V30 38 1 33 29
M  V30 39 1 23 18
M  V30 40 1 1 36
M  V30 41 1 1 37
M  V30 42 1 1 38
M  V30 43 1 3 39
M  V30 44 1 5 40
M  V30 45 1 11 41
M  V30 46 1 12 42
M  V30 47 1 14 43
M  V30 48 1 17 44
M  V30 49 1 17 45
M  V30 50 1 19 46
M  V30 51 1 19 47
M  V30 52 1 20 48 CFG=3
M  V30 53 1 22 49
M  V30 54 1 22 50
M  V30 55 1 23 51 CFG=1
M  V30 56 1 24 52
M  V30 57 1 24 53
M  V30 58 1 25 54
M  V30 59 1 26 55
M  V30 60 1 27 56
M  V30 61 1 30 57
M  V30 62 1 31 58
M  V30 63 1 32 59
M  V30 64 1 35 60
M  V30 END BOND
M  V30 END CTAB
M  END
>  <Dataset>  (913) 
ChEMBL_Kinases

>  <Ligand_Instance>  (913) 
nan

>  <PDB_ID>  (913) 
nan

>  <Standardized_SMILES>  (913) 
Cc1cc(Nc2nc(Sc3ccc(NC(=O)CN4C[C@H](F)C[C@H]4CO)cc3)nn3cccc23)n[nH]1

>  <Name>  (913) 
nan

>  <Pocket>  (913) 
nan

>  <ATP_Site>  (913) 
nan

>  <Peripheral>  (913) 
nan

>  <Num_H_Atoms_ProtBoundConf>  (913) 
nan

>  <Num_Resolved_Atoms>  (913) 
nan

>  <Num_Not_Resolved_Atoms>  (913) 
nan

$$$$
CHEMBL1822640
     RDKit          3D

  0  0  0  0  0  0  0  0  0  0999 V3000
M  V30 BEGIN CTAB
M  V30 COUNTS 60 64 0 0 0
M  V30 BEGIN ATOM
M  V30 1 C 4.869700 -2.909036 7.695137 0
M  V30 2 C 4.218971 -2.304083 6.506818 0
M  V30 3 C 4.901621 -1.835096 5.402693 0
M  V30 4 C 3.907260 -1.359289 4.542512 0
M  V30 5 N 3.957505 -0.768498 3.276055 0
M  V30 6 C 3.903640 -1.314038 1.970154 0
M  V30 7 N 3.981787 -0.523397 0.888702 0
M  V30 8 C 3.933891 -0.997419 -0.361035 0
M  V30 9 S 4.056728 0.242970 -1.668162 0
M  V30 10 C 2.355096 0.747260 -2.000824 0
M  V30 11 C 1.712498 1.785193 -1.355586 0
M  V30 12 C 0.411281 2.112147 -1.663466 0
M  V30 13 C -0.278455 1.395761 -2.636049 0
M  V30 14 N -1.615375 1.902662 -2.796153 0
M  V30 15 C -2.554554 1.258499 -1.939604 0
M  V30 16 O -1.900264 0.391151 -1.261607 0
M  V30 17 C -3.971385 1.690600 -2.007267 0
M  V30 18 N -4.844716 1.005815 -1.133259 0
M  V30 19 C -6.186236 1.529658 -1.273661 0
M  V30 20 C -7.125408 0.368527 -1.456533 0 CFG=1
M  V30 21 F -7.431393 0.288102 -2.800854 0
M  V30 22 C -6.356661 -0.796111 -0.929397 0
M  V30 23 C -4.912818 -0.405768 -1.265823 0 CFG=1
M  V30 24 C -4.669681 -0.900508 -2.675431 0
M  V30 25 O -4.759859 -2.306137 -2.691452 0
M  V30 26 C 0.351109 0.362718 -3.283017 0
M  V30 27 C 1.643929 0.051577 -2.964561 0
M  V30 28 N 3.800850 -2.332330 -0.572898 0
M  V30 29 N 3.720200 -3.148119 0.459586 0
M  V30 30 C 3.586502 -4.485848 0.489217 0
M  V30 31 C 3.545457 -4.900769 1.789069 0
M  V30 32 C 3.660530 -3.751914 2.540114 0
M  V30 33 C 3.769534 -2.659208 1.707300 0
M  V30 34 N 2.688992 -1.540386 5.116009 0
M  V30 35 N 2.897175 -2.115036 6.307847 0
M  V30 36 H 5.897221 -2.511716 7.780083 0
M  V30 37 H 4.846783 -4.026429 7.654570 0
M  V30 38 H 4.282744 -2.564845 8.578868 0
M  V30 39 H 5.945379 -1.796997 5.160699 0
M  V30 40 H 4.052361 0.262688 3.389388 0
M  V30 41 H 2.337173 2.284616 -0.610442 0
M  V30 42 H 0.026763 2.941337 -1.087694 0
M  V30 43 H -1.844406 2.676579 -3.489430 0
M  V30 44 H -4.376183 1.588023 -3.052414 0
M  V30 45 H -3.991909 2.777597 -1.788474 0
M  V30 46 H -6.431857 2.001000 -0.287824 0
M  V30 47 H -6.261978 2.266323 -2.101495 0
M  V30 48 H -8.062805 0.567046 -0.863599 0
M  V30 49 H -6.422241 -0.796931 0.166434 0
M  V30 50 H -6.626016 -1.765610 -1.400393 0
M  V30 51 H -4.267539 -1.002256 -0.607283 0
M  V30 52 H -3.669661 -0.657133 -3.071038 0
M  V30 53 H -5.396698 -0.553832 -3.413509 0
M  V30 54 H -3.925791 -2.749493 -2.462742 0
M  V30 55 H -0.284501 -0.116218 -4.014644 0
M  V30 56 H 2.091917 -0.774713 -3.507209 0
M  V30 57 H 3.521706 -5.129972 -0.367093 0
M  V30 58 H 3.442339 -5.930671 2.109147 0
M  V30 59 H 3.661896 -3.736959 3.616183 0
M  V30 60 H 2.144530 -2.376052 6.980205 0
M  V30 END ATOM
M  V30 BEGIN BOND
M  V30 1 1 1 2
M  V30 2 2 2 3
M  V30 3 1 3 4
M  V30 4 1 4 5
M  V30 5 1 5 6
M  V30 6 2 6 7
M  V30 7 1 7 8
M  V30 8 1 8 9
M  V30 9 1 9 10
M  V30 10 2 10 11
M  V30 11 1 11 12
M  V30 12 2 12 13
M  V30 13 1 13 14
M  V30 14 1 14 15
M  V30 15 2 15 16
M  V30 16 1 15 17
M  V30 17 1 17 18
M  V30 18 1 18 19
M  V30 19 1 19 20
M  V30 20 1 20 21
M  V30 21 1 20 22
M  V30 22 1 22 23
M  V30 23 1 23 24
M  V30 24 1 24 25
M  V30 25 1 13 26
M  V30 26 2 26 27
M  V30 27 2 8 28
M  V30 28 1 28 29
M  V30 29 1 29 30
M  V30 30 2 30 31
M  V30 31 1 31 32
M  V30 32 2 32 33
M  V30 33 2 4 34
M  V30 34 1 34 35
M  V30 35 1 35 2
M  V30 36 1 33 6
M  V30 37 1 27 10
M  V30 38 1 33 29
M  V30 39 1 23 18
M  V30 40 1 1 36
M  V30 41 1 1 37
M  V30 42 1 1 38
M  V30 43 1 3 39
M  V30 44 1 5 40
M  V30 45 1 11 41
M  V30 46 1 12 42
M  V30 47 1 14 43
M  V30 48 1 17 44
M  V30 49 1 17 45
M  V30 50 1 19 46
M  V30 51 1 19 47
M  V30 52 1 20 48 CFG=1
M  V30 53 1 22 49
M  V30 54 1 22 50
M  V30 55 1 23 51 CFG=1
M  V30 56 1 24 52
M  V30 57 1 24 53
M  V30 58 1 25 54
M  V30 59 1 26 55
M  V30 60 1 27 56
M  V30 61 1 30 57
M  V30 62 1 31 58
M  V30 63 1 32 59
M  V30 64 1 35 60
M  V30 END BOND
M  V30 END CTAB
M  END
>  <Dataset>  (914) 
ChEMBL_Kinases

>  <Ligand_Instance>  (914) 
nan

>  <PDB_ID>  (914) 
nan

>  <Standardized_SMILES>  (914) 
Cc1cc(Nc2nc(Sc3ccc(NC(=O)CN4C[C@@H](F)C[C@H]4CO)cc3)nn3cccc23)n[nH]1

>  <Name>  (914) 
nan

>  <Pocket>  (914) 
nan

>  <ATP_Site>  (914) 
nan

>  <Peripheral>  (914) 
nan

>  <Num_H_Atoms_ProtBoundConf>  (914) 
nan

>  <Num_Resolved_Atoms>  (914) 
nan

>  <Num_Not_Resolved_Atoms>  (914) 
nan

$$$$
CHEMBL1822641
     RDKit          3D

  0  0  0  0  0  0  0  0  0  0999 V3000
M  V30 BEGIN CTAB
M  V30 COUNTS 61 66 0 0 0
M  V30 BEGIN ATOM
M  V30 1 C 5.627745 -0.880947 8.052309 0
M  V30 2 C 5.673808 -0.379154 6.636546 0
M  V30 3 C 4.499711 0.031855 5.990258 0
M  V30 4 C 4.811643 0.454988 4.697340 0
M  V30 5 N 3.914238 0.940254 3.674430 0
M  V30 6 C 3.583393 0.181526 2.528284 0
M  V30 7 N 3.841014 0.852445 1.391308 0
M  V30 8 C 3.604356 0.289176 0.180680 0
M  V30 9 S 3.644942 0.692944 -1.591251 0
M  V30 10 C 1.979153 1.264992 -2.023661 0
M  V30 11 C 1.391092 2.482477 -2.213485 0
M  V30 12 C 0.044644 2.571688 -2.455894 0
M  V30 13 C -0.764646 1.460691 -2.518001 0
M  V30 14 N -2.100537 1.817729 -2.745765 0
M  V30 15 C -3.097809 0.855059 -2.641367 0
M  V30 16 O -3.017503 -0.368745 -2.364982 0
M  V30 17 C -4.453208 0.244788 -2.652105 0
M  V30 18 N -4.495987 -1.080104 -2.302451 0
M  V30 19 C -4.228106 -1.606417 -1.025921 0
M  V30 20 C -3.682445 -2.990558 -1.412636 0 CFG=1
M  V30 21 C -4.705910 -4.116609 -1.468458 0
M  V30 22 C -4.381442 -3.387485 -2.687386 0 CFG=1
M  V30 23 C -5.057257 -2.087193 -3.108777 0 CFG=1
M  V30 24 C -6.567898 -2.169325 -3.030609 0
M  V30 25 O -7.035702 -2.414455 -1.744769 0
M  V30 26 C -0.231303 0.214757 -2.337331 0
M  V30 27 C 1.124581 0.148416 -2.096509 0
M  V30 28 N 3.099059 -0.978858 0.176759 0
M  V30 29 N 2.827351 -1.681491 1.258844 0
M  V30 30 C 2.327213 -2.915313 1.550283 0
M  V30 31 C 2.256444 -3.101204 2.915709 0
M  V30 32 C 2.735689 -1.928087 3.461157 0
M  V30 33 C 3.073303 -1.089273 2.439917 0
M  V30 34 N 6.151527 0.284446 4.609567 0
M  V30 35 N 6.650350 -0.192966 5.718843 0
M  V30 36 H 4.941329 -1.758350 8.074365 0
M  V30 37 H 6.630347 -1.150108 8.407678 0
M  V30 38 H 5.133888 -0.116119 8.685698 0
M  V30 39 H 3.476886 0.061181 6.339822 0
M  V30 40 H 3.453112 1.891557 3.754382 0
M  V30 41 H 2.141992 3.240784 -2.146138 0
M  V30 42 H -0.294255 3.587592 -2.593888 0
M  V30 43 H -2.750830 2.580775 -2.986593 0
M  V30 44 H -4.921180 0.359741 -3.680650 0
M  V30 45 H -5.140854 0.838093 -2.005312 0
M  V30 46 H -5.201107 -1.842111 -0.492160 0
M  V30 47 H -3.525523 -1.107604 -0.367940 0
M  V30 48 H -2.646956 -3.241153 -1.209580 0
M  V30 49 H -5.561146 -3.935257 -0.797015 0
M  V30 50 H -4.304678 -5.150344 -1.391975 0
M  V30 51 H -3.785373 -3.911023 -3.465829 0
M  V30 52 H -4.799706 -1.891926 -4.167154 0
M  V30 53 H -6.966488 -1.214585 -3.410682 0
M  V30 54 H -6.966143 -2.979142 -3.672015 0
M  V30 55 H -7.933339 -2.013769 -1.585828 0
M  V30 56 H -0.863812 -0.626411 -2.392592 0
M  V30 57 H 1.432104 -0.904037 -1.966074 0
M  V30 58 H 2.036991 -3.624878 0.758749 0
M  V30 59 H 1.895568 -3.994218 3.406030 0
M  V30 60 H 2.808922 -1.747450 4.503077 0
M  V30 61 H 7.640935 -0.431900 5.976177 0
M  V30 END ATOM
M  V30 BEGIN BOND
M  V30 1 1 1 2
M  V30 2 2 2 3
M  V30 3 1 3 4
M  V30 4 1 4 5
M  V30 5 1 5 6
M  V30 6 2 6 7
M  V30 7 1 7 8
M  V30 8 1 8 9
M  V30 9 1 9 10
M  V30 10 2 10 11
M  V30 11 1 11 12
M  V30 12 2 12 13
M  V30 13 1 13 14
M  V30 14 1 14 15
M  V30 15 2 15 16
M  V30 16 1 15 17
M  V30 17 1 17 18
M  V30 18 1 18 19
M  V30 19 1 19 20
M  V30 20 1 20 21
M  V30 21 1 21 22
M  V30 22 1 22 23
M  V30 23 1 23 24
M  V30 24 1 24 25
M  V30 25 1 13 26
M  V30 26 2 26 27
M  V30 27 2 8 28
M  V30 28 1 28 29
M  V30 29 1 29 30
M  V30 30 2 30 31
M  V30 31 1 31 32
M  V30 32 2 32 33
M  V30 33 2 4 34
M  V30 34 1 34 35
M  V30 35 1 35 2
M  V30 36 1 33 6
M  V30 37 1 27 10
M  V30 38 1 33 29
M  V30 39 1 23 18
M  V30 40 1 22 20
M  V30 41 1 1 36
M  V30 42 1 1 37
M  V30 43 1 1 38
M  V30 44 1 3 39
M  V30 45 1 5 40
M  V30 46 1 11 41
M  V30 47 1 12 42
M  V30 48 1 14 43
M  V30 49 1 17 44
M  V30 50 1 17 45
M  V30 51 1 19 46
M  V30 52 1 19 47
M  V30 53 1 20 48 CFG=3
M  V30 54 1 21 49
M  V30 55 1 21 50
M  V30 56 1 22 51 CFG=3
M  V30 57 1 23 52 CFG=3
M  V30 58 1 24 53
M  V30 59 1 24 54
M  V30 60 1 25 55
M  V30 61 1 26 56
M  V30 62 1 27 57
M  V30 63 1 30 58
M  V30 64 1 31 59
M  V30 65 1 32 60
M  V30 66 1 35 61
M  V30 END BOND
M  V30 END CTAB
M  END
>  <Dataset>  (915) 
ChEMBL_Kinases

>  <Ligand_Instance>  (915) 
nan

>  <PDB_ID>  (915) 
nan

>  <Standardized_SMILES>  (915) 
Cc1cc(Nc2nc(Sc3ccc(NC(=O)CN4C[C@H]5C[C@H]5[C@H]4CO)cc3)nn3cccc23)n[nH]1

>  <Name>  (915) 
nan

>  <Pocket>  (915) 
nan

>  <ATP_Site>  (915) 
nan

>  <Peripheral>  (915) 
nan

>  <Num_H_Atoms_ProtBoundConf>  (915) 
nan

>  <Num_Resolved_Atoms>  (915) 
nan

>  <Num_Not_Resolved_Atoms>  (915) 
nan

$$$$
CHEMBL1822642
     RDKit          3D

  0  0  0  0  0  0  0  0  0  0999 V3000
M  V30 BEGIN CTAB
M  V30 COUNTS 71 76 0 0 0
M  V30 BEGIN ATOM
M  V30 1 C 6.415430 -7.775622 4.383469 0
M  V30 2 C 6.787654 -6.473098 3.784364 0
M  V30 3 C 6.346300 -5.280508 4.301263 0
M  V30 4 C 6.845133 -4.213174 3.547099 0
M  V30 5 N 6.695392 -2.802963 3.655036 0
M  V30 6 C 5.586652 -2.189902 2.984668 0
M  V30 7 N 5.588693 -1.726415 1.722357 0
M  V30 8 C 4.549735 -1.165588 1.130269 0
M  V30 9 S 4.701334 -0.617228 -0.568242 0
M  V30 10 C 3.173162 0.110165 -1.129547 0
M  V30 11 C 2.229256 -0.761019 -1.635723 0
M  V30 12 C 1.032639 -0.255013 -2.095893 0
M  V30 13 C 0.679062 1.071906 -2.099458 0
M  V30 14 N -0.540551 1.640832 -2.540028 0
M  V30 15 C -1.695068 0.935549 -2.941465 0
M  V30 16 O -1.755987 -0.316353 -2.934076 0
M  V30 17 C -2.944191 1.609080 -3.412829 0
M  V30 18 N -3.968520 0.695355 -3.769446 0
M  V30 19 C -4.559590 -0.072266 -2.730134 0
M  V30 20 C -5.299464 0.975951 -1.933004 0 CFG=2
M  V30 21 O -6.168971 0.444127 -1.001487 0
M  V30 22 C -6.119625 0.830693 0.316915 0
M  V30 23 C -7.115799 0.120971 1.007086 0
M  V30 24 C -7.312240 0.301448 2.385763 0
M  V30 25 C -6.495459 1.198423 3.036292 0
M  V30 26 F -6.623876 1.428753 4.378920 0
M  V30 27 C -5.499230 1.922266 2.395940 0
M  V30 28 C -5.351830 1.705274 1.047823 0
M  V30 29 C -6.028716 1.673808 -3.089851 0
M  V30 30 C -5.128390 1.395212 -4.272194 0 CFG=1
M  V30 31 C -4.795516 2.644343 -5.039200 0
M  V30 32 O -6.001667 3.205867 -5.458009 0
M  V30 33 C 1.640460 1.914447 -1.589359 0
M  V30 34 C 2.850997 1.450470 -1.118141 0
M  V30 35 N 3.405047 -1.049236 1.844312 0
M  V30 36 N 3.311862 -1.477883 3.091867 0
M  V30 37 C 2.339587 -1.500623 4.016616 0
M  V30 38 C 2.743430 -2.071854 5.197927 0
M  V30 39 C 4.074458 -2.425866 4.972346 0
M  V30 40 C 4.379246 -2.044278 3.672306 0
M  V30 41 N 7.575987 -4.812140 2.595166 0
M  V30 42 N 7.555704 -6.124904 2.715537 0
M  V30 43 H 6.801317 -7.826316 5.423093 0
M  V30 44 H 6.842982 -8.575775 3.738158 0
M  V30 45 H 5.330870 -7.904409 4.387622 0
M  V30 46 H 5.700672 -5.081875 5.163599 0
M  V30 47 H 7.483436 -2.456134 4.246732 0
M  V30 48 H 2.420268 -1.829536 -1.671587 0
M  V30 49 H 0.335601 -0.980144 -2.482976 0
M  V30 50 H -0.660235 2.668387 -2.598274 0
M  V30 51 H -2.631679 2.118573 -4.373159 0
M  V30 52 H -3.239762 2.448808 -2.753765 0
M  V30 53 H -5.368581 -0.686794 -3.214062 0
M  V30 54 H -3.935390 -0.753302 -2.173826 0
M  V30 55 H -4.652410 1.721047 -1.486548 0
M  V30 56 H -7.821475 -0.610303 0.622270 0
M  V30 57 H -8.055691 -0.212795 2.969504 0
M  V30 58 H -4.833781 2.631677 2.839991 0
M  V30 59 H -4.627925 2.194092 0.442815 0
M  V30 60 H -7.047744 1.242885 -3.235860 0
M  V30 61 H -6.081598 2.755772 -2.931749 0
M  V30 62 H -5.653981 0.702234 -4.962079 0
M  V30 63 H -4.237291 2.358348 -5.953402 0
M  V30 64 H -4.236018 3.383196 -4.434353 0
M  V30 65 H -6.585791 3.516111 -4.750945 0
M  V30 66 H 1.451795 2.979368 -1.552157 0
M  V30 67 H 3.600772 2.110469 -0.719365 0
M  V30 68 H 1.337515 -1.122551 3.889023 0
M  V30 69 H 2.210499 -2.238626 6.118688 0
M  V30 70 H 4.682088 -2.908460 5.737177 0
M  V30 71 H 8.006284 -6.892388 2.159781 0
M  V30 END ATOM
M  V30 BEGIN BOND
M  V30 1 1 1 2
M  V30 2 2 2 3
M  V30 3 1 3 4
M  V30 4 1 4 5
M  V30 5 1 5 6
M  V30 6 2 6 7
M  V30 7 1 7 8
M  V30 8 1 8 9
M  V30 9 1 9 10
M  V30 10 2 10 11
M  V30 11 1 11 12
M  V30 12 2 12 13
M  V30 13 1 13 14
M  V30 14 1 14 15
M  V30 15 2 15 16
M  V30 16 1 15 17
M  V30 17 1 17 18
M  V30 18 1 18 19
M  V30 19 1 19 20
M  V30 20 1 20 21
M  V30 21 1 21 22
M  V30 22 2 22 23
M  V30 23 1 23 24
M  V30 24 2 24 25
M  V30 25 1 25 26
M  V30 26 1 25 27
M  V30 27 2 27 28
M  V30 28 1 20 29
M  V30 29 1 29 30
M  V30 30 1 30 31
M  V30 31 1 31 32
M  V30 32 1 13 33
M  V30 33 2 33 34
M  V30 34 2 8 35
M  V30 35 1 35 36
M  V30 36 1 36 37
M  V30 37 2 37 38
M  V30 38 1 38 39
M  V30 39 2 39 40
M  V30 40 2 4 41
M  V30 41 1 41 42
M  V30 42 1 42 2
M  V30 43 1 40 6
M  V30 44 1 34 10
M  V30 45 1 40 36
M  V30 46 1 30 18
M  V30 47 1 28 22
M  V30 48 1 1 43
M  V30 49 1 1 44
M  V30 50 1 1 45
M  V30 51 1 3 46
M  V30 52 1 5 47
M  V30 53 1 11 48
M  V30 54 1 12 49
M  V30 55 1 14 50
M  V30 56 1 17 51
M  V30 57 1 17 52
M  V30 58 1 19 53
M  V30 59 1 19 54
M  V30 60 1 20 55 CFG=1
M  V30 61 1 23 56
M  V30 62 1 24 57
M  V30 63 1 27 58
M  V30 64 1 28 59
M  V30 65 1 29 60
M  V30 66 1 29 61
M  V30 67 1 30 62 CFG=3
M  V30 68 1 31 63
M  V30 69 1 31 64
M  V30 70 1 32 65
M  V30 71 1 33 66
M  V30 72 1 34 67
M  V30 73 1 37 68
M  V30 74 1 38 69
M  V30 75 1 39 70
M  V30 76 1 42 71
M  V30 END BOND
M  V30 END CTAB
M  END
>  <Dataset>  (916) 
ChEMBL_Kinases

>  <Ligand_Instance>  (916) 
nan

>  <PDB_ID>  (916) 
nan

>  <Standardized_SMILES>  (916) 
Cc1cc(Nc2nc(Sc3ccc(NC(=O)CN4C[C@H](Oc5ccc(F)cc5)C[C@H]4CO)cc3)nn3cccc23)n[nH]1

>  <Name>  (916) 
nan

>  <Pocket>  (916) 
nan

>  <ATP_Site>  (916) 
nan

>  <Peripheral>  (916) 
nan

>  <Num_H_Atoms_ProtBoundConf>  (916) 
nan

>  <Num_Resolved_Atoms>  (916) 
nan

>  <Num_Not_Resolved_Atoms>  (916) 
nan

$$$$
CHEMBL1822643
     RDKit          3D

  0  0  0  0  0  0  0  0  0  0999 V3000
M  V30 BEGIN CTAB
M  V30 COUNTS 73 77 0 0 0
M  V30 BEGIN ATOM
M  V30 1 C 3.625962 -2.135793 2.710733 0
M  V30 2 C 3.935725 -0.691566 2.510406 0
M  V30 3 C 4.693690 -0.393698 1.395597 0
M  V30 4 C 4.860395 0.992882 1.398267 0
M  V30 5 N 5.436246 2.104835 0.721267 0
M  V30 6 C 4.597641 2.635713 -0.289994 0
M  V30 7 N 3.687047 3.520455 0.164606 0
M  V30 8 C 2.816387 4.116032 -0.674599 0
M  V30 9 S 1.564058 5.305880 -0.141766 0
M  V30 10 C 0.058824 4.399772 0.286287 0
M  V30 11 C -0.821231 4.199082 -0.755740 0
M  V30 12 C -1.984207 3.491040 -0.448218 0
M  V30 13 C -2.175159 3.049018 0.843063 0
M  V30 14 N -3.394031 2.298314 1.088646 0
M  V30 15 C -2.888407 0.963843 0.835008 0
M  V30 16 O -1.669183 1.246755 0.547064 0
M  V30 17 C -3.768503 -0.229934 0.952459 0
M  V30 18 N -3.138300 -1.456463 0.691191 0
M  V30 19 C -3.917623 -2.639263 0.747455 0
M  V30 20 C -3.481989 -3.515442 -0.436625 0 CFG=2
M  V30 21 O -2.787694 -4.547901 0.072413 0
M  V30 22 C -3.161180 -5.820852 -0.068946 0
M  V30 23 C -3.288263 -6.415390 -1.425969 0
M  V30 24 C -2.178070 -6.674857 0.730863 0
M  V30 25 C -4.508846 -6.041748 0.623939 0
M  V30 26 C -2.702188 -2.564665 -1.290024 0
M  V30 27 C -2.153494 -1.562181 -0.300689 0 CFG=2
M  V30 28 C -0.868980 -2.155152 0.245672 0
M  V30 29 O -0.320473 -1.405442 1.266902 0
M  V30 30 C -1.265568 3.277265 1.844807 0
M  V30 31 C -0.102619 3.971057 1.589112 0
M  V30 32 N 2.854651 3.823910 -1.991185 0
M  V30 33 N 3.745653 2.950151 -2.478173 0
M  V30 34 C 3.995128 2.493421 -3.703952 0
M  V30 35 C 5.052832 1.586049 -3.628417 0
M  V30 36 C 5.445647 1.502687 -2.297747 0
M  V30 37 C 4.600724 2.367719 -1.641256 0
M  V30 38 N 4.203477 1.456601 2.499947 0
M  V30 39 N 3.653060 0.441402 3.159947 0
M  V30 40 H 4.569159 -2.640072 2.961531 0
M  V30 41 H 2.900803 -2.265030 3.545216 0
M  V30 42 H 3.155360 -2.589971 1.814313 0
M  V30 43 H 5.193295 -0.832205 0.539802 0
M  V30 44 H 6.387873 2.518884 0.924165 0
M  V30 45 H -0.623355 4.567257 -1.752109 0
M  V30 46 H -2.716793 3.302537 -1.229422 0
M  V30 47 H -4.406348 2.471776 1.368277 0
M  V30 48 H -4.208408 -0.222871 1.972733 0
M  V30 49 H -4.643564 -0.137987 0.245843 0
M  V30 50 H -3.734820 -3.135119 1.724170 0
M  V30 51 H -5.006835 -2.425936 0.726799 0
M  V30 52 H -4.402185 -3.760006 -0.982309 0
M  V30 53 H -4.205098 -6.183311 -1.963007 0
M  V30 54 H -3.277648 -7.521141 -1.320453 0
M  V30 55 H -2.410924 -6.209135 -2.099002 0
M  V30 56 H -2.412114 -7.752266 0.690323 0
M  V30 57 H -2.301019 -6.321127 1.796042 0
M  V30 58 H -1.161942 -6.391441 0.452902 0
M  V30 59 H -4.673606 -7.087923 0.909714 0
M  V30 60 H -5.332110 -5.665843 -0.024988 0
M  V30 61 H -4.533132 -5.450758 1.557190 0
M  V30 62 H -3.337565 -1.991913 -1.987868 0
M  V30 63 H -1.859702 -3.017500 -1.836860 0
M  V30 64 H -1.862439 -0.625486 -0.805825 0
M  V30 65 H -1.015831 -3.185658 0.640673 0
M  V30 66 H -0.156336 -2.223936 -0.634757 0
M  V30 67 H -0.315386 -1.907998 2.112389 0
M  V30 68 H -1.454001 2.911290 2.846424 0
M  V30 69 H 0.641528 4.173051 2.344788 0
M  V30 70 H 3.427211 2.818896 -4.574609 0
M  V30 71 H 5.438233 1.086770 -4.483554 0
M  V30 72 H 6.247771 0.879686 -1.898449 0
M  V30 73 H 3.079525 0.365327 4.030692 0
M  V30 END ATOM
M  V30 BEGIN BOND
M  V30 1 1 1 2
M  V30 2 2 2 3
M  V30 3 1 3 4
M  V30 4 1 4 5
M  V30 5 1 5 6
M  V30 6 2 6 7
M  V30 7 1 7 8
M  V30 8 1 8 9
M  V30 9 1 9 10
M  V30 10 2 10 11
M  V30 11 1 11 12
M  V30 12 2 12 13
M  V30 13 1 13 14
M  V30 14 1 14 15
M  V30 15 2 15 16
M  V30 16 1 15 17
M  V30 17 1 17 18
M  V30 18 1 18 19
M  V30 19 1 19 20
M  V30 20 1 20 21
M  V30 21 1 21 22
M  V30 22 1 22 23
M  V30 23 1 22 24
M  V30 24 1 22 25
M  V30 25 1 20 26
M  V30 26 1 26 27
M  V30 27 1 27 28
M  V30 28 1 28 29
M  V30 29 1 13 30
M  V30 30 2 30 31
M  V30 31 2 8 32
M  V30 32 1 32 33
M  V30 33 1 33 34
M  V30 34 2 34 35
M  V30 35 1 35 36
M  V30 36 2 36 37
M  V30 37 2 4 38
M  V30 38 1 38 39
M  V30 39 1 39 2
M  V30 40 1 37 6
M  V30 41 1 31 10
M  V30 42 1 37 33
M  V30 43 1 27 18
M  V30 44 1 1 40
M  V30 45 1 1 41
M  V30 46 1 1 42
M  V30 47 1 3 43
M  V30 48 1 5 44
M  V30 49 1 11 45
M  V30 50 1 12 46
M  V30 51 1 14 47
M  V30 52 1 17 48
M  V30 53 1 17 49
M  V30 54 1 19 50
M  V30 55 1 19 51
M  V30 56 1 20 52 CFG=3
M  V30 57 1 23 53
M  V30 58 1 23 54
M  V30 59 1 23 55
M  V30 60 1 24 56
M  V30 61 1 24 57
M  V30 62 1 24 58
M  V30 63 1 25 59
M  V30 64 1 25 60
M  V30 65 1 25 61
M  V30 66 1 26 62
M  V30 67 1 26 63
M  V30 68 1 27 64 CFG=3
M  V30 69 1 28 65
M  V30 70 1 28 66
M  V30 71 1 29 67
M  V30 72 1 30 68
M  V30 73 1 31 69
M  V30 74 1 34 70
M  V30 75 1 35 71
M  V30 76 1 36 72
M  V30 77 1 39 73
M  V30 END BOND
M  V30 END CTAB
M  END
>  <Dataset>  (917) 
ChEMBL_Kinases

>  <Ligand_Instance>  (917) 
nan

>  <PDB_ID>  (917) 
nan

>  <Standardized_SMILES>  (917) 
Cc1cc(Nc2nc(Sc3ccc(NC(=O)CN4C[C@H](OC(C)(C)C)C[C@@H]4CO)cc3)nn3cccc23)n[nH]1

>  <Name>  (917) 
nan

>  <Pocket>  (917) 
nan

>  <ATP_Site>  (917) 
nan

>  <Peripheral>  (917) 
nan

>  <Num_H_Atoms_ProtBoundConf>  (917) 
nan

>  <Num_Resolved_Atoms>  (917) 
nan

>  <Num_Not_Resolved_Atoms>  (917) 
nan

$$$$
CHEMBL1822644
     RDKit          3D

  0  0  0  0  0  0  0  0  0  0999 V3000
M  V30 BEGIN CTAB
M  V30 COUNTS 73 77 0 0 0
M  V30 BEGIN ATOM
M  V30 1 C 3.243798 -3.294512 2.217924 0
M  V30 2 C 3.841608 -2.095318 1.606461 0
M  V30 3 C 4.040308 -2.067428 0.250131 0
M  V30 4 C 4.606127 -0.843002 -0.055239 0
M  V30 5 N 5.113386 -0.016964 -1.103202 0
M  V30 6 C 4.189689 0.803836 -1.828403 0
M  V30 7 N 3.712764 1.989117 -1.353118 0
M  V30 8 C 2.856727 2.768259 -2.029586 0
M  V30 9 S 2.442166 4.226446 -1.069097 0
M  V30 10 C 0.982753 3.739999 -0.110937 0
M  V30 11 C 1.039471 3.124458 1.136425 0
M  V30 12 C -0.170516 2.799107 1.749635 0
M  V30 13 C -1.392595 3.087404 1.122210 0
M  V30 14 N -2.452827 2.627161 1.987899 0
M  V30 15 C -2.768271 1.306268 1.587611 0
M  V30 16 O -2.062187 0.892365 0.605592 0
M  V30 17 C -3.811002 0.449783 2.219102 0
M  V30 18 N -3.953081 -0.809189 1.642780 0
M  V30 19 C -2.872122 -1.755483 1.782329 0
M  V30 20 C -3.370772 -3.022690 1.120298 0 CFG=2
M  V30 21 S -2.865556 -3.214441 -0.584389 0
M  V30 22 C -1.115491 -3.496158 -0.761580 0
M  V30 23 C -0.808634 -3.710875 -2.259941 0
M  V30 24 C -0.279066 -2.307865 -0.354253 0
M  V30 25 C -0.631398 -4.691908 0.050179 0
M  V30 26 C -4.882151 -2.941206 1.250468 0
M  V30 27 C -5.168417 -1.523322 1.753060 0 CFG=1
M  V30 28 C -5.521162 -1.692960 3.214881 0
M  V30 29 O -5.667163 -0.457758 3.787957 0
M  V30 30 C -1.425365 3.687766 -0.093099 0
M  V30 31 C -0.229735 4.009000 -0.699692 0
M  V30 32 N 2.478207 2.312693 -3.239635 0
M  V30 33 N 2.897794 1.190836 -3.747103 0
M  V30 34 C 2.569744 0.679604 -4.925369 0
M  V30 35 C 3.251826 -0.522301 -5.043285 0
M  V30 36 C 4.002152 -0.707932 -3.884841 0
M  V30 37 C 3.761121 0.381358 -3.089961 0
M  V30 38 N 4.730561 -0.171605 1.125647 0
M  V30 39 N 4.269995 -0.929158 2.120056 0
M  V30 40 H 4.001223 -4.092428 2.298412 0
M  V30 41 H 2.849549 -3.099152 3.237353 0
M  V30 42 H 2.421183 -3.695536 1.595733 0
M  V30 43 H 3.903419 -2.668865 -0.631551 0
M  V30 44 H 6.141672 0.012048 -1.363568 0
M  V30 45 H 2.019514 2.941589 1.543454 0
M  V30 46 H 0.009152 2.325255 2.715057 0
M  V30 47 H -3.016151 3.012352 2.796662 0
M  V30 48 H -4.815675 0.963180 2.179613 0
M  V30 49 H -3.564156 0.367113 3.296755 0
M  V30 50 H -1.896830 -1.409613 1.472096 0
M  V30 51 H -2.784739 -1.986343 2.877557 0
M  V30 52 H -3.048369 -3.934943 1.688503 0
M  V30 53 H -1.577483 -4.354642 -2.689202 0
M  V30 54 H 0.212394 -4.139365 -2.309715 0
M  V30 55 H -0.824515 -2.669235 -2.689659 0
M  V30 56 H 0.675952 -2.300085 -0.975142 0
M  V30 57 H 0.110739 -2.382451 0.687922 0
M  V30 58 H -0.753986 -1.349564 -0.591646 0
M  V30 59 H 0.020494 -5.298509 -0.634850 0
M  V30 60 H -1.469411 -5.298910 0.433644 0
M  V30 61 H -0.024743 -4.349090 0.894692 0
M  V30 62 H -5.384833 -3.110091 0.266473 0
M  V30 63 H -5.276905 -3.713594 1.939932 0
M  V30 64 H -5.991946 -1.060331 1.170188 0
M  V30 65 H -6.408032 -2.350235 3.350544 0
M  V30 66 H -4.629229 -2.173293 3.700784 0
M  V30 67 H -5.452460 -0.454412 4.771506 0
M  V30 68 H -2.431211 3.840732 -0.437808 0
M  V30 69 H -0.325550 4.489237 -1.672621 0
M  V30 70 H 1.896915 1.074883 -5.703049 0
M  V30 71 H 3.205835 -1.197582 -5.891970 0
M  V30 72 H 4.651480 -1.521907 -3.622091 0
M  V30 73 H 4.214753 -0.725218 3.161206 0
M  V30 END ATOM
M  V30 BEGIN BOND
M  V30 1 1 1 2
M  V30 2 2 2 3
M  V30 3 1 3 4
M  V30 4 1 4 5
M  V30 5 1 5 6
M  V30 6 2 6 7
M  V30 7 1 7 8
M  V30 8 1 8 9
M  V30 9 1 9 10
M  V30 10 2 10 11
M  V30 11 1 11 12
M  V30 12 2 12 13
M  V30 13 1 13 14
M  V30 14 1 14 15
M  V30 15 2 15 16
M  V30 16 1 15 17
M  V30 17 1 17 18
M  V30 18 1 18 19
M  V30 19 1 19 20
M  V30 20 1 20 21
M  V30 21 1 21 22
M  V30 22 1 22 23
M  V30 23 1 22 24
M  V30 24 1 22 25
M  V30 25 1 20 26
M  V30 26 1 26 27
M  V30 27 1 27 28
M  V30 28 1 28 29
M  V30 29 1 13 30
M  V30 30 2 30 31
M  V30 31 2 8 32
M  V30 32 1 32 33
M  V30 33 1 33 34
M  V30 34 2 34 35
M  V30 35 1 35 36
M  V30 36 2 36 37
M  V30 37 2 4 38
M  V30 38 1 38 39
M  V30 39 1 39 2
M  V30 40 1 37 6
M  V30 41 1 31 10
M  V30 42 1 37 33
M  V30 43 1 27 18
M  V30 44 1 1 40
M  V30 45 1 1 41
M  V30 46 1 1 42
M  V30 47 1 3 43
M  V30 48 1 5 44
M  V30 49 1 11 45
M  V30 50 1 12 46
M  V30 51 1 14 47
M  V30 52 1 17 48
M  V30 53 1 17 49
M  V30 54 1 19 50
M  V30 55 1 19 51
M  V30 56 1 20 52 CFG=1
M  V30 57 1 23 53
M  V30 58 1 23 54
M  V30 59 1 23 55
M  V30 60 1 24 56
M  V30 61 1 24 57
M  V30 62 1 24 58
M  V30 63 1 25 59
M  V30 64 1 25 60
M  V30 65 1 25 61
M  V30 66 1 26 62
M  V30 67 1 26 63
M  V30 68 1 27 64 CFG=3
M  V30 69 1 28 65
M  V30 70 1 28 66
M  V30 71 1 29 67
M  V30 72 1 30 68
M  V30 73 1 31 69
M  V30 74 1 34 70
M  V30 75 1 35 71
M  V30 76 1 36 72
M  V30 77 1 39 73
M  V30 END BOND
M  V30 END CTAB
M  END
>  <Dataset>  (918) 
ChEMBL_Kinases

>  <Ligand_Instance>  (918) 
nan

>  <PDB_ID>  (918) 
nan

>  <Standardized_SMILES>  (918) 
Cc1cc(Nc2nc(Sc3ccc(NC(=O)CN4C[C@H](SC(C)(C)C)C[C@H]4CO)cc3)nn3cccc23)n[nH]1

>  <Name>  (918) 
nan

>  <Pocket>  (918) 
nan

>  <ATP_Site>  (918) 
nan

>  <Peripheral>  (918) 
nan

>  <Num_H_Atoms_ProtBoundConf>  (918) 
nan

>  <Num_Resolved_Atoms>  (918) 
nan

>  <Num_Not_Resolved_Atoms>  (918) 
nan

$$$$
CHEMBL1822645
     RDKit          3D

  0  0  0  0  0  0  0  0  0  0999 V3000
M  V30 BEGIN CTAB
M  V30 COUNTS 61 65 0 0 0
M  V30 BEGIN ATOM
M  V30 1 C 7.940052 -1.751977 7.206995 0
M  V30 2 C 6.735228 -1.201096 6.570793 0
M  V30 3 C 6.163536 -1.438275 5.356284 0
M  V30 4 C 5.017936 -0.684012 5.167723 0
M  V30 5 N 4.115979 -0.597882 4.091208 0
M  V30 6 C 4.065603 -1.268846 2.863506 0
M  V30 7 N 3.939282 -0.590252 1.705211 0
M  V30 8 C 3.875837 -1.160728 0.489157 0
M  V30 9 S 3.704827 -0.037586 -0.894797 0
M  V30 10 C 1.966706 0.244591 -1.205178 0
M  V30 11 C 1.371468 1.290249 -0.537335 0
M  V30 12 C 0.035772 1.573207 -0.717447 0
M  V30 13 C -0.785279 0.848916 -1.558864 0
M  V30 14 N -2.146021 1.206569 -1.678633 0
M  V30 15 C -3.153788 0.612186 -2.478121 0
M  V30 16 O -2.848502 -0.367156 -3.197820 0
M  V30 17 C -4.530144 1.166384 -2.436204 0
M  V30 18 N -5.448884 0.469374 -3.277217 0
M  V30 19 C -6.768875 1.081857 -3.242359 0
M  V30 20 C -7.670258 0.231542 -2.422052 0 CFG=2
M  V30 21 O -8.211561 0.905755 -1.325981 0
M  V30 22 C -6.791085 -0.874739 -1.915678 0
M  V30 23 C -5.655005 -0.908898 -2.889374 0 CFG=1
M  V30 24 C -6.020867 -1.734126 -4.130079 0
M  V30 25 O -7.191133 -1.234553 -4.701021 0
M  V30 26 C -0.130098 -0.178786 -2.194075 0
M  V30 27 C 1.197475 -0.516707 -2.061235 0
M  V30 28 N 3.943318 -2.522424 0.415962 0
M  V30 29 N 4.067181 -3.260244 1.503130 0
M  V30 30 C 4.145840 -4.595032 1.647793 0
M  V30 31 C 4.261979 -4.877614 2.991635 0
M  V30 32 C 4.247877 -3.653625 3.626154 0
M  V30 33 C 4.127734 -2.649787 2.709719 0
M  V30 34 N 4.919967 0.014617 6.310577 0
M  V30 35 N 5.916749 -0.289329 7.118099 0
M  V30 36 H 7.763986 -2.050970 8.260005 0
M  V30 37 H 8.768690 -0.997140 7.237598 0
M  V30 38 H 8.291622 -2.611297 6.616099 0
M  V30 39 H 6.552722 -2.140890 4.609366 0
M  V30 40 H 3.301077 0.071748 4.142197 0
M  V30 41 H 1.945439 1.905359 0.138712 0
M  V30 42 H -0.374788 2.422979 -0.151769 0
M  V30 43 H -2.472873 2.015325 -1.110197 0
M  V30 44 H -4.492157 2.251101 -2.655616 0
M  V30 45 H -4.933199 1.101503 -1.384548 0
M  V30 46 H -6.733440 2.115660 -2.809519 0
M  V30 47 H -7.218754 1.160095 -4.265043 0
M  V30 48 H -8.508857 -0.241148 -3.005640 0
M  V30 49 H -7.486478 1.054117 -0.681701 0
M  V30 50 H -6.378971 -0.653241 -0.907463 0
M  V30 51 H -7.321573 -1.857927 -1.868346 0
M  V30 52 H -4.768576 -1.383484 -2.473052 0
M  V30 53 H -5.222851 -1.609645 -4.897990 0
M  V30 54 H -6.104451 -2.795269 -3.887283 0
M  V30 55 H -7.795476 -1.977284 -4.971268 0
M  V30 56 H -0.669060 -0.809608 -2.873079 0
M  V30 57 H 1.657499 -1.328297 -2.579087 0
M  V30 58 H 4.121719 -5.322228 0.844792 0
M  V30 59 H 4.346060 -5.873810 3.442931 0
M  V30 60 H 4.319720 -3.541026 4.694432 0
M  V30 61 H 5.976307 0.183188 8.060421 0
M  V30 END ATOM
M  V30 BEGIN BOND
M  V30 1 1 1 2
M  V30 2 2 2 3
M  V30 3 1 3 4
M  V30 4 1 4 5
M  V30 5 1 5 6
M  V30 6 2 6 7
M  V30 7 1 7 8
M  V30 8 1 8 9
M  V30 9 1 9 10
M  V30 10 2 10 11
M  V30 11 1 11 12
M  V30 12 2 12 13
M  V30 13 1 13 14
M  V30 14 1 14 15
M  V30 15 2 15 16
M  V30 16 1 15 17
M  V30 17 1 17 18
M  V30 18 1 18 19
M  V30 19 1 19 20
M  V30 20 1 20 21
M  V30 21 1 20 22
M  V30 22 1 22 23
M  V30 23 1 23 24
M  V30 24 1 24 25
M  V30 25 1 13 26
M  V30 26 2 26 27
M  V30 27 2 8 28
M  V30 28 1 28 29
M  V30 29 1 29 30
M  V30 30 2 30 31
M  V30 31 1 31 32
M  V30 32 2 32 33
M  V30 33 2 4 34
M  V30 34 1 34 35
M  V30 35 1 35 2
M  V30 36 1 33 6
M  V30 37 1 27 10
M  V30 38 1 33 29
M  V30 39 1 23 18
M  V30 40 1 1 36
M  V30 41 1 1 37
M  V30 42 1 1 38
M  V30 43 1 3 39
M  V30 44 1 5 40
M  V30 45 1 11 41
M  V30 46 1 12 42
M  V30 47 1 14 43
M  V30 48 1 17 44
M  V30 49 1 17 45
M  V30 50 1 19 46
M  V30 51 1 19 47
M  V30 52 1 20 48 CFG=3
M  V30 53 1 21 49
M  V30 54 1 22 50
M  V30 55 1 22 51
M  V30 56 1 23 52 CFG=1
M  V30 57 1 24 53
M  V30 58 1 24 54
M  V30 59 1 25 55
M  V30 60 1 26 56
M  V30 61 1 27 57
M  V30 62 1 30 58
M  V30 63 1 31 59
M  V30 64 1 32 60
M  V30 65 1 35 61
M  V30 END BOND
M  V30 END CTAB
M  END
>  <Dataset>  (919) 
ChEMBL_Kinases

>  <Ligand_Instance>  (919) 
nan

>  <PDB_ID>  (919) 
nan

>  <Standardized_SMILES>  (919) 
Cc1cc(Nc2nc(Sc3ccc(NC(=O)CN4C[C@H](O)C[C@H]4CO)cc3)nn3cccc23)n[nH]1

>  <Name>  (919) 
nan

>  <Pocket>  (919) 
nan

>  <ATP_Site>  (919) 
nan

>  <Peripheral>  (919) 
nan

>  <Num_H_Atoms_ProtBoundConf>  (919) 
nan

>  <Num_Resolved_Atoms>  (919) 
nan

>  <Num_Not_Resolved_Atoms>  (919) 
nan

$$$$
CHEMBL1822637
     RDKit          3D

  0  0  0  0  0  0  0  0  0  0999 V3000
M  V30 BEGIN CTAB
M  V30 COUNTS 73 77 0 0 0
M  V30 BEGIN ATOM
M  V30 1 C 7.088333 0.925502 1.814249 0
M  V30 2 C 6.035281 1.986612 1.653394 0
M  V30 3 C 6.155207 2.801682 0.528689 0
M  V30 4 C 5.089314 3.682863 0.603602 0
M  V30 5 N 4.493679 4.785297 -0.100207 0
M  V30 6 C 3.485462 4.633497 -1.108628 0
M  V30 7 N 2.171713 4.598010 -0.844038 0
M  V30 8 C 1.209693 4.461628 -1.754572 0
M  V30 9 S -0.426616 4.457786 -1.050464 0
M  V30 10 C -0.948629 2.796766 -0.605540 0
M  V30 11 C -2.209290 2.744425 -0.043180 0
M  V30 12 C -2.678267 1.493652 0.329878 0
M  V30 13 C -1.823606 0.405609 0.097775 0
M  V30 14 N -2.275510 -0.910932 0.487606 0
M  V30 15 C -1.754923 -1.029889 1.825311 0
M  V30 16 O -1.085477 -0.036944 2.289456 0
M  V30 17 C -1.770022 -2.041884 2.899495 0
M  V30 18 N -2.460471 -3.238713 2.641772 0
M  V30 19 C -1.958039 -4.133669 1.672330 0
M  V30 20 C -3.126857 -4.903599 1.100953 0 CFG=2
M  V30 21 O -3.301050 -4.499711 -0.217330 0
M  V30 22 C -3.379832 -5.561524 -1.099548 0
M  V30 23 C -3.568947 -4.971377 -2.489203 0
M  V30 24 C -2.146510 -6.413101 -1.102642 0
M  V30 25 C -4.576673 -6.448707 -0.826910 0
M  V30 26 C -4.350719 -4.429237 1.867715 0
M  V30 27 C -3.879896 -3.216703 2.643496 0 CFG=1
M  V30 28 C -4.309218 -3.398764 4.105266 0
M  V30 29 O -3.802055 -4.631798 4.542310 0
M  V30 30 C -0.568454 0.488400 -0.466990 0
M  V30 31 C -0.105942 1.734771 -0.836232 0
M  V30 32 N 1.662320 4.354982 -3.040028 0
M  V30 33 N 2.946359 4.388007 -3.315086 0
M  V30 34 C 3.436202 4.287997 -4.563014 0
M  V30 35 C 4.802352 4.367008 -4.429747 0
M  V30 36 C 5.151453 4.515541 -3.092253 0
M  V30 37 C 3.947373 4.524180 -2.422866 0
M  V30 38 N 4.387277 3.389885 1.719157 0
M  V30 39 N 4.936788 2.378545 2.359844 0
M  V30 40 H 8.083418 1.410092 1.774108 0
M  V30 41 H 6.923588 0.405932 2.786489 0
M  V30 42 H 7.019733 0.233128 0.972825 0
M  V30 43 H 6.772752 2.958304 -0.331019 0
M  V30 44 H 4.654783 5.814059 -0.032341 0
M  V30 45 H -2.843075 3.602238 0.120502 0
M  V30 46 H -3.633587 1.295496 0.776234 0
M  V30 47 H -2.780069 -1.798252 0.294749 0
M  V30 48 H -2.155524 -1.634090 3.864723 0
M  V30 49 H -0.697433 -2.323826 3.122093 0
M  V30 50 H -1.289781 -3.703863 0.901181 0
M  V30 51 H -1.321126 -4.892418 2.210611 0
M  V30 52 H -3.069882 -5.981213 1.254776 0
M  V30 53 H -4.625614 -4.571647 -2.503920 0
M  V30 54 H -3.398030 -5.683706 -3.300290 0
M  V30 55 H -2.861470 -4.108237 -2.538562 0
M  V30 56 H -2.261715 -7.213951 -0.337526 0
M  V30 57 H -1.199667 -5.842233 -0.980148 0
M  V30 58 H -2.086479 -6.917380 -2.081533 0
M  V30 59 H -4.582223 -7.232874 -1.612206 0
M  V30 60 H -5.532144 -5.904673 -0.945866 0
M  V30 61 H -4.509592 -6.979159 0.147424 0
M  V30 62 H -4.734904 -5.210923 2.554343 0
M  V30 63 H -5.185732 -4.198302 1.175162 0
M  V30 64 H -4.357222 -2.299350 2.292028 0
M  V30 65 H -5.410192 -3.366483 4.219442 0
M  V30 66 H -3.819421 -2.598373 4.733760 0
M  V30 67 H -2.810909 -4.501330 4.652655 0
M  V30 68 H 0.021317 -0.389789 -0.611583 0
M  V30 69 H 0.861554 1.892056 -1.282729 0
M  V30 70 H 3.037999 4.171866 -5.556565 0
M  V30 71 H 5.612190 4.334356 -5.171629 0
M  V30 72 H 6.102234 4.611194 -2.586107 0
M  V30 73 H 4.825158 1.781629 3.208229 0
M  V30 END ATOM
M  V30 BEGIN BOND
M  V30 1 1 1 2
M  V30 2 2 2 3
M  V30 3 1 3 4
M  V30 4 1 4 5
M  V30 5 1 5 6
M  V30 6 2 6 7
M  V30 7 1 7 8
M  V30 8 1 8 9
M  V30 9 1 9 10
M  V30 10 2 10 11
M  V30 11 1 11 12
M  V30 12 2 12 13
M  V30 13 1 13 14
M  V30 14 1 14 15
M  V30 15 2 15 16
M  V30 16 1 15 17
M  V30 17 1 17 18
M  V30 18 1 18 19
M  V30 19 1 19 20
M  V30 20 1 20 21
M  V30 21 1 21 22
M  V30 22 1 22 23
M  V30 23 1 22 24
M  V30 24 1 22 25
M  V30 25 1 20 26
M  V30 26 1 26 27
M  V30 27 1 27 28
M  V30 28 1 28 29
M  V30 29 1 13 30
M  V30 30 2 30 31
M  V30 31 2 8 32
M  V30 32 1 32 33
M  V30 33 1 33 34
M  V30 34 2 34 35
M  V30 35 1 35 36
M  V30 36 2 36 37
M  V30 37 2 4 38
M  V30 38 1 38 39
M  V30 39 1 39 2
M  V30 40 1 37 6
M  V30 41 1 31 10
M  V30 42 1 37 33
M  V30 43 1 27 18
M  V30 44 1 1 40
M  V30 45 1 1 41
M  V30 46 1 1 42
M  V30 47 1 3 43
M  V30 48 1 5 44
M  V30 49 1 11 45
M  V30 50 1 12 46
M  V30 51 1 14 47
M  V30 52 1 17 48
M  V30 53 1 17 49
M  V30 54 1 19 50
M  V30 55 1 19 51
M  V30 56 1 20 52 CFG=3
M  V30 57 1 23 53
M  V30 58 1 23 54
M  V30 59 1 23 55
M  V30 60 1 24 56
M  V30 61 1 24 57
M  V30 62 1 24 58
M  V30 63 1 25 59
M  V30 64 1 25 60
M  V30 65 1 25 61
M  V30 66 1 26 62
M  V30 67 1 26 63
M  V30 68 1 27 64 CFG=3
M  V30 69 1 28 65
M  V30 70 1 28 66
M  V30 71 1 29 67
M  V30 72 1 30 68
M  V30 73 1 31 69
M  V30 74 1 34 70
M  V30 75 1 35 71
M  V30 76 1 36 72
M  V30 77 1 39 73
M  V30 END BOND
M  V30 END CTAB
M  END
>  <Dataset>  (920) 
ChEMBL_Kinases

>  <Ligand_Instance>  (920) 
nan

>  <PDB_ID>  (920) 
nan

>  <Standardized_SMILES>  (920) 
Cc1cc(Nc2nc(Sc3ccc(NC(=O)CN4C[C@H](OC(C)(C)C)C[C@H]4CO)cc3)nn3cccc23)n[nH]1

>  <Name>  (920) 
nan

>  <Pocket>  (920) 
nan

>  <ATP_Site>  (920) 
nan

>  <Peripheral>  (920) 
nan

>  <Num_H_Atoms_ProtBoundConf>  (920) 
nan

>  <Num_Resolved_Atoms>  (920) 
nan

>  <Num_Not_Resolved_Atoms>  (920) 
nan

$$$$
CHEMBL1825151
     RDKit          3D

  0  0  0  0  0  0  0  0  0  0999 V3000
M  V30 BEGIN CTAB
M  V30 COUNTS 55 59 0 0 0
M  V30 BEGIN ATOM
M  V30 1 C 0.247014 -1.246317 4.598457 0
M  V30 2 C 1.322766 -0.567919 3.856788 0
M  V30 3 C 2.466562 -0.152083 4.508498 0
M  V30 4 C 3.483469 0.495970 3.798131 0
M  V30 5 C 3.332195 0.714479 2.444588 0
M  V30 6 C 4.424901 1.393194 1.763895 0
M  V30 7 O 5.423683 1.733756 2.432043 0
M  V30 8 N 4.439125 1.701159 0.375770 0
M  V30 9 C 5.563003 2.378511 -0.228688 0
M  V30 10 C 6.045208 1.860007 -1.614396 0
M  V30 11 C 5.446408 3.230278 -1.417398 0
M  V30 12 C 2.185509 0.294863 1.803417 0
M  V30 13 C 1.163847 -0.353758 2.505318 0
M  V30 14 C 0.005963 -0.751460 1.714415 0
M  V30 15 C -0.632480 -1.981620 1.734323 0
M  V30 16 C -1.715493 -2.181857 0.921360 0
M  V30 17 C -2.257998 -1.274048 0.061304 0
M  V30 18 C -1.600721 -0.060008 0.064955 0
M  V30 19 C -0.497899 0.231533 0.853306 0
M  V30 20 N -2.235933 0.853606 -0.855457 0
M  V30 21 C -3.314471 0.109531 -1.408328 0
M  V30 22 O -4.203990 0.409707 -2.246432 0
M  V30 23 C -3.390482 -1.305861 -0.877385 0 CFG=2
M  V30 24 C -4.707007 -1.571635 -0.223465 0
M  V30 25 C -5.356470 -2.748551 -0.920773 0
M  V30 26 C -4.395544 -3.927564 -0.836562 0 CFG=1
M  V30 27 O -5.052437 -5.075783 -1.319099 0
M  V30 28 C -3.223983 -3.625814 -1.719726 0
M  V30 29 C -3.058268 -2.182808 -2.038673 0
M  V30 30 H 0.420280 -2.351971 4.687305 0
M  V30 31 H -0.710289 -1.065814 4.073672 0
M  V30 32 H 0.098501 -0.803471 5.615494 0
M  V30 33 H 2.591278 -0.322728 5.580269 0
M  V30 34 H 4.360829 0.800417 4.365349 0
M  V30 35 H 3.626033 1.431279 -0.202089 0
M  V30 36 H 6.381035 2.620323 0.487132 0
M  V30 37 H 5.434304 1.054796 -2.073621 0
M  V30 38 H 7.156976 1.814529 -1.735105 0
M  V30 39 H 4.451083 3.404565 -1.900421 0
M  V30 40 H 6.102278 4.117393 -1.520961 0
M  V30 41 H 2.090951 0.477776 0.742614 0
M  V30 42 H -0.210674 -2.709719 2.409532 0
M  V30 43 H -2.114173 -3.194434 1.048837 0
M  V30 44 H -0.020183 1.210459 0.812075 0
M  V30 45 H -2.045301 1.837163 -1.132624 0
M  V30 46 H -5.383800 -0.713848 -0.183135 0
M  V30 47 H -4.505318 -1.910154 0.833273 0
M  V30 48 H -5.465972 -2.468144 -1.986763 0
M  V30 49 H -6.294128 -3.071808 -0.434521 0
M  V30 50 H -4.138085 -4.162394 0.209508 0
M  V30 51 H -4.699226 -5.295126 -2.217217 0
M  V30 52 H -3.278092 -4.174302 -2.690731 0
M  V30 53 H -2.293045 -3.976906 -1.189057 0
M  V30 54 H -3.556749 -1.875760 -2.981420 0
M  V30 55 H -1.959909 -2.012563 -2.240333 0
M  V30 END ATOM
M  V30 BEGIN BOND
M  V30 1 1 1 2
M  V30 2 2 2 3
M  V30 3 1 3 4
M  V30 4 2 4 5
M  V30 5 1 5 6
M  V30 6 2 6 7
M  V30 7 1 6 8
M  V30 8 1 8 9
M  V30 9 1 9 10
M  V30 10 1 10 11
M  V30 11 1 5 12
M  V30 12 2 12 13
M  V30 13 1 13 14
M  V30 14 2 14 15
M  V30 15 1 15 16
M  V30 16 2 16 17
M  V30 17 1 17 18
M  V30 18 2 18 19
M  V30 19 1 18 20
M  V30 20 1 20 21
M  V30 21 2 21 22
M  V30 22 1 21 23
M  V30 23 1 23 24 CFG=1
M  V30 24 1 24 25
M  V30 25 1 25 26
M  V30 26 1 26 27
M  V30 27 1 26 28
M  V30 28 1 28 29
M  V30 29 1 13 2
M  V30 30 1 19 14
M  V30 31 1 29 23
M  V30 32 1 11 9
M  V30 33 1 23 17
M  V30 34 1 1 30
M  V30 35 1 1 31
M  V30 36 1 1 32
M  V30 37 1 3 33
M  V30 38 1 4 34
M  V30 39 1 8 35
M  V30 40 1 9 36
M  V30 41 1 10 37
M  V30 42 1 10 38
M  V30 43 1 11 39
M  V30 44 1 11 40
M  V30 45 1 12 41
M  V30 46 1 15 42
M  V30 47 1 16 43
M  V30 48 1 19 44
M  V30 49 1 20 45
M  V30 50 1 24 46
M  V30 51 1 24 47
M  V30 52 1 25 48
M  V30 53 1 25 49
M  V30 54 1 26 50 CFG=1
M  V30 55 1 27 51
M  V30 56 1 28 52
M  V30 57 1 28 53
M  V30 58 1 29 54
M  V30 59 1 29 55
M  V30 END BOND
M  V30 END CTAB
M  END
>  <Dataset>  (921) 
ChEMBL_Kinases

>  <Ligand_Instance>  (921) 
nan

>  <PDB_ID>  (921) 
nan

>  <Standardized_SMILES>  (921) 
Cc1ccc(C(=O)NC2CC2)cc1-c1ccc2c(c1)NC(=O)[C@]21CC[C@@H](O)CC1

>  <Name>  (921) 
nan

>  <Pocket>  (921) 
nan

>  <ATP_Site>  (921) 
nan

>  <Peripheral>  (921) 
nan

>  <Num_H_Atoms_ProtBoundConf>  (921) 
nan

>  <Num_Resolved_Atoms>  (921) 
nan

>  <Num_Not_Resolved_Atoms>  (921) 
nan

$$$$
CHEMBL1825150
     RDKit          3D

  0  0  0  0  0  0  0  0  0  0999 V3000
M  V30 BEGIN CTAB
M  V30 COUNTS 54 58 0 0 0
M  V30 BEGIN ATOM
M  V30 1 C 0.223972 3.559723 -0.220302 0
M  V30 2 C 1.162121 2.881063 0.704725 0
M  V30 3 C 2.195146 3.578163 1.298900 0
M  V30 4 C 3.075052 2.935966 2.168080 0
M  V30 5 C 2.891169 1.591055 2.420924 0
M  V30 6 C 3.833428 0.953816 3.336821 0
M  V30 7 O 4.739398 1.647893 3.834109 0
M  V30 8 N 3.792109 -0.408736 3.704563 0
M  V30 9 C 4.728921 -1.022665 4.609419 0
M  V30 10 C 4.047183 -1.948656 5.636954 0
M  V30 11 C 4.987012 -2.479273 4.592055 0
M  V30 12 C 1.854402 0.904747 1.820695 0
M  V30 13 C 0.965117 1.533982 0.948078 0
M  V30 14 C -0.098388 0.725964 0.362991 0
M  V30 15 C -1.436624 1.046489 0.233843 0
M  V30 16 C -2.295125 0.127318 -0.359568 0
M  V30 17 C -1.854890 -1.094363 -0.823754 0
M  V30 18 C -0.519079 -1.424958 -0.699673 0
M  V30 19 C 0.336277 -0.514440 -0.110838 0
M  V30 20 N -0.350711 -2.729119 -1.257094 0
M  V30 21 C -1.615574 -3.188419 -1.725159 0
M  V30 22 O -1.802762 -4.314044 -2.274566 0
M  V30 23 C -2.670379 -2.157003 -1.473398 0
M  V30 24 C -3.149573 -1.626478 -2.772379 0
M  V30 25 C -3.884720 -2.598217 -3.642006 0
M  V30 26 S -4.832353 -3.798481 -2.801608 0
M  V30 27 O -6.293619 -3.393682 -2.875836 0
M  V30 28 O -4.743283 -5.089685 -3.563759 0
M  V30 29 C -4.297775 -3.957752 -1.136508 0
M  V30 30 C -3.755671 -2.675053 -0.576822 0
M  V30 31 H -0.174982 2.879813 -1.018954 0
M  V30 32 H 0.750420 4.362574 -0.815655 0
M  V30 33 H -0.587462 4.117498 0.302120 0
M  V30 34 H 2.320534 4.639697 1.084085 0
M  V30 35 H 3.862301 3.572199 2.590086 0
M  V30 36 H 3.044060 -1.016240 3.304051 0
M  V30 37 H 5.520649 -0.365105 5.028274 0
M  V30 38 H 4.353126 -1.896649 6.686767 0
M  V30 39 H 2.985684 -2.248593 5.439768 0
M  V30 40 H 5.955223 -2.824942 4.989733 0
M  V30 41 H 4.610854 -3.057665 3.737751 0
M  V30 42 H 1.713433 -0.151824 2.022066 0
M  V30 43 H -1.701044 2.012694 0.618159 0
M  V30 44 H -3.345542 0.428928 -0.438212 0
M  V30 45 H 1.361726 -0.848690 -0.052098 0
M  V30 46 H 0.547523 -3.268097 -1.317407 0
M  V30 47 H -3.863293 -0.797308 -2.553700 0
M  V30 48 H -2.282357 -1.160926 -3.282936 0
M  V30 49 H -3.091381 -3.106979 -4.264446 0
M  V30 50 H -4.523028 -2.075971 -4.382314 0
M  V30 51 H -3.654646 -4.843495 -0.947600 0
M  V30 52 H -5.227928 -4.171373 -0.531321 0
M  V30 53 H -3.341409 -2.836122 0.422714 0
M  V30 54 H -4.572288 -1.932034 -0.571121 0
M  V30 END ATOM
M  V30 BEGIN BOND
M  V30 1 1 1 2
M  V30 2 2 2 3
M  V30 3 1 3 4
M  V30 4 2 4 5
M  V30 5 1 5 6
M  V30 6 2 6 7
M  V30 7 1 6 8
M  V30 8 1 8 9
M  V30 9 1 9 10
M  V30 10 1 10 11
M  V30 11 1 5 12
M  V30 12 2 12 13
M  V30 13 1 13 14
M  V30 14 2 14 15
M  V30 15 1 15 16
M  V30 16 2 16 17
M  V30 17 1 17 18
M  V30 18 2 18 19
M  V30 19 1 18 20
M  V30 20 1 20 21
M  V30 21 2 21 22
M  V30 22 1 21 23
M  V30 23 1 23 24
M  V30 24 1 24 25
M  V30 25 1 25 26
M  V30 26 2 26 27
M  V30 27 2 26 28
M  V30 28 1 26 29
M  V30 29 1 29 30
M  V30 30 1 13 2
M  V30 31 1 19 14
M  V30 32 1 30 23
M  V30 33 1 11 9
M  V30 34 1 23 17
M  V30 35 1 1 31
M  V30 36 1 1 32
M  V30 37 1 1 33
M  V30 38 1 3 34
M  V30 39 1 4 35
M  V30 40 1 8 36
M  V30 41 1 9 37
M  V30 42 1 10 38
M  V30 43 1 10 39
M  V30 44 1 11 40
M  V30 45 1 11 41
M  V30 46 1 12 42
M  V30 47 1 15 43
M  V30 48 1 16 44
M  V30 49 1 19 45
M  V30 50 1 20 46
M  V30 51 1 24 47
M  V30 52 1 24 48
M  V30 53 1 25 49
M  V30 54 1 25 50
M  V30 55 1 29 51
M  V30 56 1 29 52
M  V30 57 1 30 53
M  V30 58 1 30 54
M  V30 END BOND
M  V30 END CTAB
M  END
>  <Dataset>  (922) 
ChEMBL_Kinases

>  <Ligand_Instance>  (922) 
nan

>  <PDB_ID>  (922) 
nan

>  <Standardized_SMILES>  (922) 
Cc1ccc(C(=O)NC2CC2)cc1-c1ccc2c(c1)NC(=O)C21CCS(=O)(=O)CC1

>  <Name>  (922) 
nan

>  <Pocket>  (922) 
nan

>  <ATP_Site>  (922) 
nan

>  <Peripheral>  (922) 
nan

>  <Num_H_Atoms_ProtBoundConf>  (922) 
nan

>  <Num_Resolved_Atoms>  (922) 
nan

>  <Num_Not_Resolved_Atoms>  (922) 
nan

$$$$
CHEMBL1825149
     RDKit          3D

  0  0  0  0  0  0  0  0  0  0999 V3000
M  V30 BEGIN CTAB
M  V30 COUNTS 52 56 0 0 0
M  V30 BEGIN ATOM
M  V30 1 C -1.798180 2.118810 -0.584624 0
M  V30 2 C -0.338896 1.960379 -0.462186 0
M  V30 3 C 0.493383 2.992540 -0.811632 0
M  V30 4 C 1.862058 2.856155 -0.701320 0
M  V30 5 C 2.427795 1.682907 -0.238547 0
M  V30 6 C 3.855792 1.429115 -0.082101 0
M  V30 7 O 4.321411 0.332963 0.347670 0
M  V30 8 N 4.817553 2.418921 -0.410602 0
M  V30 9 C 6.260415 2.298639 -0.303506 0
M  V30 10 C 7.142045 2.912561 -1.319635 0
M  V30 11 C 7.101768 3.432455 0.134507 0
M  V30 12 C 1.534531 0.686223 0.095005 0
M  V30 13 C 0.156582 0.763677 0.006305 0
M  V30 14 C -0.664648 -0.377935 0.396742 0
M  V30 15 C -0.331932 -1.020947 1.594684 0
M  V30 16 C -1.054004 -2.108978 2.040800 0
M  V30 17 C -2.127033 -2.607164 1.331688 0
M  V30 18 C -2.453505 -1.972079 0.151104 0
M  V30 19 C -1.739377 -0.883561 -0.305353 0
M  V30 20 N -3.588891 -2.626914 -0.442655 0
M  V30 21 C -3.953247 -3.696756 0.421151 0
M  V30 22 O -4.937413 -4.441938 0.124428 0
M  V30 23 C -3.036166 -3.728248 1.587844 0
M  V30 24 C -3.777132 -3.418181 2.878689 0
M  V30 25 C -4.973289 -4.284340 3.099031 0
M  V30 26 S -4.765845 -5.969137 2.521706 0
M  V30 27 C -3.284984 -6.199606 1.533908 0
M  V30 28 C -2.343569 -5.047473 1.761954 0
M  V30 29 H -2.009809 3.196011 -0.323747 0
M  V30 30 H -2.358363 1.537088 0.162060 0
M  V30 31 H -2.179415 1.970330 -1.612403 0
M  V30 32 H 0.116067 3.942607 -1.182887 0
M  V30 33 H 2.544247 3.652322 -0.969129 0
M  V30 34 H 4.552712 3.356814 -0.772544 0
M  V30 35 H 6.596548 1.308558 0.080025 0
M  V30 36 H 6.779811 3.627274 -2.078122 0
M  V30 37 H 8.090967 2.417852 -1.621001 0
M  V30 38 H 6.627649 4.417006 0.296961 0
M  V30 39 H 8.022559 3.239171 0.729130 0
M  V30 40 H 1.941385 -0.256613 0.464833 0
M  V30 41 H 0.506472 -0.683914 2.212835 0
M  V30 42 H -0.781508 -2.605410 2.984970 0
M  V30 43 H -1.991324 -0.389528 -1.221292 0
M  V30 44 H -4.043689 -2.336854 -1.357893 0
M  V30 45 H -4.075178 -2.349821 2.804111 0
M  V30 46 H -3.054716 -3.546205 3.697056 0
M  V30 47 H -5.132001 -4.333449 4.209781 0
M  V30 48 H -5.885778 -3.838425 2.656587 0
M  V30 49 H -3.489042 -6.386282 0.451790 0
M  V30 50 H -2.765311 -7.106720 1.950754 0
M  V30 51 H -2.052776 -5.117341 2.850855 0
M  V30 52 H -1.400392 -5.113103 1.205908 0
M  V30 END ATOM
M  V30 BEGIN BOND
M  V30 1 1 1 2
M  V30 2 2 2 3
M  V30 3 1 3 4
M  V30 4 2 4 5
M  V30 5 1 5 6
M  V30 6 2 6 7
M  V30 7 1 6 8
M  V30 8 1 8 9
M  V30 9 1 9 10
M  V30 10 1 10 11
M  V30 11 1 5 12
M  V30 12 2 12 13
M  V30 13 1 13 14
M  V30 14 2 14 15
M  V30 15 1 15 16
M  V30 16 2 16 17
M  V30 17 1 17 18
M  V30 18 2 18 19
M  V30 19 1 18 20
M  V30 20 1 20 21
M  V30 21 2 21 22
M  V30 22 1 21 23
M  V30 23 1 23 24
M  V30 24 1 24 25
M  V30 25 1 25 26
M  V30 26 1 26 27
M  V30 27 1 27 28
M  V30 28 1 13 2
M  V30 29 1 19 14
M  V30 30 1 28 23
M  V30 31 1 11 9
M  V30 32 1 23 17
M  V30 33 1 1 29
M  V30 34 1 1 30
M  V30 35 1 1 31
M  V30 36 1 3 32
M  V30 37 1 4 33
M  V30 38 1 8 34
M  V30 39 1 9 35
M  V30 40 1 10 36
M  V30 41 1 10 37
M  V30 42 1 11 38
M  V30 43 1 11 39
M  V30 44 1 12 40
M  V30 45 1 15 41
M  V30 46 1 16 42
M  V30 47 1 19 43
M  V30 48 1 20 44
M  V30 49 1 24 45
M  V30 50 1 24 46
M  V30 51 1 25 47
M  V30 52 1 25 48
M  V30 53 1 27 49
M  V30 54 1 27 50
M  V30 55 1 28 51
M  V30 56 1 28 52
M  V30 END BOND
M  V30 END CTAB
M  END
>  <Dataset>  (923) 
ChEMBL_Kinases

>  <Ligand_Instance>  (923) 
nan

>  <PDB_ID>  (923) 
nan

>  <Standardized_SMILES>  (923) 
Cc1ccc(C(=O)NC2CC2)cc1-c1ccc2c(c1)NC(=O)C21CCSCC1

>  <Name>  (923) 
nan

>  <Pocket>  (923) 
nan

>  <ATP_Site>  (923) 
nan

>  <Peripheral>  (923) 
nan

>  <Num_H_Atoms_ProtBoundConf>  (923) 
nan

>  <Num_Resolved_Atoms>  (923) 
nan

>  <Num_Not_Resolved_Atoms>  (923) 
nan

$$$$
CHEMBL1825148
     RDKit          3D

  0  0  0  0  0  0  0  0  0  0999 V3000
M  V30 BEGIN CTAB
M  V30 COUNTS 51 55 0 0 0
M  V30 BEGIN ATOM
M  V30 1 C 0.447954 0.145524 4.670674 0
M  V30 2 C 1.240514 0.776147 3.612120 0
M  V30 3 C 2.244568 1.676416 3.902618 0
M  V30 4 C 2.990201 2.269582 2.905824 0
M  V30 5 C 2.771585 1.994538 1.571618 0
M  V30 6 C 3.603060 2.663053 0.573747 0
M  V30 7 O 4.468062 3.448560 0.982733 0
M  V30 8 N 3.429344 2.423806 -0.818241 0
M  V30 9 C 4.184660 3.022323 -1.865385 0
M  V30 10 C 3.988317 4.187516 -2.590256 0
M  V30 11 C 5.054253 4.247164 -3.475399 0
M  V30 12 O 5.808771 3.175985 -3.261422 0
M  V30 13 N 5.307586 2.452959 -2.320595 0
M  V30 14 C 1.765220 1.093182 1.296250 0
M  V30 15 C 1.014797 0.495133 2.282190 0
M  V30 16 C -0.021119 -0.441373 1.857733 0
M  V30 17 C 0.382302 -1.347512 0.871044 0
M  V30 18 C -0.438091 -2.315975 0.329243 0
M  V30 19 C -1.723992 -2.345822 0.829002 0
M  V30 20 C -2.177601 -1.477988 1.801522 0
M  V30 21 C -1.320618 -0.525379 2.313966 0
M  V30 22 N -3.538994 -1.771419 2.093204 0
M  V30 23 C -3.972062 -2.874328 1.270790 0
M  V30 24 O -5.074890 -3.433370 1.215666 0
M  V30 25 C -2.824173 -3.288996 0.424812 0
M  V30 26 C -3.214956 -3.047052 -1.016483 0
M  V30 27 C -4.189657 -4.088595 -1.450590 0
M  V30 28 O -4.004573 -5.338862 -0.892858 0
M  V30 29 C -2.673243 -5.505631 -0.591266 0
M  V30 30 C -2.391980 -4.699628 0.673672 0
M  V30 31 H 1.079636 0.000646 5.595627 0
M  V30 32 H 0.076297 -0.871716 4.440714 0
M  V30 33 H -0.341779 0.853718 5.004105 0
M  V30 34 H 2.431181 1.906092 4.959215 0
M  V30 35 H 3.763265 2.970726 3.258182 0
M  V30 36 H 2.706425 1.766321 -1.176602 0
M  V30 37 H 3.157361 4.840648 -2.428414 0
M  V30 38 H 5.110173 5.088652 -4.154726 0
M  V30 39 H 1.575458 0.861894 0.258026 0
M  V30 40 H 1.405481 -1.334386 0.463761 0
M  V30 41 H -0.080220 -2.993733 -0.431745 0
M  V30 42 H -1.581668 0.182035 3.062158 0
M  V30 43 H -4.143198 -1.275685 2.790116 0
M  V30 44 H -2.334281 -3.000082 -1.680849 0
M  V30 45 H -3.736056 -2.067764 -1.050676 0
M  V30 46 H -5.253740 -3.820546 -1.316687 0
M  V30 47 H -4.075072 -4.221805 -2.565156 0
M  V30 48 H -2.050015 -5.156324 -1.433749 0
M  V30 49 H -2.395246 -6.552641 -0.368651 0
M  V30 50 H -1.280779 -4.710970 0.788700 0
M  V30 51 H -2.920761 -5.161744 1.515379 0
M  V30 END ATOM
M  V30 BEGIN BOND
M  V30 1 1 1 2
M  V30 2 2 2 3
M  V30 3 1 3 4
M  V30 4 2 4 5
M  V30 5 1 5 6
M  V30 6 2 6 7
M  V30 7 1 6 8
M  V30 8 1 8 9
M  V30 9 1 9 10
M  V30 10 2 10 11
M  V30 11 1 11 12
M  V30 12 1 12 13
M  V30 13 1 5 14
M  V30 14 2 14 15
M  V30 15 1 15 16
M  V30 16 2 16 17
M  V30 17 1 17 18
M  V30 18 2 18 19
M  V30 19 1 19 20
M  V30 20 2 20 21
M  V30 21 1 20 22
M  V30 22 1 22 23
M  V30 23 2 23 24
M  V30 24 1 23 25
M  V30 25 1 25 26
M  V30 26 1 26 27
M  V30 27 1 27 28
M  V30 28 1 28 29
M  V30 29 1 29 30
M  V30 30 1 15 2
M  V30 31 1 21 16
M  V30 32 1 30 25
M  V30 33 2 13 9
M  V30 34 1 25 19
M  V30 35 1 1 31
M  V30 36 1 1 32
M  V30 37 1 1 33
M  V30 38 1 3 34
M  V30 39 1 4 35
M  V30 40 1 8 36
M  V30 41 1 10 37
M  V30 42 1 11 38
M  V30 43 1 14 39
M  V30 44 1 17 40
M  V30 45 1 18 41
M  V30 46 1 21 42
M  V30 47 1 22 43
M  V30 48 1 26 44
M  V30 49 1 26 45
M  V30 50 1 27 46
M  V30 51 1 27 47
M  V30 52 1 29 48
M  V30 53 1 29 49
M  V30 54 1 30 50
M  V30 55 1 30 51
M  V30 END BOND
M  V30 END CTAB
M  END
>  <Dataset>  (924) 
ChEMBL_Kinases

>  <Ligand_Instance>  (924) 
nan

>  <PDB_ID>  (924) 
nan

>  <Standardized_SMILES>  (924) 
Cc1ccc(C(=O)Nc2ccon2)cc1-c1ccc2c(c1)NC(=O)C21CCOCC1

>  <Name>  (924) 
nan

>  <Pocket>  (924) 
nan

>  <ATP_Site>  (924) 
nan

>  <Peripheral>  (924) 
nan

>  <Num_H_Atoms_ProtBoundConf>  (924) 
nan

>  <Num_Resolved_Atoms>  (924) 
nan

>  <Num_Not_Resolved_Atoms>  (924) 
nan

$$$$
CHEMBL1825146
     RDKit          3D

  0  0  0  0  0  0  0  0  0  0999 V3000
M  V30 BEGIN CTAB
M  V30 COUNTS 59 63 0 0 0
M  V30 BEGIN ATOM
M  V30 1 C 1.799963 -1.500451 4.765337 0
M  V30 2 C 2.086212 -0.138899 4.239716 0
M  V30 3 C 2.888286 0.710852 5.011201 0
M  V30 4 F 3.403822 0.335333 6.205725 0
M  V30 5 C 3.121460 1.964232 4.473010 0
M  V30 6 C 2.632807 2.420475 3.264985 0
M  V30 7 C 2.968413 3.775471 2.829202 0
M  V30 8 O 3.688588 4.446999 3.588070 0
M  V30 9 N 2.490534 4.292354 1.596129 0
M  V30 10 C 2.803131 5.621290 1.138591 0
M  V30 11 C 2.712349 5.998275 -0.287337 0
M  V30 12 C 1.590945 6.395298 0.637881 0
M  V30 13 C 1.850607 1.529963 2.559457 0
M  V30 14 C 1.568730 0.261703 3.023015 0
M  V30 15 C 0.730374 -0.609701 2.204867 0
M  V30 16 C -0.320807 -1.399779 2.600795 0
M  V30 17 C -1.009339 -2.167927 1.685166 0
M  V30 18 C -0.649375 -2.151145 0.359425 0
M  V30 19 C 0.413952 -1.362212 -0.089488 0
M  V30 20 C 1.080434 -0.605209 0.860224 0
M  V30 21 N 0.510699 -1.580271 -1.493263 0
M  V30 22 C -0.500520 -2.508422 -1.902629 0
M  V30 23 O -0.591617 -2.841039 -3.114994 0
M  V30 24 C -1.295371 -2.920302 -0.724911 0
M  V30 25 C -2.755972 -2.621826 -0.863915 0
M  V30 26 C -3.370075 -3.429099 -1.940544 0
M  V30 27 N -2.715180 -4.615983 -2.305014 0
M  V30 28 S -3.539881 -5.631804 -3.372631 0
M  V30 29 C -3.865377 -4.864958 -4.944415 0
M  V30 30 O -2.660560 -6.830259 -3.670134 0
M  V30 31 O -4.816537 -6.191235 -2.814004 0
M  V30 32 C -1.896378 -5.274156 -1.344290 0
M  V30 33 C -1.148037 -4.385586 -0.426704 0
M  V30 34 H 0.964938 -1.505648 5.517582 0
M  V30 35 H 2.674252 -1.886570 5.368139 0
M  V30 36 H 1.660305 -2.258244 3.981910 0
M  V30 37 H 3.754182 2.605482 5.103824 0
M  V30 38 H 1.885048 3.733077 0.954769 0
M  V30 39 H 3.442938 6.202926 1.828045 0
M  V30 40 H 3.384941 6.752333 -0.700508 0
M  V30 41 H 2.438742 5.168814 -0.981420 0
M  V30 42 H 0.617536 5.878420 0.559306 0
M  V30 43 H 1.524123 7.484126 0.783088 0
M  V30 44 H 1.453549 1.854831 1.612779 0
M  V30 45 H -0.538044 -1.355342 3.654209 0
M  V30 46 H -1.812311 -2.748077 2.098393 0
M  V30 47 H 1.901591 -0.009912 0.448241 0
M  V30 48 H 1.240095 -1.101998 -2.096380 0
M  V30 49 H -2.899735 -1.529093 -1.078953 0
M  V30 50 H -3.237680 -2.825978 0.106865 0
M  V30 51 H -3.461710 -2.790569 -2.861607 0
M  V30 52 H -4.422369 -3.675639 -1.631096 0
M  V30 53 H -4.795301 -4.232985 -4.884920 0
M  V30 54 H -4.066283 -5.610924 -5.733663 0
M  V30 55 H -3.006739 -4.252272 -5.276295 0
M  V30 56 H -1.121623 -5.846300 -1.936297 0
M  V30 57 H -2.489878 -6.050758 -0.818400 0
M  V30 58 H -1.565143 -4.526344 0.610360 0
M  V30 59 H -0.062840 -4.610273 -0.366948 0
M  V30 END ATOM
M  V30 BEGIN BOND
M  V30 1 1 1 2
M  V30 2 2 2 3
M  V30 3 1 3 4
M  V30 4 1 3 5
M  V30 5 2 5 6
M  V30 6 1 6 7
M  V30 7 2 7 8
M  V30 8 1 7 9
M  V30 9 1 9 10
M  V30 10 1 10 11
M  V30 11 1 11 12
M  V30 12 1 6 13
M  V30 13 2 13 14
M  V30 14 1 14 15
M  V30 15 2 15 16
M  V30 16 1 16 17
M  V30 17 2 17 18
M  V30 18 1 18 19
M  V30 19 2 19 20
M  V30 20 1 19 21
M  V30 21 1 21 22
M  V30 22 2 22 23
M  V30 23 1 22 24
M  V30 24 1 24 25
M  V30 25 1 25 26
M  V30 26 1 26 27
M  V30 27 1 27 28
M  V30 28 1 28 29
M  V30 29 2 28 30
M  V30 30 2 28 31
M  V30 31 1 27 32
M  V30 32 1 32 33
M  V30 33 1 14 2
M  V30 34 1 20 15
M  V30 35 1 33 24
M  V30 36 1 12 10
M  V30 37 1 24 18
M  V30 38 1 1 34
M  V30 39 1 1 35
M  V30 40 1 1 36
M  V30 41 1 5 37
M  V30 42 1 9 38
M  V30 43 1 10 39
M  V30 44 1 11 40
M  V30 45 1 11 41
M  V30 46 1 12 42
M  V30 47 1 12 43
M  V30 48 1 13 44
M  V30 49 1 16 45
M  V30 50 1 17 46
M  V30 51 1 20 47
M  V30 52 1 21 48
M  V30 53 1 25 49
M  V30 54 1 25 50
M  V30 55 1 26 51
M  V30 56 1 26 52
M  V30 57 1 29 53
M  V30 58 1 29 54
M  V30 59 1 29 55
M  V30 60 1 32 56
M  V30 61 1 32 57
M  V30 62 1 33 58
M  V30 63 1 33 59
M  V30 END BOND
M  V30 END CTAB
M  END
>  <Dataset>  (925) 
ChEMBL_Kinases

>  <Ligand_Instance>  (925) 
nan

>  <PDB_ID>  (925) 
nan

>  <Standardized_SMILES>  (925) 
Cc1c(F)cc(C(=O)NC2CC2)cc1-c1ccc2c(c1)NC(=O)C21CCN(S(C)(=O)=O)CC1

>  <Name>  (925) 
nan

>  <Pocket>  (925) 
nan

>  <ATP_Site>  (925) 
nan

>  <Peripheral>  (925) 
nan

>  <Num_H_Atoms_ProtBoundConf>  (925) 
nan

>  <Num_Resolved_Atoms>  (925) 
nan

>  <Num_Not_Resolved_Atoms>  (925) 
nan

$$$$
CHEMBL1825145
     RDKit          3D

  0  0  0  0  0  0  0  0  0  0999 V3000
M  V30 BEGIN CTAB
M  V30 COUNTS 56 60 0 0 0
M  V30 BEGIN ATOM
M  V30 1 C 2.448433 -3.164527 2.633226 0
M  V30 2 C 2.657934 -1.683077 2.725547 0
M  V30 3 C 3.739526 -1.302850 3.505515 0
M  V30 4 C 3.981786 0.073249 3.626125 0
M  V30 5 C 3.198254 1.043971 3.008877 0
M  V30 6 C 3.547316 2.448232 3.206943 0
M  V30 7 O 4.543976 2.671879 3.931492 0
M  V30 8 N 2.819212 3.494653 2.626809 0
M  V30 9 C 3.202976 4.877806 2.851323 0
M  V30 10 C 2.031273 5.870894 2.845553 0
M  V30 11 C 2.958382 5.864236 1.684472 0
M  V30 12 C 2.133280 0.606405 2.243540 0
M  V30 13 C 1.857011 -0.749416 2.097065 0
M  V30 14 C 0.755730 -1.201729 1.305927 0
M  V30 15 C -0.141036 -2.162685 1.648088 0
M  V30 16 C -1.209030 -2.594887 0.869864 0
M  V30 17 C -1.390708 -1.998644 -0.377510 0
M  V30 18 C -0.507617 -1.011031 -0.783219 0
M  V30 19 C 0.544195 -0.622799 0.045501 0
M  V30 20 N -0.895829 -0.555720 -2.085655 0
M  V30 21 C -2.059239 -1.310407 -2.460864 0
M  V30 22 O -2.583510 -1.075927 -3.586580 0
M  V30 23 C -2.428173 -2.267325 -1.385078 0
M  V30 24 C -3.832600 -2.145806 -0.902994 0
M  V30 25 C -4.665250 -3.179170 -1.658100 0
M  V30 26 N -4.267216 -3.252730 -3.059775 0
M  V30 27 C -5.253705 -4.032887 -3.755986 0
M  V30 28 C -2.974596 -3.873120 -3.220436 0
M  V30 29 C -2.175517 -3.652287 -1.950475 0
M  V30 30 H 1.959900 -3.582407 3.538630 0
M  V30 31 H 3.450016 -3.693204 2.639042 0
M  V30 32 H 2.011332 -3.488127 1.677946 0
M  V30 33 H 4.373303 -2.016954 4.001809 0
M  V30 34 H 4.849595 0.327048 4.254073 0
M  V30 35 H 1.987380 3.315711 2.021757 0
M  V30 36 H 4.067789 5.106144 3.478667 0
M  V30 37 H 2.070966 6.742483 3.529852 0
M  V30 38 H 1.015883 5.481895 2.653245 0
M  V30 39 H 2.617090 5.417973 0.729531 0
M  V30 40 H 3.620294 6.727635 1.581845 0
M  V30 41 H 1.513887 1.349288 1.756620 0
M  V30 42 H -0.039531 -2.647167 2.597229 0
M  V30 43 H -1.881037 -3.367845 1.214226 0
M  V30 44 H 1.232959 0.157878 -0.288217 0
M  V30 45 H -0.378365 0.190628 -2.602441 0
M  V30 46 H -3.846429 -2.461640 0.156856 0
M  V30 47 H -4.233908 -1.139704 -1.004522 0
M  V30 48 H -5.734372 -2.929314 -1.635306 0
M  V30 49 H -4.481580 -4.194663 -1.246050 0
M  V30 50 H -4.851730 -4.493220 -4.659941 0
M  V30 51 H -6.135027 -3.368712 -3.977837 0
M  V30 52 H -5.645741 -4.836178 -3.100944 0
M  V30 53 H -2.466342 -3.385898 -4.072951 0
M  V30 54 H -3.039119 -4.975901 -3.383425 0
M  V30 55 H -1.089776 -3.712488 -2.173571 0
M  V30 56 H -2.359191 -4.443427 -1.192472 0
M  V30 END ATOM
M  V30 BEGIN BOND
M  V30 1 1 1 2
M  V30 2 2 2 3
M  V30 3 1 3 4
M  V30 4 2 4 5
M  V30 5 1 5 6
M  V30 6 2 6 7
M  V30 7 1 6 8
M  V30 8 1 8 9
M  V30 9 1 9 10
M  V30 10 1 10 11
M  V30 11 1 5 12
M  V30 12 2 12 13
M  V30 13 1 13 14
M  V30 14 2 14 15
M  V30 15 1 15 16
M  V30 16 2 16 17
M  V30 17 1 17 18
M  V30 18 2 18 19
M  V30 19 1 18 20
M  V30 20 1 20 21
M  V30 21 2 21 22
M  V30 22 1 21 23
M  V30 23 1 23 24
M  V30 24 1 24 25
M  V30 25 1 25 26
M  V30 26 1 26 27
M  V30 27 1 26 28
M  V30 28 1 28 29
M  V30 29 1 13 2
M  V30 30 1 19 14
M  V30 31 1 29 23
M  V30 32 1 11 9
M  V30 33 1 23 17
M  V30 34 1 1 30
M  V30 35 1 1 31
M  V30 36 1 1 32
M  V30 37 1 3 33
M  V30 38 1 4 34
M  V30 39 1 8 35
M  V30 40 1 9 36
M  V30 41 1 10 37
M  V30 42 1 10 38
M  V30 43 1 11 39
M  V30 44 1 11 40
M  V30 45 1 12 41
M  V30 46 1 15 42
M  V30 47 1 16 43
M  V30 48 1 19 44
M  V30 49 1 20 45
M  V30 50 1 24 46
M  V30 51 1 24 47
M  V30 52 1 25 48
M  V30 53 1 25 49
M  V30 54 1 27 50
M  V30 55 1 27 51
M  V30 56 1 27 52
M  V30 57 1 28 53
M  V30 58 1 28 54
M  V30 59 1 29 55
M  V30 60 1 29 56
M  V30 END BOND
M  V30 END CTAB
M  END
>  <Dataset>  (926) 
ChEMBL_Kinases

>  <Ligand_Instance>  (926) 
nan

>  <PDB_ID>  (926) 
nan

>  <Standardized_SMILES>  (926) 
Cc1ccc(C(=O)NC2CC2)cc1-c1ccc2c(c1)NC(=O)C21CCN(C)CC1

>  <Name>  (926) 
nan

>  <Pocket>  (926) 
nan

>  <ATP_Site>  (926) 
nan

>  <Peripheral>  (926) 
nan

>  <Num_H_Atoms_ProtBoundConf>  (926) 
nan

>  <Num_Resolved_Atoms>  (926) 
nan

>  <Num_Not_Resolved_Atoms>  (926) 
nan

$$$$
CHEMBL1825144
     RDKit          3D

  0  0  0  0  0  0  0  0  0  0999 V3000
M  V30 BEGIN CTAB
M  V30 COUNTS 55 58 0 0 0
M  V30 BEGIN ATOM
M  V30 1 C -1.285093 2.785077 1.247395 0
M  V30 2 C 0.025330 2.391722 0.711414 0
M  V30 3 C 0.987073 3.349682 0.474233 0
M  V30 4 C 2.209864 2.976152 -0.020309 0
M  V30 5 C 2.530685 1.664533 -0.297217 0
M  V30 6 C 3.800853 1.177784 -0.822775 0
M  V30 7 O 4.012677 -0.055703 -1.050213 0
M  V30 8 N 4.859422 2.086058 -1.101392 0
M  V30 9 C 6.122390 1.593937 -1.624962 0
M  V30 10 C 6.886478 2.405697 -2.625505 0
M  V30 11 C 7.396374 2.262753 -1.241676 0
M  V30 12 C 1.524891 0.731213 -0.040983 0
M  V30 13 C 0.262915 1.065950 0.463137 0
M  V30 14 C -0.672441 -0.028444 0.667312 0
M  V30 15 C -0.263177 -1.183609 1.318700 0
M  V30 16 C -1.177261 -2.207072 1.492303 0
M  V30 17 C -2.499422 -2.228167 1.084100 0
M  V30 18 C -2.812805 -1.038216 0.446636 0
M  V30 19 C -1.973035 0.033852 0.227621 0
M  V30 20 N -4.164358 -1.032347 0.003408 0
M  V30 21 C -4.654444 -2.296721 0.411573 0
M  V30 22 O -5.807498 -2.803929 0.250544 0
M  V30 23 C -3.600388 -3.171114 1.167049 0
M  V30 24 C -3.552321 -4.378930 0.303573 0
M  V30 25 C -2.430519 -5.325754 0.428828 0
M  V30 26 O -1.173406 -4.838565 0.157065 0
M  V30 27 C -4.229527 -3.397393 2.495489 0
M  V30 28 C -3.409458 -3.897703 3.613057 0
M  V30 29 O -2.370622 -3.105484 4.021449 0
M  V30 30 H -1.146781 3.627724 1.984671 0
M  V30 31 H -1.947521 3.202716 0.447496 0
M  V30 32 H -1.797857 1.999932 1.824573 0
M  V30 33 H 0.776304 4.390776 0.677904 0
M  V30 34 H 2.978718 3.708877 -0.213933 0
M  V30 35 H 4.784836 3.113573 -0.949341 0
M  V30 36 H 6.163859 0.487321 -1.774513 0
M  V30 37 H 6.553605 3.423620 -2.906292 0
M  V30 38 H 7.405796 1.900190 -3.472047 0
M  V30 39 H 7.389036 3.135759 -0.561107 0
M  V30 40 H 8.292651 1.604747 -1.099965 0
M  V30 41 H 1.749011 -0.325194 -0.251405 0
M  V30 42 H 0.766934 -1.195605 1.649737 0
M  V30 43 H -0.683292 -3.025148 2.014127 0
M  V30 44 H -2.239343 0.943283 -0.271418 0
M  V30 45 H -4.812818 -0.394935 -0.494273 0
M  V30 46 H -4.526556 -4.927238 0.476083 0
M  V30 47 H -3.637678 -4.089277 -0.791063 0
M  V30 48 H -2.582861 -6.160043 -0.329231 0
M  V30 49 H -2.434160 -5.907702 1.398277 0
M  V30 50 H -0.975912 -4.775351 -0.811758 0
M  V30 51 H -4.800562 -2.478314 2.779449 0
M  V30 52 H -5.043432 -4.163569 2.324295 0
M  V30 53 H -3.118050 -4.962329 3.459702 0
M  V30 54 H -4.107334 -3.960114 4.509652 0
M  V30 55 H -1.604684 -3.649895 4.327776 0
M  V30 END ATOM
M  V30 BEGIN BOND
M  V30 1 1 1 2
M  V30 2 2 2 3
M  V30 3 1 3 4
M  V30 4 2 4 5
M  V30 5 1 5 6
M  V30 6 2 6 7
M  V30 7 1 6 8
M  V30 8 1 8 9
M  V30 9 1 9 10
M  V30 10 1 10 11
M  V30 11 1 5 12
M  V30 12 2 12 13
M  V30 13 1 13 14
M  V30 14 2 14 15
M  V30 15 1 15 16
M  V30 16 2 16 17
M  V30 17 1 17 18
M  V30 18 2 18 19
M  V30 19 1 18 20
M  V30 20 1 20 21
M  V30 21 2 21 22
M  V30 22 1 21 23
M  V30 23 1 23 24
M  V30 24 1 24 25
M  V30 25 1 25 26
M  V30 26 1 23 27
M  V30 27 1 27 28
M  V30 28 1 28 29
M  V30 29 1 13 2
M  V30 30 1 19 14
M  V30 31 1 11 9
M  V30 32 1 23 17
M  V30 33 1 1 30
M  V30 34 1 1 31
M  V30 35 1 1 32
M  V30 36 1 3 33
M  V30 37 1 4 34
M  V30 38 1 8 35
M  V30 39 1 9 36
M  V30 40 1 10 37
M  V30 41 1 10 38
M  V30 42 1 11 39
M  V30 43 1 11 40
M  V30 44 1 12 41
M  V30 45 1 15 42
M  V30 46 1 16 43
M  V30 47 1 19 44
M  V30 48 1 20 45
M  V30 49 1 24 46
M  V30 50 1 24 47
M  V30 51 1 25 48
M  V30 52 1 25 49
M  V30 53 1 26 50
M  V30 54 1 27 51
M  V30 55 1 27 52
M  V30 56 1 28 53
M  V30 57 1 28 54
M  V30 58 1 29 55
M  V30 END BOND
M  V30 END CTAB
M  END
>  <Dataset>  (927) 
ChEMBL_Kinases

>  <Ligand_Instance>  (927) 
nan

>  <PDB_ID>  (927) 
nan

>  <Standardized_SMILES>  (927) 
Cc1ccc(C(=O)NC2CC2)cc1-c1ccc2c(c1)NC(=O)C2(CCO)CCO

>  <Name>  (927) 
nan

>  <Pocket>  (927) 
nan

>  <ATP_Site>  (927) 
nan

>  <Peripheral>  (927) 
nan

>  <Num_H_Atoms_ProtBoundConf>  (927) 
nan

>  <Num_Resolved_Atoms>  (927) 
nan

>  <Num_Not_Resolved_Atoms>  (927) 
nan

$$$$
CHEMBL1825143
     RDKit          3D

  0  0  0  0  0  0  0  0  0  0999 V3000
M  V30 BEGIN CTAB
M  V30 COUNTS 54 58 0 0 0
M  V30 BEGIN ATOM
M  V30 1 C -0.923183 -0.147220 4.538802 0
M  V30 2 C 0.285443 0.459399 3.922514 0
M  V30 3 C 1.135082 1.251599 4.688156 0
M  V30 4 C 2.258443 1.797859 4.057620 0
M  V30 5 C 2.580424 1.604598 2.730095 0
M  V30 6 C 3.779757 2.227476 2.187002 0
M  V30 7 O 4.450559 2.916005 2.998218 0
M  V30 8 N 4.150462 2.056892 0.828876 0
M  V30 9 C 5.331095 2.668434 0.288911 0
M  V30 10 C 6.230278 1.854485 -0.625392 0
M  V30 11 C 5.491635 3.038912 -1.121888 0
M  V30 12 C 1.702743 0.811037 2.020423 0
M  V30 13 C 0.580873 0.247819 2.592172 0
M  V30 14 C -0.268139 -0.571211 1.737437 0
M  V30 15 C -0.820532 -1.801372 2.033408 0
M  V30 16 C -1.610039 -2.456778 1.109099 0
M  V30 17 C -1.879984 -1.917041 -0.140135 0
M  V30 18 C -1.334480 -0.675334 -0.465252 0
M  V30 19 C -0.545949 -0.041470 0.483242 0
M  V30 20 N -1.734971 -0.312080 -1.783878 0
M  V30 21 C -2.550831 -1.356692 -2.290098 0
M  V30 22 O -3.110557 -1.431109 -3.421628 0
M  V30 23 C -2.692844 -2.437741 -1.280207 0
M  V30 24 C -4.109222 -2.588280 -0.815543 0
M  V30 25 C -4.952565 -3.460830 -1.684381 0
M  V30 26 C -4.320068 -4.750462 -2.099690 0
M  V30 27 C -2.913461 -4.926751 -1.576375 0
M  V30 28 C -2.107209 -3.680352 -1.882496 0
M  V30 29 H -1.268877 0.617460 5.293806 0
M  V30 30 H -0.683195 -1.045989 5.141552 0
M  V30 31 H -1.769935 -0.266024 3.853712 0
M  V30 32 H 0.934383 1.438789 5.734340 0
M  V30 33 H 2.882967 2.412257 4.725608 0
M  V30 34 H 3.586677 1.483742 0.165203 0
M  V30 35 H 5.920153 3.280104 1.023779 0
M  V30 36 H 5.891985 0.812904 -0.828508 0
M  V30 37 H 7.326734 1.902396 -0.501653 0
M  V30 38 H 6.098692 3.926181 -1.395511 0
M  V30 39 H 4.679909 2.870909 -1.872269 0
M  V30 40 H 1.920035 0.635925 0.978012 0
M  V30 41 H -0.577604 -2.174537 3.019992 0
M  V30 42 H -2.006256 -3.422623 1.423359 0
M  V30 43 H -0.143180 0.929091 0.177538 0
M  V30 44 H -1.482758 0.556697 -2.294199 0
M  V30 45 H -4.561987 -1.562264 -0.852187 0
M  V30 46 H -4.099403 -2.902817 0.245646 0
M  V30 47 H -5.869959 -3.728462 -1.084328 0
M  V30 48 H -5.347619 -2.879095 -2.562062 0
M  V30 49 H -4.321698 -4.803471 -3.211231 0
M  V30 50 H -4.891905 -5.645582 -1.760784 0
M  V30 51 H -2.966347 -5.130897 -0.502855 0
M  V30 52 H -2.443162 -5.751895 -2.153866 0
M  V30 53 H -1.104051 -3.838094 -1.418399 0
M  V30 54 H -1.915401 -3.617949 -2.965011 0
M  V30 END ATOM
M  V30 BEGIN BOND
M  V30 1 1 1 2
M  V30 2 2 2 3
M  V30 3 1 3 4
M  V30 4 2 4 5
M  V30 5 1 5 6
M  V30 6 2 6 7
M  V30 7 1 6 8
M  V30 8 1 8 9
M  V30 9 1 9 10
M  V30 10 1 10 11
M  V30 11 1 5 12
M  V30 12 2 12 13
M  V30 13 1 13 14
M  V30 14 2 14 15
M  V30 15 1 15 16
M  V30 16 2 16 17
M  V30 17 1 17 18
M  V30 18 2 18 19
M  V30 19 1 18 20
M  V30 20 1 20 21
M  V30 21 2 21 22
M  V30 22 1 21 23
M  V30 23 1 23 24
M  V30 24 1 24 25
M  V30 25 1 25 26
M  V30 26 1 26 27
M  V30 27 1 27 28
M  V30 28 1 13 2
M  V30 29 1 19 14
M  V30 30 1 28 23
M  V30 31 1 11 9
M  V30 32 1 23 17
M  V30 33 1 1 29
M  V30 34 1 1 30
M  V30 35 1 1 31
M  V30 36 1 3 32
M  V30 37 1 4 33
M  V30 38 1 8 34
M  V30 39 1 9 35
M  V30 40 1 10 36
M  V30 41 1 10 37
M  V30 42 1 11 38
M  V30 43 1 11 39
M  V30 44 1 12 40
M  V30 45 1 15 41
M  V30 46 1 16 42
M  V30 47 1 19 43
M  V30 48 1 20 44
M  V30 49 1 24 45
M  V30 50 1 24 46
M  V30 51 1 25 47
M  V30 52 1 25 48
M  V30 53 1 26 49
M  V30 54 1 26 50
M  V30 55 1 27 51
M  V30 56 1 27 52
M  V30 57 1 28 53
M  V30 58 1 28 54
M  V30 END BOND
M  V30 END CTAB
M  END
>  <Dataset>  (928) 
ChEMBL_Kinases

>  <Ligand_Instance>  (928) 
nan

>  <PDB_ID>  (928) 
nan

>  <Standardized_SMILES>  (928) 
Cc1ccc(C(=O)NC2CC2)cc1-c1ccc2c(c1)NC(=O)C21CCCCC1

>  <Name>  (928) 
nan

>  <Pocket>  (928) 
nan

>  <ATP_Site>  (928) 
nan

>  <Peripheral>  (928) 
nan

>  <Num_H_Atoms_ProtBoundConf>  (928) 
nan

>  <Num_Resolved_Atoms>  (928) 
nan

>  <Num_Not_Resolved_Atoms>  (928) 
nan

$$$$
CHEMBL1825141
     RDKit          3D

  0  0  0  0  0  0  0  0  0  0999 V3000
M  V30 BEGIN CTAB
M  V30 COUNTS 52 55 0 0 0
M  V30 BEGIN ATOM
M  V30 1 C -3.902593 -2.272682 0.027367 0
M  V30 2 C -2.519530 -2.872668 0.109317 0 CFG=2
M  V30 3 O -1.888974 -2.774337 -1.126184 0
M  V30 4 C -0.763627 -2.063218 -1.451017 0
M  V30 5 C -0.014743 -1.286387 -0.590789 0
M  V30 6 C 1.099539 -0.615449 -1.030874 0
M  V30 7 C 1.856074 0.195764 -0.068069 0
M  V30 8 C 3.203213 0.513496 0.025746 0
M  V30 9 N 3.356343 1.293368 1.106307 0
M  V30 10 N 2.208450 1.507538 1.723942 0
M  V30 11 C 2.047937 2.313070 2.926070 0
M  V30 12 C 3.291867 3.131303 3.159637 0
M  V30 13 C 3.387746 4.321992 2.258168 0
M  V30 14 N 2.151466 5.067947 2.280365 0
M  V30 15 C 1.073665 4.267282 1.763682 0
M  V30 16 C 0.818072 3.151379 2.759981 0
M  V30 17 C 1.272797 0.844762 1.022829 0
M  V30 18 C 1.511353 -0.692057 -2.344783 0
M  V30 19 N 0.778711 -1.450249 -3.180058 0
M  V30 20 C -0.314329 -2.110442 -2.755690 0
M  V30 21 N -0.926704 -2.843004 -3.808992 0
M  V30 22 C -2.558223 -4.300467 0.517183 0
M  V30 23 C -2.478828 -4.605192 1.872489 0
M  V30 24 Cl -2.337143 -3.291179 3.022923 0
M  V30 25 C -2.504012 -5.890967 2.386194 0
M  V30 26 C -2.615293 -6.944095 1.497091 0
M  V30 27 C -2.696309 -6.677908 0.145176 0
M  V30 28 F -2.807087 -7.683657 -0.768469 0
M  V30 29 C -2.667823 -5.382268 -0.327014 0
M  V30 30 Cl -2.773316 -5.063155 -2.030824 0
M  V30 31 H -3.925686 -1.537453 -0.821214 0
M  V30 32 H -4.623354 -3.061678 -0.213590 0
M  V30 33 H -4.178377 -1.672769 0.924576 0
M  V30 34 H -1.987490 -2.265879 0.899365 0
M  V30 35 H -0.317615 -1.216620 0.423117 0
M  V30 36 H 3.904910 0.138357 -0.703195 0
M  V30 37 H 1.911705 1.642834 3.785803 0
M  V30 38 H 3.252701 3.519565 4.198415 0
M  V30 39 H 4.148808 2.458200 3.069251 0
M  V30 40 H 4.167635 5.002504 2.697788 0
M  V30 41 H 3.737527 4.072701 1.237620 0
M  V30 42 H 2.226686 5.922564 1.673497 0
M  V30 43 H 1.323044 3.843565 0.771491 0
M  V30 44 H 0.156831 4.870594 1.649570 0
M  V30 45 H 0.011427 2.520396 2.332724 0
M  V30 46 H 0.447233 3.594166 3.706694 0
M  V30 47 H 0.219624 0.805025 1.249587 0
M  V30 48 H 2.387716 -0.141080 -2.608713 0
M  V30 49 H -0.949519 -3.688720 -4.389262 0
M  V30 50 H -1.761652 -2.465806 -4.335624 0
M  V30 51 H -2.436896 -6.050345 3.464363 0
M  V30 52 H -2.639618 -7.975186 1.849719 0
M  V30 END ATOM
M  V30 BEGIN BOND
M  V30 1 1 1 2
M  V30 2 1 2 3
M  V30 3 1 3 4
M  V30 4 2 4 5
M  V30 5 1 5 6
M  V30 6 1 6 7
M  V30 7 1 7 8
M  V30 8 2 8 9
M  V30 9 1 9 10
M  V30 10 1 10 11
M  V30 11 1 11 12
M  V30 12 1 12 13
M  V30 13 1 13 14
M  V30 14 1 14 15
M  V30 15 1 15 16
M  V30 16 1 10 17
M  V30 17 2 6 18
M  V30 18 1 18 19
M  V30 19 2 19 20
M  V30 20 1 20 21
M  V30 21 1 2 22
M  V30 22 2 22 23
M  V30 23 1 23 24
M  V30 24 1 23 25
M  V30 25 2 25 26
M  V30 26 1 26 27
M  V30 27 1 27 28
M  V30 28 2 27 29
M  V30 29 1 29 30
M  V30 30 1 20 4
M  V30 31 1 29 22
M  V30 32 2 17 7
M  V30 33 1 16 11
M  V30 34 1 1 31
M  V30 35 1 1 32
M  V30 36 1 1 33
M  V30 37 1 2 34 CFG=1
M  V30 38 1 5 35
M  V30 39 1 8 36
M  V30 40 1 11 37
M  V30 41 1 12 38
M  V30 42 1 12 39
M  V30 43 1 13 40
M  V30 44 1 13 41
M  V30 45 1 14 42
M  V30 46 1 15 43
M  V30 47 1 15 44
M  V30 48 1 16 45
M  V30 49 1 16 46
M  V30 50 1 17 47
M  V30 51 1 18 48
M  V30 52 1 21 49
M  V30 53 1 21 50
M  V30 54 1 25 51
M  V30 55 1 26 52
M  V30 END BOND
M  V30 END CTAB
M  END
>  <Dataset>  (929) 
ChEMBL_Kinases

>  <Ligand_Instance>  (929) 
nan

>  <PDB_ID>  (929) 
nan

>  <Standardized_SMILES>  (929) 
C[C@H](Oc1cc(-c2cnn(C3CCNCC3)c2)cnc1N)c1c(Cl)ccc(F)c1Cl

>  <Name>  (929) 
nan

>  <Pocket>  (929) 
nan

>  <ATP_Site>  (929) 
nan

>  <Peripheral>  (929) 
nan

>  <Num_H_Atoms_ProtBoundConf>  (929) 
nan

>  <Num_Resolved_Atoms>  (929) 
nan

>  <Num_Not_Resolved_Atoms>  (929) 
nan

$$$$
CHEMBL1824444
     RDKit          3D

  0  0  0  0  0  0  0  0  0  0999 V3000
M  V30 BEGIN CTAB
M  V30 COUNTS 56 60 0 0 0
M  V30 BEGIN ATOM
M  V30 1 C 1.573210 -3.768723 4.128468 0
M  V30 2 C 2.228271 -3.632026 2.777308 0
M  V30 3 C 2.876411 -4.678312 2.118813 0
M  V30 4 C 3.438220 -4.467189 0.880104 0
M  V30 5 C 3.399086 -3.260293 0.235302 0
M  V30 6 C 2.754198 -2.243783 0.909331 0
M  V30 7 C 2.490840 -0.864955 0.521572 0
M  V30 8 N 2.784698 0.421345 0.736783 0
M  V30 9 N 2.094651 1.233244 -0.049894 0
M  V30 10 C 2.306625 2.685959 0.122486 0
M  V30 11 C 1.324456 3.192563 1.161120 0
M  V30 12 O 1.479995 3.986870 2.158809 0
M  V30 13 N -0.005686 2.739519 1.057256 0
M  V30 14 C -1.178300 2.998242 1.839851 0
M  V30 15 C -1.336298 3.835876 2.903959 0
M  V30 16 C -2.573257 3.938981 3.534733 0
M  V30 17 C -3.660614 3.212063 3.111117 0
M  V30 18 C -3.550428 2.347756 2.038070 0
M  V30 19 C -4.660662 1.537810 1.499136 0
M  V30 20 N -4.351968 0.615558 0.465175 0
M  V30 21 O -5.801394 1.715676 1.986230 0
M  V30 22 C -2.308590 2.296409 1.468312 0
M  V30 23 C 1.310893 0.480223 -0.824588 0
M  V30 24 C 1.542786 -0.863081 -0.477953 0
M  V30 25 C 0.677619 -1.776491 -1.265661 0
M  V30 26 C -0.162145 -2.403279 -0.376305 0
M  V30 27 C -1.120083 -3.305229 -0.887610 0
M  V30 28 C -1.132482 -3.483763 -2.242063 0
M  V30 29 N -2.051080 -4.326245 -2.756654 0
M  V30 30 C -2.113252 -4.518602 -4.090078 0
M  V30 31 C -1.248978 -3.867826 -4.959431 0
M  V30 32 N -0.334463 -3.027490 -4.409906 0
M  V30 33 C -0.263984 -2.827414 -3.084934 0
M  V30 34 C 0.694624 -1.931631 -2.621173 0
M  V30 35 N 2.205548 -2.466569 2.131460 0
M  V30 36 H 0.578626 -3.240602 4.035182 0
M  V30 37 H 1.409841 -4.796915 4.427202 0
M  V30 38 H 2.125494 -3.168444 4.897025 0
M  V30 39 H 2.904780 -5.626635 2.629486 0
M  V30 40 H 3.950846 -5.269501 0.351376 0
M  V30 41 H 3.786484 -2.965002 -0.709298 0
M  V30 42 H 2.101250 3.203544 -0.835420 0
M  V30 43 H 3.326904 2.925181 0.439835 0
M  V30 44 H -0.114211 2.111500 0.224791 0
M  V30 45 H -0.471098 4.402039 3.220083 0
M  V30 46 H -2.674247 4.620594 4.385922 0
M  V30 47 H -4.630691 3.290032 3.591546 0
M  V30 48 H -3.859747 -0.314085 0.491449 0
M  V30 49 H -4.617279 0.810270 -0.553960 0
M  V30 50 H -2.247115 1.595037 0.618863 0
M  V30 51 H 0.651140 0.950050 -1.574291 0
M  V30 52 H -0.234580 -2.324334 0.714928 0
M  V30 53 H -1.825806 -3.840441 -0.281754 0
M  V30 54 H -2.884085 -5.215528 -4.464057 0
M  V30 55 H -1.385625 -4.097024 -6.017523 0
M  V30 56 H 1.404160 -1.380795 -3.207686 0
M  V30 END ATOM
M  V30 BEGIN BOND
M  V30 1 1 1 2
M  V30 2 2 2 3
M  V30 3 1 3 4
M  V30 4 2 4 5
M  V30 5 1 5 6
M  V30 6 1 6 7
M  V30 7 2 7 8
M  V30 8 1 8 9
M  V30 9 1 9 10
M  V30 10 1 10 11
M  V30 11 2 11 12
M  V30 12 1 11 13
M  V30 13 1 13 14
M  V30 14 2 14 15
M  V30 15 1 15 16
M  V30 16 2 16 17
M  V30 17 1 17 18
M  V30 18 1 18 19
M  V30 19 1 19 20
M  V30 20 2 19 21
M  V30 21 2 18 22
M  V30 22 1 9 23
M  V30 23 2 23 24
M  V30 24 1 24 25
M  V30 25 2 25 26
M  V30 26 1 26 27
M  V30 27 2 27 28
M  V30 28 1 28 29
M  V30 29 2 29 30
M  V30 30 1 30 31
M  V30 31 2 31 32
M  V30 32 1 32 33
M  V30 33 2 33 34
M  V30 34 2 6 35
M  V30 35 1 35 2
M  V30 36 1 24 7
M  V30 37 1 34 25
M  V30 38 1 22 14
M  V30 39 1 33 28
M  V30 40 1 1 36
M  V30 41 1 1 37
M  V30 42 1 1 38
M  V30 43 1 3 39
M  V30 44 1 4 40
M  V30 45 1 5 41
M  V30 46 1 10 42
M  V30 47 1 10 43
M  V30 48 1 13 44
M  V30 49 1 15 45
M  V30 50 1 16 46
M  V30 51 1 17 47
M  V30 52 1 20 48
M  V30 53 1 20 49
M  V30 54 1 22 50
M  V30 55 1 23 51
M  V30 56 1 26 52
M  V30 57 1 27 53
M  V30 58 1 30 54
M  V30 59 1 31 55
M  V30 60 1 34 56
M  V30 END BOND
M  V30 END CTAB
M  END
>  <Dataset>  (930) 
ChEMBL_Kinases

>  <Ligand_Instance>  (930) 
nan

>  <PDB_ID>  (930) 
nan

>  <Standardized_SMILES>  (930) 
Cc1cccc(-c2nn(CC(=O)Nc3cccc(C(N)=O)c3)cc2-c2ccc3nccnc3c2)n1

>  <Name>  (930) 
nan

>  <Pocket>  (930) 
nan

>  <ATP_Site>  (930) 
nan

>  <Peripheral>  (930) 
nan

>  <Num_H_Atoms_ProtBoundConf>  (930) 
nan

>  <Num_Resolved_Atoms>  (930) 
nan

>  <Num_Not_Resolved_Atoms>  (930) 
nan

$$$$
CHEMBL1824442
     RDKit          3D

  0  0  0  0  0  0  0  0  0  0999 V3000
M  V30 BEGIN CTAB
M  V30 COUNTS 53 57 0 0 0
M  V30 BEGIN ATOM
M  V30 1 C 3.754208 -4.020745 3.663800 0
M  V30 2 C 2.806304 -2.920651 3.402310 0
M  V30 3 C 2.138707 -2.323228 4.476708 0
M  V30 4 C 1.277309 -1.315428 4.177637 0
M  V30 5 C 1.096850 -0.928741 2.868059 0
M  V30 6 C 1.778093 -1.544882 1.815890 0
M  V30 7 C 1.438099 -0.980694 0.514201 0
M  V30 8 N 1.671528 0.311355 0.262044 0
M  V30 9 N 1.275331 0.584837 -0.990764 0
M  V30 10 C 1.395098 1.897000 -1.560131 0
M  V30 11 C 0.207591 2.722889 -1.329120 0
M  V30 12 S -0.710821 3.419800 -2.503121 0
M  V30 13 N -0.312786 3.032179 -0.046624 0
M  V30 14 C -1.442555 3.813564 0.336376 0
M  V30 15 C -2.624103 3.071060 0.377906 0
M  V30 16 C -3.802829 3.706684 0.740875 0
M  V30 17 C -3.821157 5.060436 1.060422 0
M  V30 18 C -2.624674 5.771218 1.008669 0
M  V30 19 C -2.599361 7.181503 1.334966 0
M  V30 20 N -2.570306 8.306814 1.614530 0
M  V30 21 C -1.442743 5.154747 0.649544 0
M  V30 22 C 0.777209 -0.514499 -1.582250 0
M  V30 23 C 0.871634 -1.519329 -0.643571 0
M  V30 24 C 0.491254 -2.926543 -0.702993 0
M  V30 25 C 1.382436 -3.999380 -0.572842 0
M  V30 26 C 0.915808 -5.298132 -0.643790 0
M  V30 27 C -0.415601 -5.597616 -0.840966 0
M  V30 28 N -0.905954 -6.842420 -0.914546 0
M  V30 29 C -2.231882 -7.102111 -1.110176 0
M  V30 30 C -3.077816 -5.994832 -1.233884 0
M  V30 31 N -2.582237 -4.741564 -1.159298 0
M  V30 32 C -1.269362 -4.499814 -0.965700 0
M  V30 33 C -0.857703 -3.183434 -0.902866 0
M  V30 34 N 2.636456 -2.552617 2.139166 0
M  V30 35 H 3.307984 -5.006980 3.385541 0
M  V30 36 H 4.724456 -3.866132 3.121977 0
M  V30 37 H 3.997950 -4.039182 4.749257 0
M  V30 38 H 2.276212 -2.623092 5.509234 0
M  V30 39 H 0.746717 -0.837495 5.006114 0
M  V30 40 H 0.383377 -0.109848 2.736411 0
M  V30 41 H 2.275250 2.428430 -1.109122 0
M  V30 42 H 1.600627 1.882950 -2.651267 0
M  V30 43 H 0.197494 2.633499 0.792604 0
M  V30 44 H -2.680381 1.999707 0.137730 0
M  V30 45 H -4.774676 3.236730 0.808472 0
M  V30 46 H -4.687159 5.629123 1.350851 0
M  V30 47 H -0.483128 5.657148 0.593139 0
M  V30 48 H 0.375805 -0.640870 -2.577166 0
M  V30 49 H 2.420838 -3.745326 -0.418990 0
M  V30 50 H 1.619710 -6.110890 -0.540885 0
M  V30 51 H -2.606631 -8.115655 -1.165741 0
M  V30 52 H -4.143783 -6.209046 -1.391414 0
M  V30 53 H -1.586621 -2.404481 -1.009602 0
M  V30 END ATOM
M  V30 BEGIN BOND
M  V30 1 1 1 2
M  V30 2 2 2 3
M  V30 3 1 3 4
M  V30 4 2 4 5
M  V30 5 1 5 6
M  V30 6 1 6 7
M  V30 7 2 7 8
M  V30 8 1 8 9
M  V30 9 1 9 10
M  V30 10 1 10 11
M  V30 11 2 11 12
M  V30 12 1 11 13
M  V30 13 1 13 14
M  V30 14 2 14 15
M  V30 15 1 15 16
M  V30 16 2 16 17
M  V30 17 1 17 18
M  V30 18 1 18 19
M  V30 19 3 19 20
M  V30 20 2 18 21
M  V30 21 1 9 22
M  V30 22 2 22 23
M  V30 23 1 23 24
M  V30 24 2 24 25
M  V30 25 1 25 26
M  V30 26 2 26 27
M  V30 27 1 27 28
M  V30 28 2 28 29
M  V30 29 1 29 30
M  V30 30 2 30 31
M  V30 31 1 31 32
M  V30 32 2 32 33
M  V30 33 2 6 34
M  V30 34 1 34 2
M  V30 35 1 23 7
M  V30 36 1 33 24
M  V30 37 1 21 14
M  V30 38 1 32 27
M  V30 39 1 1 35
M  V30 40 1 1 36
M  V30 41 1 1 37
M  V30 42 1 3 38
M  V30 43 1 4 39
M  V30 44 1 5 40
M  V30 45 1 10 41
M  V30 46 1 10 42
M  V30 47 1 13 43
M  V30 48 1 15 44
M  V30 49 1 16 45
M  V30 50 1 17 46
M  V30 51 1 21 47
M  V30 52 1 22 48
M  V30 53 1 25 49
M  V30 54 1 26 50
M  V30 55 1 29 51
M  V30 56 1 30 52
M  V30 57 1 33 53
M  V30 END BOND
M  V30 END CTAB
M  END
>  <Dataset>  (931) 
ChEMBL_Kinases

>  <Ligand_Instance>  (931) 
nan

>  <PDB_ID>  (931) 
nan

>  <Standardized_SMILES>  (931) 
Cc1cccc(-c2nn(CC(=S)Nc3cccc(C#N)c3)cc2-c2ccc3nccnc3c2)n1

>  <Name>  (931) 
nan

>  <Pocket>  (931) 
nan

>  <ATP_Site>  (931) 
nan

>  <Peripheral>  (931) 
nan

>  <Num_H_Atoms_ProtBoundConf>  (931) 
nan

>  <Num_Resolved_Atoms>  (931) 
nan

>  <Num_Not_Resolved_Atoms>  (931) 
nan

$$$$
CHEMBL1824440
     RDKit          3D

  0  0  0  0  0  0  0  0  0  0999 V3000
M  V30 BEGIN CTAB
M  V30 COUNTS 52 56 0 0 0
M  V30 BEGIN ATOM
M  V30 1 C 1.760149 -4.688538 4.908511 0
M  V30 2 C 1.269938 -3.397503 4.425219 0
M  V30 3 C 0.583526 -2.597714 5.344996 0
M  V30 4 C 0.107814 -1.369802 4.922377 0
M  V30 5 C 0.360093 -1.030751 3.590424 0
M  V30 6 C 1.051555 -1.851382 2.688001 0
M  V30 7 C 1.135472 -1.174546 1.414444 0
M  V30 8 N 1.694743 0.006043 1.124050 0
M  V30 9 N 1.551575 0.278897 -0.164013 0
M  V30 10 C 2.071285 1.534933 -0.680262 0
M  V30 11 C 0.988137 2.590203 -0.584182 0
M  V30 12 S -0.480643 2.080732 -0.018075 0
M  V30 13 N 1.159659 3.983118 -0.942230 0
M  V30 14 C 0.012790 4.814071 -0.781599 0
M  V30 15 C -0.348871 5.211140 0.486002 0
M  V30 16 C -1.475916 6.005274 0.569289 0
M  V30 17 C -2.210924 6.391015 -0.538013 0
M  V30 18 C -1.824953 5.976666 -1.817481 0
M  V30 19 C -0.702687 5.185821 -1.891479 0
M  V30 20 C 0.885002 -0.750532 -0.717270 0
M  V30 21 C 0.611419 -1.688452 0.281066 0
M  V30 22 C -0.125714 -2.857624 -0.225005 0
M  V30 23 C -1.471434 -2.580014 -0.256638 0
M  V30 24 C -2.300516 -3.596874 -0.750856 0
M  V30 25 C -1.709050 -4.772509 -1.159276 0
M  V30 26 N -2.478246 -5.791581 -1.655258 0
M  V30 27 C -1.867769 -6.944859 -2.059339 0
M  V30 28 C -0.498391 -7.146635 -1.995170 0
M  V30 29 N 0.255172 -6.127888 -1.500325 0
M  V30 30 C -0.349679 -4.976288 -1.096583 0
M  V30 31 C 0.539489 -3.999467 -0.611804 0
M  V30 32 N 1.486940 -3.033099 3.163487 0
M  V30 33 H 1.834333 -4.684083 6.017023 0
M  V30 34 H 1.033874 -5.477054 4.633281 0
M  V30 35 H 2.767370 -4.910791 4.446476 0
M  V30 36 H 0.438533 -2.949339 6.362578 0
M  V30 37 H -0.421616 -0.773836 5.651195 0
M  V30 38 H -0.078872 -0.035433 3.404880 0
M  V30 39 H 2.972004 1.835220 -0.123569 0
M  V30 40 H 2.373328 1.423866 -1.731746 0
M  V30 41 H 2.117846 4.221963 -1.284924 0
M  V30 42 H 0.230084 4.906596 1.339857 0
M  V30 43 H -1.742523 6.305625 1.590189 0
M  V30 44 H -3.089904 7.019337 -0.371940 0
M  V30 45 H -2.436421 6.308702 -2.637545 0
M  V30 46 H -0.447358 4.892723 -2.909451 0
M  V30 47 H 0.702714 -0.641958 -1.792677 0
M  V30 48 H -1.964338 -1.678410 0.054016 0
M  V30 49 H -3.359776 -3.506696 -0.823176 0
M  V30 50 H -2.639591 -7.642325 -2.423689 0
M  V30 51 H -0.197909 -8.118173 -2.355801 0
M  V30 52 H 1.592597 -4.074329 -0.534298 0
M  V30 END ATOM
M  V30 BEGIN BOND
M  V30 1 1 1 2
M  V30 2 2 2 3
M  V30 3 1 3 4
M  V30 4 2 4 5
M  V30 5 1 5 6
M  V30 6 1 6 7
M  V30 7 2 7 8
M  V30 8 1 8 9
M  V30 9 1 9 10
M  V30 10 1 10 11
M  V30 11 2 11 12
M  V30 12 1 11 13
M  V30 13 1 13 14
M  V30 14 2 14 15
M  V30 15 1 15 16
M  V30 16 2 16 17
M  V30 17 1 17 18
M  V30 18 2 18 19
M  V30 19 1 9 20
M  V30 20 2 20 21
M  V30 21 1 21 22
M  V30 22 2 22 23
M  V30 23 1 23 24
M  V30 24 2 24 25
M  V30 25 1 25 26
M  V30 26 2 26 27
M  V30 27 1 27 28
M  V30 28 2 28 29
M  V30 29 1 29 30
M  V30 30 2 30 31
M  V30 31 2 6 32
M  V30 32 1 32 2
M  V30 33 1 21 7
M  V30 34 1 31 22
M  V30 35 1 19 14
M  V30 36 1 30 25
M  V30 37 1 1 33
M  V30 38 1 1 34
M  V30 39 1 1 35
M  V30 40 1 3 36
M  V30 41 1 4 37
M  V30 42 1 5 38
M  V30 43 1 10 39
M  V30 44 1 10 40
M  V30 45 1 13 41
M  V30 46 1 15 42
M  V30 47 1 16 43
M  V30 48 1 17 44
M  V30 49 1 18 45
M  V30 50 1 19 46
M  V30 51 1 20 47
M  V30 52 1 23 48
M  V30 53 1 24 49
M  V30 54 1 27 50
M  V30 55 1 28 51
M  V30 56 1 31 52
M  V30 END BOND
M  V30 END CTAB
M  END
>  <Dataset>  (932) 
ChEMBL_Kinases

>  <Ligand_Instance>  (932) 
nan

>  <PDB_ID>  (932) 
nan

>  <Standardized_SMILES>  (932) 
Cc1cccc(-c2nn(CC(=S)Nc3ccccc3)cc2-c2ccc3nccnc3c2)n1

>  <Name>  (932) 
nan

>  <Pocket>  (932) 
nan

>  <ATP_Site>  (932) 
nan

>  <Peripheral>  (932) 
nan

>  <Num_H_Atoms_ProtBoundConf>  (932) 
nan

>  <Num_Resolved_Atoms>  (932) 
nan

>  <Num_Not_Resolved_Atoms>  (932) 
nan

$$$$
CHEMBL1824438
     RDKit          3D

  0  0  0  0  0  0  0  0  0  0999 V3000
M  V30 BEGIN CTAB
M  V30 COUNTS 55 59 0 0 0
M  V30 BEGIN ATOM
M  V30 1 C 4.020538 -4.143647 0.642743 0
M  V30 2 C 3.917759 -2.968929 1.546567 0
M  V30 3 C 4.805433 -2.629947 2.546460 0
M  V30 4 C 4.584201 -1.498118 3.318444 0
M  V30 5 C 3.463445 -0.712062 3.075355 0
M  V30 6 C 2.597013 -1.084501 2.064538 0
M  V30 7 C 1.467638 -0.172586 1.920206 0
M  V30 8 N 1.517110 1.121803 1.617015 0
M  V30 9 N 0.317674 1.683841 1.558690 0
M  V30 10 C 0.209716 3.091018 1.258526 0
M  V30 11 C 0.144117 3.425600 -0.199397 0
M  V30 12 C -1.010966 2.851260 -0.920246 0
M  V30 13 O -1.913239 2.164249 -0.396070 0
M  V30 14 N -1.109445 3.093553 -2.309856 0
M  V30 15 C -2.093897 2.671501 -3.229311 0
M  V30 16 C -3.206399 1.910989 -2.967169 0
M  V30 17 C -4.146969 1.518434 -3.893577 0
M  V30 18 C -3.988987 1.904706 -5.207018 0
M  V30 19 C -2.884986 2.669826 -5.515140 0
M  V30 20 C -1.976214 3.034108 -4.550978 0
M  V30 21 C -0.522589 0.678327 1.842833 0
M  V30 22 C 0.139992 -0.506381 2.077477 0
M  V30 23 C -0.460965 -1.790994 2.411251 0
M  V30 24 C -1.199216 -1.860481 3.592410 0
M  V30 25 C -1.802981 -3.055762 3.977077 0
M  V30 26 C -1.696975 -4.205945 3.215161 0
M  V30 27 N -2.278093 -5.362234 3.583040 0
M  V30 28 C -2.114282 -6.431613 2.767716 0
M  V30 29 C -1.395366 -6.392902 1.602741 0
M  V30 30 N -0.823831 -5.219393 1.259389 0
M  V30 31 C -0.963652 -4.126824 2.047036 0
M  V30 32 C -0.366286 -2.947212 1.664889 0
M  V30 33 N 2.849717 -2.190584 1.339478 0
M  V30 34 H 3.743431 -3.867330 -0.412652 0
M  V30 35 H 5.059180 -4.554897 0.658153 0
M  V30 36 H 3.340468 -4.973968 0.914910 0
M  V30 37 H 5.653887 -3.291014 2.675580 0
M  V30 38 H 5.312150 -1.255271 4.108676 0
M  V30 39 H 3.390406 0.146099 3.736859 0
M  V30 40 H -0.656127 3.536989 1.811407 0
M  V30 41 H 1.112254 3.649645 1.653160 0
M  V30 42 H 1.112687 3.098599 -0.666948 0
M  V30 43 H 0.148056 4.550331 -0.273240 0
M  V30 44 H -0.321502 3.680956 -2.712996 0
M  V30 45 H -3.395364 1.574559 -1.972396 0
M  V30 46 H -5.000213 0.920872 -3.626924 0
M  V30 47 H -4.724842 1.598548 -5.936143 0
M  V30 48 H -2.760408 2.973057 -6.544608 0
M  V30 49 H -1.137553 3.642547 -4.909792 0
M  V30 50 H -1.591516 0.813415 1.885985 0
M  V30 51 H -1.367220 -1.040696 4.287978 0
M  V30 52 H -2.382781 -3.166896 4.876008 0
M  V30 53 H -2.599339 -7.345509 3.101058 0
M  V30 54 H -1.275781 -7.259032 0.963677 0
M  V30 55 H 0.206195 -2.891041 0.749217 0
M  V30 END ATOM
M  V30 BEGIN BOND
M  V30 1 1 1 2
M  V30 2 2 2 3
M  V30 3 1 3 4
M  V30 4 2 4 5
M  V30 5 1 5 6
M  V30 6 1 6 7
M  V30 7 2 7 8
M  V30 8 1 8 9
M  V30 9 1 9 10
M  V30 10 1 10 11
M  V30 11 1 11 12
M  V30 12 2 12 13
M  V30 13 1 12 14
M  V30 14 1 14 15
M  V30 15 2 15 16
M  V30 16 1 16 17
M  V30 17 2 17 18
M  V30 18 1 18 19
M  V30 19 2 19 20
M  V30 20 1 9 21
M  V30 21 2 21 22
M  V30 22 1 22 23
M  V30 23 2 23 24
M  V30 24 1 24 25
M  V30 25 2 25 26
M  V30 26 1 26 27
M  V30 27 2 27 28
M  V30 28 1 28 29
M  V30 29 2 29 30
M  V30 30 1 30 31
M  V30 31 2 31 32
M  V30 32 2 6 33
M  V30 33 1 33 2
M  V30 34 1 22 7
M  V30 35 1 32 23
M  V30 36 1 20 15
M  V30 37 1 31 26
M  V30 38 1 1 34
M  V30 39 1 1 35
M  V30 40 1 1 36
M  V30 41 1 3 37
M  V30 42 1 4 38
M  V30 43 1 5 39
M  V30 44 1 10 40
M  V30 45 1 10 41
M  V30 46 1 11 42
M  V30 47 1 11 43
M  V30 48 1 14 44
M  V30 49 1 16 45
M  V30 50 1 17 46
M  V30 51 1 18 47
M  V30 52 1 19 48
M  V30 53 1 20 49
M  V30 54 1 21 50
M  V30 55 1 24 51
M  V30 56 1 25 52
M  V30 57 1 28 53
M  V30 58 1 29 54
M  V30 59 1 32 55
M  V30 END BOND
M  V30 END CTAB
M  END
>  <Dataset>  (933) 
ChEMBL_Kinases

>  <Ligand_Instance>  (933) 
nan

>  <PDB_ID>  (933) 
nan

>  <Standardized_SMILES>  (933) 
Cc1cccc(-c2nn(CCC(=O)Nc3ccccc3)cc2-c2ccc3nccnc3c2)n1

>  <Name>  (933) 
nan

>  <Pocket>  (933) 
nan

>  <ATP_Site>  (933) 
nan

>  <Peripheral>  (933) 
nan

>  <Num_H_Atoms_ProtBoundConf>  (933) 
nan

>  <Num_Resolved_Atoms>  (933) 
nan

>  <Num_Not_Resolved_Atoms>  (933) 
nan

$$$$
CHEMBL1824436
     RDKit          3D

  0  0  0  0  0  0  0  0  0  0999 V3000
M  V30 BEGIN CTAB
M  V30 COUNTS 53 57 0 0 0
M  V30 BEGIN ATOM
M  V30 1 C 0.903391 -2.352628 5.158216 0
M  V30 2 C 0.366911 -1.597110 3.989471 0
M  V30 3 C -0.759277 -0.835591 4.187280 0
M  V30 4 C -1.311416 -0.113860 3.161953 0
M  V30 5 C -0.667289 -0.207216 1.946852 0
M  V30 6 C 0.462537 -0.969248 1.742826 0
M  V30 7 C 1.217798 -1.143257 0.531908 0
M  V30 8 C 1.963742 -0.268386 -0.225763 0
M  V30 9 C 2.158738 1.144840 0.070492 0
M  V30 10 C 3.507153 1.386380 0.359136 0
M  V30 11 C 3.964917 2.662599 0.673778 0
M  V30 12 C 3.075644 3.715885 0.703474 0
M  V30 13 N 3.426882 4.992093 0.998518 0
M  V30 14 C 2.466374 5.950192 0.997816 0
M  V30 15 C 1.138238 5.711122 0.713380 0
M  V30 16 N 0.792618 4.430370 0.418456 0
M  V30 17 C 1.751698 3.461723 0.417015 0
M  V30 18 C 1.278644 2.205810 0.103117 0
M  V30 19 C 2.497678 -0.957455 -1.319764 0
M  V30 20 N 2.068009 -2.218345 -1.200915 0
M  V30 21 N 1.307703 -2.335906 -0.103846 0
M  V30 22 C 0.673105 -3.590835 0.326481 0
M  V30 23 C -0.684812 -3.655700 -0.308220 0
M  V30 24 O -0.298962 -2.536695 -0.791290 0
M  V30 25 N -1.751667 -4.570964 -0.285680 0
M  V30 26 C -2.783999 -4.043443 -1.115455 0
M  V30 27 C -2.748567 -4.416783 -2.458800 0
M  V30 28 C -3.726580 -3.933345 -3.315407 0
M  V30 29 C -4.680574 -3.102494 -2.763638 0
M  V30 30 C -4.755131 -2.707877 -1.447602 0
M  V30 31 C -5.791359 -1.836859 -0.971838 0
M  V30 32 N -6.639517 -1.119392 -0.598617 0
M  V30 33 C -3.764538 -3.205969 -0.612267 0
M  V30 34 N 0.966960 -1.663680 2.792263 0
M  V30 35 H 1.595498 -1.667477 5.704388 0
M  V30 36 H 1.477195 -3.222138 4.755724 0
M  V30 37 H 0.046749 -2.668422 5.766736 0
M  V30 38 H -1.247284 -0.780305 5.157184 0
M  V30 39 H -2.188047 0.512050 3.208683 0
M  V30 40 H -1.027561 0.319292 1.087571 0
M  V30 41 H 4.328120 0.658430 0.376083 0
M  V30 42 H 4.984944 2.906130 0.903186 0
M  V30 43 H 2.748306 6.978433 1.235339 0
M  V30 44 H 0.408656 6.506952 0.725440 0
M  V30 45 H 0.280162 1.891945 -0.137281 0
M  V30 46 H 3.124588 -0.449785 -2.051571 0
M  V30 47 H 0.576343 -3.632532 1.429777 0
M  V30 48 H 1.311110 -4.415787 -0.022080 0
M  V30 49 H -1.464171 -5.357572 0.330858 0
M  V30 50 H -1.981029 -5.065913 -2.828911 0
M  V30 51 H -3.761756 -4.182052 -4.371019 0
M  V30 52 H -5.474501 -2.696323 -3.407153 0
M  V30 53 H -3.776307 -2.926883 0.431315 0
M  V30 END ATOM
M  V30 BEGIN BOND
M  V30 1 1 1 2
M  V30 2 2 2 3
M  V30 3 1 3 4
M  V30 4 2 4 5
M  V30 5 1 5 6
M  V30 6 1 6 7
M  V30 7 2 7 8
M  V30 8 1 8 9
M  V30 9 2 9 10
M  V30 10 1 10 11
M  V30 11 2 11 12
M  V30 12 1 12 13
M  V30 13 2 13 14
M  V30 14 1 14 15
M  V30 15 2 15 16
M  V30 16 1 16 17
M  V30 17 2 17 18
M  V30 18 1 8 19
M  V30 19 2 19 20
M  V30 20 1 20 21
M  V30 21 1 21 22
M  V30 22 1 22 23
M  V30 23 2 23 24
M  V30 24 1 23 25
M  V30 25 1 25 26
M  V30 26 2 26 27
M  V30 27 1 27 28
M  V30 28 2 28 29
M  V30 29 1 29 30
M  V30 30 1 30 31
M  V30 31 3 31 32
M  V30 32 2 30 33
M  V30 33 2 6 34
M  V30 34 1 34 2
M  V30 35 1 21 7
M  V30 36 1 33 26
M  V30 37 1 18 9
M  V30 38 1 17 12
M  V30 39 1 1 35
M  V30 40 1 1 36
M  V30 41 1 1 37
M  V30 42 1 3 38
M  V30 43 1 4 39
M  V30 44 1 5 40
M  V30 45 1 10 41
M  V30 46 1 11 42
M  V30 47 1 14 43
M  V30 48 1 15 44
M  V30 49 1 18 45
M  V30 50 1 19 46
M  V30 51 1 22 47
M  V30 52 1 22 48
M  V30 53 1 25 49
M  V30 54 1 27 50
M  V30 55 1 28 51
M  V30 56 1 29 52
M  V30 57 1 33 53
M  V30 END BOND
M  V30 END CTAB
M  END
>  <Dataset>  (934) 
ChEMBL_Kinases

>  <Ligand_Instance>  (934) 
nan

>  <PDB_ID>  (934) 
nan

>  <Standardized_SMILES>  (934) 
Cc1cccc(-c2c(-c3ccc4nccnc4c3)cnn2CC(=O)Nc2cccc(C#N)c2)n1

>  <Name>  (934) 
nan

>  <Pocket>  (934) 
nan

>  <ATP_Site>  (934) 
nan

>  <Peripheral>  (934) 
nan

>  <Num_H_Atoms_ProtBoundConf>  (934) 
nan

>  <Num_Resolved_Atoms>  (934) 
nan

>  <Num_Not_Resolved_Atoms>  (934) 
nan

$$$$
CHEMBL1824434
     RDKit          3D

  0  0  0  0  0  0  0  0  0  0999 V3000
M  V30 BEGIN CTAB
M  V30 COUNTS 52 56 0 0 0
M  V30 BEGIN ATOM
M  V30 1 C 1.261401 0.688353 5.269372 0
M  V30 2 C 1.100068 -0.245998 4.112083 0
M  V30 3 C 1.885165 -1.401421 4.098430 0
M  V30 4 C 1.754362 -2.265541 3.048571 0
M  V30 5 C 0.861212 -1.953598 2.062285 0
M  V30 6 C 0.082950 -0.827716 2.055490 0
M  V30 7 C -0.914543 -0.243866 1.180323 0
M  V30 8 C -0.798233 0.878235 0.396314 0
M  V30 9 C 0.380707 1.722827 0.209872 0
M  V30 10 C 0.920783 1.455083 -1.049818 0
M  V30 11 C 2.049069 2.080647 -1.544145 0
M  V30 12 C 2.648349 3.027197 -0.702286 0
M  V30 13 N 3.758353 3.697186 -1.091636 0
M  V30 14 C 4.302646 4.604361 -0.241553 0
M  V30 15 C 3.766397 4.865366 0.999876 0
M  V30 16 N 2.667987 4.208701 1.396570 0
M  V30 17 C 2.113753 3.292674 0.545223 0
M  V30 18 C 0.993509 2.660285 1.016169 0
M  V30 19 C -2.051321 1.033967 -0.203722 0
M  V30 20 N -2.826572 0.049979 0.220223 0
M  V30 21 N -2.154447 -0.751542 1.068294 0
M  V30 22 C -2.965543 -1.885003 1.483511 0
M  V30 23 C -2.967593 -2.923906 0.414288 0
M  V30 24 O -1.727785 -3.070147 0.085354 0
M  V30 25 N -3.803420 -3.799658 -0.373816 0
M  V30 26 C -2.879166 -4.458146 -1.207794 0
M  V30 27 C -2.320935 -5.685734 -0.972543 0
M  V30 28 C -1.410352 -6.128202 -1.910942 0
M  V30 29 C -1.102953 -5.353214 -3.012531 0
M  V30 30 C -1.655491 -4.119402 -3.260936 0
M  V30 31 C -2.583451 -3.653673 -2.316642 0
M  V30 32 N 0.211787 0.043577 3.113375 0
M  V30 33 H 1.155043 1.751718 4.955028 0
M  V30 34 H 2.240511 0.522262 5.722152 0
M  V30 35 H 0.493815 0.409681 6.014380 0
M  V30 36 H 2.581748 -1.630962 4.877253 0
M  V30 37 H 2.306871 -3.209459 2.918041 0
M  V30 38 H 0.668146 -2.532094 1.191428 0
M  V30 39 H 0.545344 0.743709 -1.807394 0
M  V30 40 H 2.518438 1.915084 -2.515516 0
M  V30 41 H 5.188483 5.042794 -0.720612 0
M  V30 42 H 4.302351 5.613245 1.574022 0
M  V30 43 H 0.468240 2.761682 1.950586 0
M  V30 44 H -2.240910 1.870057 -0.887572 0
M  V30 45 H -2.441053 -2.339226 2.352188 0
M  V30 46 H -3.951705 -1.575458 1.786127 0
M  V30 47 H -4.739607 -3.572403 0.009202 0
M  V30 48 H -2.614883 -6.234492 -0.085317 0
M  V30 49 H -0.935493 -7.088510 -1.793626 0
M  V30 50 H -0.379006 -5.696173 -3.761472 0
M  V30 51 H -1.401288 -3.507915 -4.135940 0
M  V30 52 H -2.997395 -2.681752 -2.546525 0
M  V30 END ATOM
M  V30 BEGIN BOND
M  V30 1 1 1 2
M  V30 2 2 2 3
M  V30 3 1 3 4
M  V30 4 2 4 5
M  V30 5 1 5 6
M  V30 6 1 6 7
M  V30 7 2 7 8
M  V30 8 1 8 9
M  V30 9 2 9 10
M  V30 10 1 10 11
M  V30 11 2 11 12
M  V30 12 1 12 13
M  V30 13 2 13 14
M  V30 14 1 14 15
M  V30 15 2 15 16
M  V30 16 1 16 17
M  V30 17 2 17 18
M  V30 18 1 8 19
M  V30 19 2 19 20
M  V30 20 1 20 21
M  V30 21 1 21 22
M  V30 22 1 22 23
M  V30 23 2 23 24
M  V30 24 1 23 25
M  V30 25 1 25 26
M  V30 26 2 26 27
M  V30 27 1 27 28
M  V30 28 2 28 29
M  V30 29 1 29 30
M  V30 30 2 30 31
M  V30 31 2 6 32
M  V30 32 1 32 2
M  V30 33 1 21 7
M  V30 34 1 31 26
M  V30 35 1 18 9
M  V30 36 1 17 12
M  V30 37 1 1 33
M  V30 38 1 1 34
M  V30 39 1 1 35
M  V30 40 1 3 36
M  V30 41 1 4 37
M  V30 42 1 5 38
M  V30 43 1 10 39
M  V30 44 1 11 40
M  V30 45 1 14 41
M  V30 46 1 15 42
M  V30 47 1 18 43
M  V30 48 1 19 44
M  V30 49 1 22 45
M  V30 50 1 22 46
M  V30 51 1 25 47
M  V30 52 1 27 48
M  V30 53 1 28 49
M  V30 54 1 29 50
M  V30 55 1 30 51
M  V30 56 1 31 52
M  V30 END BOND
M  V30 END CTAB
M  END
>  <Dataset>  (935) 
ChEMBL_Kinases

>  <Ligand_Instance>  (935) 
nan

>  <PDB_ID>  (935) 
nan

>  <Standardized_SMILES>  (935) 
Cc1cccc(-c2c(-c3ccc4nccnc4c3)cnn2CC(=O)Nc2ccccc2)n1

>  <Name>  (935) 
nan

>  <Pocket>  (935) 
nan

>  <ATP_Site>  (935) 
nan

>  <Peripheral>  (935) 
nan

>  <Num_H_Atoms_ProtBoundConf>  (935) 
nan

>  <Num_Resolved_Atoms>  (935) 
nan

>  <Num_Not_Resolved_Atoms>  (935) 
nan

$$$$
CHEMBL182283
     RDKit          3D

  0  0  0  0  0  0  0  0  0  0999 V3000
M  V30 BEGIN CTAB
M  V30 COUNTS 37 40 0 0 0
M  V30 BEGIN ATOM
M  V30 1 C -0.821618 -5.620926 4.310115 0
M  V30 2 C -0.207105 -4.568009 3.437724 0
M  V30 3 C -1.023179 -3.575003 2.911613 0
M  V30 4 C -0.432948 -2.616924 2.111191 0
M  V30 5 C 0.941273 -2.647741 1.840807 0
M  V30 6 C 1.574540 -1.631187 0.990023 0
M  V30 7 C 0.881882 -0.589244 0.403148 0
M  V30 8 C 1.801348 0.158467 -0.319051 0
M  V30 9 C 1.583525 1.295665 -1.073949 0
M  V30 10 N 0.280643 1.849742 -1.187393 0
M  V30 11 C 0.004839 3.000121 -1.939234 0
M  V30 12 O 0.947873 3.594989 -2.558764 0
M  V30 13 C -1.373755 3.548344 -2.032448 0
M  V30 14 C -2.110044 3.539801 -0.704340 0
M  V30 15 C -2.488468 2.594822 -1.844576 0
M  V30 16 N 2.654917 1.814074 -1.666883 0
M  V30 17 C 3.878439 1.229442 -1.515026 0
M  V30 18 N 4.061502 0.105319 -0.761954 0
M  V30 19 C 3.005198 -0.462808 -0.137195 0
M  V30 20 O 2.835659 -1.513913 0.639377 0
M  V30 21 C 1.729247 -3.658101 2.385119 0
M  V30 22 C 1.150517 -4.635130 3.196444 0
M  V30 23 H -0.249036 -5.697525 5.236984 0
M  V30 24 H -1.869571 -5.344432 4.565052 0
M  V30 25 H -0.895366 -6.586416 3.749739 0
M  V30 26 H -2.082879 -3.517941 3.096660 0
M  V30 27 H -1.040881 -1.826465 1.683531 0
M  V30 28 H -0.183986 -0.392709 0.491203 0
M  V30 29 H -0.509853 1.396738 -0.700239 0
M  V30 30 H -1.517172 4.460070 -2.644296 0
M  V30 31 H -1.622289 3.138765 0.198930 0
M  V30 32 H -2.856137 4.308384 -0.484311 0
M  V30 33 H -3.478632 2.765638 -2.332570 0
M  V30 34 H -2.303937 1.532182 -1.661746 0
M  V30 35 H 4.761156 1.650635 -1.999373 0
M  V30 36 H 2.793724 -3.647199 2.151181 0
M  V30 37 H 1.778224 -5.407946 3.607476 0
M  V30 END ATOM
M  V30 BEGIN BOND
M  V30 1 1 1 2
M  V30 2 2 2 3
M  V30 3 1 3 4
M  V30 4 2 4 5
M  V30 5 1 5 6
M  V30 6 2 6 7
M  V30 7 1 7 8
M  V30 8 2 8 9
M  V30 9 1 9 10
M  V30 10 1 10 11
M  V30 11 2 11 12
M  V30 12 1 11 13
M  V30 13 1 13 14
M  V30 14 1 14 15
M  V30 15 1 9 16
M  V30 16 2 16 17
M  V30 17 1 17 18
M  V30 18 2 18 19
M  V30 19 1 19 20
M  V30 20 1 5 21
M  V30 21 2 21 22
M  V30 22 1 22 2
M  V30 23 1 20 6
M  V30 24 1 19 8
M  V30 25 1 15 13
M  V30 26 1 1 23
M  V30 27 1 1 24
M  V30 28 1 1 25
M  V30 29 1 3 26
M  V30 30 1 4 27
M  V30 31 1 7 28
M  V30 32 1 10 29
M  V30 33 1 13 30
M  V30 34 1 14 31
M  V30 35 1 14 32
M  V30 36 1 15 33
M  V30 37 1 15 34
M  V30 38 1 17 35
M  V30 39 1 21 36
M  V30 40 1 22 37
M  V30 END BOND
M  V30 END CTAB
M  END
>  <Dataset>  (936) 
ChEMBL_Kinases

>  <Ligand_Instance>  (936) 
nan

>  <PDB_ID>  (936) 
nan

>  <Standardized_SMILES>  (936) 
Cc1ccc(-c2cc3c(NC(=O)C4CC4)ncnc3o2)cc1

>  <Name>  (936) 
GW819230X

>  <Pocket>  (936) 
nan

>  <ATP_Site>  (936) 
nan

>  <Peripheral>  (936) 
nan

>  <Num_H_Atoms_ProtBoundConf>  (936) 
nan

>  <Num_Resolved_Atoms>  (936) 
nan

>  <Num_Not_Resolved_Atoms>  (936) 
nan

$$$$
CHEMBL182312
     RDKit          3D

  0  0  0  0  0  0  0  0  0  0999 V3000
M  V30 BEGIN CTAB
M  V30 COUNTS 45 47 0 0 0
M  V30 BEGIN ATOM
M  V30 1 C 4.627693 -3.631432 2.894976 0
M  V30 2 C 3.727770 -2.477234 2.808636 0
M  V30 3 O 3.892254 -1.630624 3.710016 0
M  V30 4 N 2.794474 -2.454912 1.735423 0
M  V30 5 C 1.755956 -1.637810 1.204637 0
M  V30 6 N 2.102155 -0.712345 0.292656 0
M  V30 7 C 1.225914 0.123388 -0.288166 0
M  V30 8 C 1.736126 1.071320 -1.254080 0
M  V30 9 C 3.089092 1.055007 -1.515655 0
M  V30 10 C 3.677882 1.915232 -2.417894 0
M  V30 11 C 2.934572 2.845028 -3.111230 0
M  V30 12 C 1.578921 2.889832 -2.875003 0
M  V30 13 C 1.037933 2.011378 -1.965961 0
M  V30 14 O -0.324098 2.116293 -1.783073 0
M  V30 15 C -0.059970 -0.064938 0.145569 0
M  V30 16 C -0.478006 -0.986777 1.068918 0
M  V30 17 C -1.885173 -1.101832 1.460814 0
M  V30 18 C -2.119005 -0.175171 2.645854 0
M  V30 19 C -3.537717 -0.441196 3.096990 0
M  V30 20 C -4.309093 -1.320268 2.167214 0
M  V30 21 N -4.168977 -1.024910 0.778628 0
M  V30 22 C -2.830840 -0.665514 0.365585 0
M  V30 23 C 0.460855 -1.821080 1.635659 0
M  V30 24 C 0.117398 -2.801745 2.597253 0
M  V30 25 N -0.158977 -3.589762 3.397395 0
M  V30 26 H 4.252691 -4.507536 2.292627 0
M  V30 27 H 5.684644 -3.398060 2.631965 0
M  V30 28 H 4.650673 -4.007779 3.948953 0
M  V30 29 H 2.766486 -3.242910 1.042821 0
M  V30 30 H 3.775361 0.365666 -1.029247 0
M  V30 31 H 4.735124 1.887092 -2.608312 0
M  V30 32 H 3.411752 3.511984 -3.814980 0
M  V30 33 H 0.975610 3.610030 -3.406419 0
M  V30 34 H -0.776264 3.029457 -1.747791 0
M  V30 35 H -0.826825 0.563594 -0.269239 0
M  V30 36 H -2.109210 -2.128271 1.755490 0
M  V30 37 H -1.391930 -0.512881 3.420348 0
M  V30 38 H -1.948225 0.880636 2.336813 0
M  V30 39 H -3.503989 -0.975357 4.089126 0
M  V30 40 H -4.083726 0.512369 3.315813 0
M  V30 41 H -4.106722 -2.379189 2.426513 0
M  V30 42 H -5.396487 -1.160745 2.421093 0
M  V30 43 H -4.833222 -0.293900 0.451256 0
M  V30 44 H -2.546281 -1.062919 -0.624571 0
M  V30 45 H -2.787766 0.445789 0.292722 0
M  V30 END ATOM
M  V30 BEGIN BOND
M  V30 1 1 1 2
M  V30 2 2 2 3
M  V30 3 1 2 4
M  V30 4 1 4 5
M  V30 5 2 5 6
M  V30 6 1 6 7
M  V30 7 1 7 8
M  V30 8 2 8 9
M  V30 9 1 9 10
M  V30 10 2 10 11
M  V30 11 1 11 12
M  V30 12 2 12 13
M  V30 13 1 13 14
M  V30 14 2 7 15
M  V30 15 1 15 16
M  V30 16 1 16 17
M  V30 17 1 17 18
M  V30 18 1 18 19
M  V30 19 1 19 20
M  V30 20 1 20 21
M  V30 21 1 21 22
M  V30 22 2 16 23
M  V30 23 1 23 24
M  V30 24 3 24 25
M  V30 25 1 23 5
M  V30 26 1 13 8
M  V30 27 1 22 17
M  V30 28 1 1 26
M  V30 29 1 1 27
M  V30 30 1 1 28
M  V30 31 1 4 29
M  V30 32 1 9 30
M  V30 33 1 10 31
M  V30 34 1 11 32
M  V30 35 1 12 33
M  V30 36 1 14 34
M  V30 37 1 15 35
M  V30 38 1 17 36
M  V30 39 1 18 37
M  V30 40 1 18 38
M  V30 41 1 19 39
M  V30 42 1 19 40
M  V30 43 1 20 41
M  V30 44 1 20 42
M  V30 45 1 21 43
M  V30 46 1 22 44
M  V30 47 1 22 45
M  V30 END BOND
M  V30 END CTAB
M  END
>  <Dataset>  (937) 
ChEMBL_Kinases

>  <Ligand_Instance>  (937) 
nan

>  <PDB_ID>  (937) 
nan

>  <Standardized_SMILES>  (937) 
CC(=O)Nc1nc(-c2ccccc2O)cc(C2CCCNC2)c1C#N

>  <Name>  (937) 
nan

>  <Pocket>  (937) 
nan

>  <ATP_Site>  (937) 
nan

>  <Peripheral>  (937) 
nan

>  <Num_H_Atoms_ProtBoundConf>  (937) 
nan

>  <Num_Resolved_Atoms>  (937) 
nan

>  <Num_Not_Resolved_Atoms>  (937) 
nan

$$$$
CHEMBL182315
     RDKit          3D

  0  0  0  0  0  0  0  0  0  0999 V3000
M  V30 BEGIN CTAB
M  V30 COUNTS 40 42 0 0 0
M  V30 BEGIN ATOM
M  V30 1 N -0.682017 -3.895708 3.845996 0
M  V30 2 C -0.153848 -3.159841 3.128966 0
M  V30 3 C 0.505390 -2.226678 2.251731 0
M  V30 4 C 1.861308 -2.368993 2.050115 0
M  V30 5 N 2.573686 -3.403687 2.691916 0
M  V30 6 N 2.434742 -1.475909 1.222750 0
M  V30 7 C 1.733610 -0.491268 0.617154 0
M  V30 8 C 2.590101 0.338733 -0.224985 0
M  V30 9 C 2.094779 0.383213 -1.535028 0
M  V30 10 C 2.764211 1.113747 -2.501071 0
M  V30 11 C 3.931316 1.804404 -2.167436 0
M  V30 12 C 4.409030 1.749550 -0.863110 0
M  V30 13 C 3.739021 1.019573 0.100022 0
M  V30 14 O 4.098636 0.877696 1.433566 0
M  V30 15 C 0.379080 -0.360013 0.827228 0
M  V30 16 F -0.212987 0.642920 0.181761 0
M  V30 17 C -0.261399 -1.242154 1.661840 0
M  V30 18 C -1.744687 -1.088620 1.882499 0
M  V30 19 C -2.547418 -1.827503 0.874570 0
M  V30 20 C -3.496093 -1.028686 0.052084 0
M  V30 21 C -3.402932 0.434960 0.085440 0
M  V30 22 N -2.676394 1.071914 1.109475 0
M  V30 23 C -2.154153 0.306910 2.170786 0
M  V30 24 H 3.291880 -3.944521 2.126523 0
M  V30 25 H 2.463369 -3.703358 3.699794 0
M  V30 26 H 1.215493 -0.092960 -1.939460 0
M  V30 27 H 2.497843 1.233338 -3.539057 0
M  V30 28 H 4.510831 2.401909 -2.889149 0
M  V30 29 H 5.293283 2.248409 -0.521870 0
M  V30 30 H 4.660378 1.541619 1.933682 0
M  V30 31 H -1.889063 -1.656521 2.856188 0
M  V30 32 H -1.808293 -2.402141 0.237829 0
M  V30 33 H -3.148185 -2.681230 1.318389 0
M  V30 34 H -4.566949 -1.353298 0.232363 0
M  V30 35 H -3.335441 -1.369229 -1.016739 0
M  V30 36 H -2.989115 0.833012 -0.891424 0
M  V30 37 H -4.447828 0.869922 0.084912 0
M  V30 38 H -3.170947 1.896708 1.527668 0
M  V30 39 H -1.259291 0.830882 2.585731 0
M  V30 40 H -2.897471 0.324457 3.004177 0
M  V30 END ATOM
M  V30 BEGIN BOND
M  V30 1 3 1 2
M  V30 2 1 2 3
M  V30 3 2 3 4
M  V30 4 1 4 5
M  V30 5 1 4 6
M  V30 6 2 6 7
M  V30 7 1 7 8
M  V30 8 2 8 9
M  V30 9 1 9 10
M  V30 10 2 10 11
M  V30 11 1 11 12
M  V30 12 2 12 13
M  V30 13 1 13 14
M  V30 14 1 7 15
M  V30 15 1 15 16
M  V30 16 2 15 17
M  V30 17 1 17 18
M  V30 18 1 18 19
M  V30 19 1 19 20
M  V30 20 1 20 21
M  V30 21 1 21 22
M  V30 22 1 22 23
M  V30 23 1 17 3
M  V30 24 1 23 18
M  V30 25 1 13 8
M  V30 26 1 5 24
M  V30 27 1 5 25
M  V30 28 1 9 26
M  V30 29 1 10 27
M  V30 30 1 11 28
M  V30 31 1 12 29
M  V30 32 1 14 30
M  V30 33 1 18 31
M  V30 34 1 19 32
M  V30 35 1 19 33
M  V30 36 1 20 34
M  V30 37 1 20 35
M  V30 38 1 21 36
M  V30 39 1 21 37
M  V30 40 1 22 38
M  V30 41 1 23 39
M  V30 42 1 23 40
M  V30 END BOND
M  V30 END CTAB
M  END
>  <Dataset>  (938) 
ChEMBL_Kinases

>  <Ligand_Instance>  (938) 
nan

>  <PDB_ID>  (938) 
nan

>  <Standardized_SMILES>  (938) 
N#Cc1c(N)nc(-c2ccccc2O)c(F)c1C1CCCNC1

>  <Name>  (938) 
nan

>  <Pocket>  (938) 
nan

>  <ATP_Site>  (938) 
nan

>  <Peripheral>  (938) 
nan

>  <Num_H_Atoms_ProtBoundConf>  (938) 
nan

>  <Num_Resolved_Atoms>  (938) 
nan

>  <Num_Not_Resolved_Atoms>  (938) 
nan

$$$$
CHEMBL182326
     RDKit          3D

  0  0  0  0  0  0  0  0  0  0999 V3000
M  V30 BEGIN CTAB
M  V30 COUNTS 47 51 0 0 0
M  V30 BEGIN ATOM
M  V30 1 C 3.035167 -6.990137 1.191806 0
M  V30 2 C 2.511074 -5.596203 1.221589 0
M  V30 3 C 3.388935 -4.547086 1.063975 0
M  V30 4 C 2.882097 -3.278863 1.087194 0
M  V30 5 C 1.520150 -3.064533 1.264882 0
M  V30 6 C 0.714283 -1.930870 1.331133 0
M  V30 7 C 1.357749 -0.599245 1.186595 0
M  V30 8 C 2.328432 -0.232548 2.096332 0
M  V30 9 C 2.868228 1.015401 1.863518 0
M  V30 10 N 2.544818 1.863600 0.873857 0
M  V30 11 C 1.582376 1.439873 0.015546 0
M  V30 12 N 0.969255 2.032516 -1.150631 0
M  V30 13 C -0.120359 2.904389 -0.986345 0
M  V30 14 C -0.569707 3.341040 0.249184 0
M  V30 15 C -1.639720 4.191366 0.437406 0
M  V30 16 C -2.331912 4.655539 -0.684851 0
M  V30 17 F -3.378989 5.492829 -0.489823 0
M  V30 18 C -1.912321 4.240945 -1.938179 0
M  V30 19 F -2.599788 4.703001 -3.009336 0
M  V30 20 C -0.827343 3.381191 -2.095474 0
M  V30 21 N 1.019315 0.235049 0.189953 0
M  V30 22 C -0.603874 -2.354294 1.525284 0
M  V30 23 C -1.688084 -1.374521 1.633423 0
M  V30 24 C -2.081336 -0.515161 0.620982 0
M  V30 25 C -3.113224 0.382634 0.823172 0
M  V30 26 C -3.783447 0.455805 2.027294 0
M  V30 27 F -4.783770 1.358524 2.158216 0
M  V30 28 C -3.384522 -0.408932 3.037088 0
M  V30 29 C -2.342490 -1.322777 2.848868 0
M  V30 30 N -0.577621 -3.702037 1.572627 0
M  V30 31 N 0.674519 -4.126264 1.418722 0
M  V30 32 N 1.199183 -5.338902 1.391127 0
M  V30 33 H 3.229873 -7.424491 2.171923 0
M  V30 34 H 2.267693 -7.619592 0.653158 0
M  V30 35 H 3.923552 -7.015308 0.539324 0
M  V30 36 H 4.455947 -4.739142 0.927875 0
M  V30 37 H 3.557695 -2.452419 0.966636 0
M  V30 38 H 2.652849 -0.847728 2.920290 0
M  V30 39 H 3.649611 1.413773 2.522635 0
M  V30 40 H 1.316557 1.826392 -2.100484 0
M  V30 41 H -0.004138 2.954891 1.085818 0
M  V30 42 H -1.922060 4.482828 1.460043 0
M  V30 43 H -0.503456 3.053629 -3.096325 0
M  V30 44 H -1.569530 -0.566441 -0.324875 0
M  V30 45 H -3.342878 1.007579 -0.023442 0
M  V30 46 H -3.900248 -0.361391 3.978807 0
M  V30 47 H -2.078456 -1.968179 3.665078 0
M  V30 END ATOM
M  V30 BEGIN BOND
M  V30 1 1 1 2
M  V30 2 1 2 3
M  V30 3 2 3 4
M  V30 4 1 4 5
M  V30 5 2 5 6
M  V30 6 1 6 7
M  V30 7 2 7 8
M  V30 8 1 8 9
M  V30 9 2 9 10
M  V30 10 1 10 11
M  V30 11 1 11 12
M  V30 12 1 12 13
M  V30 13 2 13 14
M  V30 14 1 14 15
M  V30 15 2 15 16
M  V30 16 1 16 17
M  V30 17 1 16 18
M  V30 18 1 18 19
M  V30 19 2 18 20
M  V30 20 2 11 21
M  V30 21 1 6 22
M  V30 22 1 22 23
M  V30 23 2 23 24
M  V30 24 1 24 25
M  V30 25 2 25 26
M  V30 26 1 26 27
M  V30 27 1 26 28
M  V30 28 2 28 29
M  V30 29 2 22 30
M  V30 30 1 30 31
M  V30 31 1 31 32
M  V30 32 2 32 2
M  V30 33 1 31 5
M  V30 34 1 21 7
M  V30 35 1 29 23
M  V30 36 1 20 13
M  V30 37 1 1 33
M  V30 38 1 1 34
M  V30 39 1 1 35
M  V30 40 1 3 36
M  V30 41 1 4 37
M  V30 42 1 8 38
M  V30 43 1 9 39
M  V30 44 1 12 40
M  V30 45 1 14 41
M  V30 46 1 15 42
M  V30 47 1 20 43
M  V30 48 1 24 44
M  V30 49 1 25 45
M  V30 50 1 28 46
M  V30 51 1 29 47
M  V30 END BOND
M  V30 END CTAB
M  END
>  <Dataset>  (939) 
ChEMBL_Kinases

>  <Ligand_Instance>  (939) 
nan

>  <PDB_ID>  (939) 
nan

>  <Standardized_SMILES>  (939) 
Cc1ccc2c(-c3ccnc(Nc4ccc(F)c(F)c4)n3)c(-c3ccc(F)cc3)nn2n1

>  <Name>  (939) 
nan

>  <Pocket>  (939) 
nan

>  <ATP_Site>  (939) 
nan

>  <Peripheral>  (939) 
nan

>  <Num_H_Atoms_ProtBoundConf>  (939) 
nan

>  <Num_Resolved_Atoms>  (939) 
nan

>  <Num_Not_Resolved_Atoms>  (939) 
nan

$$$$
CHEMBL182354
     RDKit          3D

  0  0  0  0  0  0  0  0  0  0999 V3000
M  V30 BEGIN CTAB
M  V30 COUNTS 36 39 0 0 0
M  V30 BEGIN ATOM
M  V30 1 C -0.896291 -2.426448 2.557827 0
M  V30 2 C 0.567980 -2.480641 2.661120 0
M  V30 3 C 1.250110 -3.505810 3.264253 0
M  V30 4 C 2.645164 -3.428635 3.290758 0
M  V30 5 N 3.316300 -2.409665 2.758323 0
M  V30 6 C 2.699469 -1.392155 2.162718 0
M  V30 7 C 3.401008 -0.341311 1.613843 0
M  V30 8 C 2.737784 0.681329 1.012733 0
M  V30 9 C 1.360174 0.621532 0.977480 0
M  V30 10 C 0.419446 1.627750 0.370097 0
M  V30 11 S 0.177580 3.388129 0.782736 0
M  V30 12 C -1.163358 3.530664 -0.574458 0
M  V30 13 N -1.902222 4.717911 -0.902024 0
M  V30 14 N -1.153177 2.478489 -0.962568 0
M  V30 15 C -0.461709 1.411643 -0.639103 0
M  V30 16 C -0.590404 0.081802 -1.277128 0
M  V30 17 C -1.820554 -0.538841 -1.195073 0
M  V30 18 C -1.995874 -1.783094 -1.773651 0
M  V30 19 C -0.892768 -2.318594 -2.404931 0
M  V30 20 C 0.322134 -1.661797 -2.463540 0
M  V30 21 N 0.462646 -0.449470 -1.890006 0
M  V30 22 N 0.683012 -0.414145 1.519203 0
M  V30 23 C 1.322526 -1.436734 2.119024 0
M  V30 24 H -1.301447 -3.376136 2.106692 0
M  V30 25 H -1.397189 -2.281110 3.532788 0
M  V30 26 H -1.214580 -1.614308 1.894721 0
M  V30 27 H 0.648318 -4.300955 3.675568 0
M  V30 28 H 3.096554 -4.290352 3.791570 0
M  V30 29 H 4.476016 -0.289642 1.638540 0
M  V30 30 H 3.142370 1.552851 0.548714 0
M  V30 31 H -1.650524 5.333505 -1.712158 0
M  V30 32 H -2.746548 5.056686 -0.356916 0
M  V30 33 H -2.698330 -0.130745 -0.702006 0
M  V30 34 H -2.917406 -2.377747 -1.778268 0
M  V30 35 H -0.906478 -3.293465 -2.898607 0
M  V30 36 H 1.193932 -2.067360 -2.953288 0
M  V30 END ATOM
M  V30 BEGIN BOND
M  V30 1 1 1 2
M  V30 2 2 2 3
M  V30 3 1 3 4
M  V30 4 2 4 5
M  V30 5 1 5 6
M  V30 6 2 6 7
M  V30 7 1 7 8
M  V30 8 2 8 9
M  V30 9 1 9 10
M  V30 10 1 10 11
M  V30 11 1 11 12
M  V30 12 1 12 13
M  V30 13 2 12 14
M  V30 14 1 14 15
M  V30 15 1 15 16
M  V30 16 2 16 17
M  V30 17 1 17 18
M  V30 18 2 18 19
M  V30 19 1 19 20
M  V30 20 2 20 21
M  V30 21 1 9 22
M  V30 22 2 22 23
M  V30 23 1 23 2
M  V30 24 1 23 6
M  V30 25 2 15 10
M  V30 26 1 21 16
M  V30 27 1 1 24
M  V30 28 1 1 25
M  V30 29 1 1 26
M  V30 30 1 3 27
M  V30 31 1 4 28
M  V30 32 1 7 29
M  V30 33 1 8 30
M  V30 34 1 13 31
M  V30 35 1 13 32
M  V30 36 1 17 33
M  V30 37 1 18 34
M  V30 38 1 19 35
M  V30 39 1 20 36
M  V30 END BOND
M  V30 END CTAB
M  END
>  <Dataset>  (940) 
ChEMBL_Kinases

>  <Ligand_Instance>  (940) 
nan

>  <PDB_ID>  (940) 
nan

>  <Standardized_SMILES>  (940) 
Cc1ccnc2ccc(-c3sc(N)nc3-c3ccccn3)nc12

>  <Name>  (940) 
nan

>  <Pocket>  (940) 
nan

>  <ATP_Site>  (940) 
nan

>  <Peripheral>  (940) 
nan

>  <Num_H_Atoms_ProtBoundConf>  (940) 
nan

>  <Num_Resolved_Atoms>  (940) 
nan

>  <Num_Not_Resolved_Atoms>  (940) 
nan

$$$$
CHEMBL182358
     RDKit          3D

  0  0  0  0  0  0  0  0  0  0999 V3000
M  V30 BEGIN CTAB
M  V30 COUNTS 41 43 0 0 0
M  V30 BEGIN ATOM
M  V30 1 N 0.880147 -4.647354 2.189720 0
M  V30 2 C 0.797800 -3.482375 2.146997 0
M  V30 3 C 0.703287 -2.030803 2.091926 0
M  V30 4 C 0.501212 -1.405769 0.855533 0
M  V30 5 C 0.394411 -2.255386 -0.330355 0
M  V30 6 C -1.041429 -2.687407 -0.630976 0
M  V30 7 C -0.895148 -4.009164 -1.379917 0
M  V30 8 C 0.287915 -3.835870 -2.315964 0
M  V30 9 N 0.476721 -2.447965 -2.705663 0
M  V30 10 C 0.899636 -1.611724 -1.586596 0
M  V30 11 C 0.423640 -0.018745 0.898517 0
M  V30 12 C 0.542534 0.655767 2.096274 0
M  V30 13 C 0.448741 2.120089 2.052232 0
M  V30 14 C 1.673648 2.729536 1.868847 0
M  V30 15 O 2.885877 2.092962 1.735033 0
M  V30 16 C 1.725716 4.111443 1.808909 0
M  V30 17 C 0.548043 4.820600 1.935421 0
M  V30 18 C -0.679339 4.215716 2.118955 0
M  V30 19 C -0.731236 2.826751 2.179140 0
M  V30 20 O -1.887208 2.098281 2.358098 0
M  V30 21 N 0.738542 -0.012774 3.267449 0
M  V30 22 C 0.823226 -1.361906 3.294998 0
M  V30 23 N 1.027346 -2.075337 4.506892 0
M  V30 24 H 1.041567 -3.166591 -0.166547 0
M  V30 25 H -1.658918 -2.765101 0.262674 0
M  V30 26 H -1.484209 -1.947552 -1.323558 0
M  V30 27 H -1.797941 -4.300570 -1.921127 0
M  V30 28 H -0.614048 -4.821309 -0.678142 0
M  V30 29 H 0.079546 -4.383402 -3.256675 0
M  V30 30 H 1.219682 -4.247183 -1.887640 0
M  V30 31 H -0.452485 -2.135806 -3.088276 0
M  V30 32 H 1.981831 -1.457988 -1.540075 0
M  V30 33 H 0.360163 -0.636109 -1.740465 0
M  V30 34 H 0.270679 0.471383 -0.029713 0
M  V30 35 H 3.034503 1.537736 0.899963 0
M  V30 36 H 2.648838 4.682827 1.666393 0
M  V30 37 H 0.590413 5.909334 1.888022 0
M  V30 38 H -1.615880 4.754471 2.220533 0
M  V30 39 H -2.683405 2.401318 2.872262 0
M  V30 40 H 0.293679 -2.793134 4.693502 0
M  V30 41 H 1.794737 -1.986939 5.228479 0
M  V30 END ATOM
M  V30 BEGIN BOND
M  V30 1 3 1 2
M  V30 2 1 2 3
M  V30 3 2 3 4
M  V30 4 1 4 5
M  V30 5 1 5 6
M  V30 6 1 6 7
M  V30 7 1 7 8
M  V30 8 1 8 9
M  V30 9 1 9 10
M  V30 10 1 4 11
M  V30 11 2 11 12
M  V30 12 1 12 13
M  V30 13 2 13 14
M  V30 14 1 14 15
M  V30 15 1 14 16
M  V30 16 2 16 17
M  V30 17 1 17 18
M  V30 18 2 18 19
M  V30 19 1 19 20
M  V30 20 1 12 21
M  V30 21 2 21 22
M  V30 22 1 22 23
M  V30 23 1 22 3
M  V30 24 1 10 5
M  V30 25 1 19 13
M  V30 26 1 5 24
M  V30 27 1 6 25
M  V30 28 1 6 26
M  V30 29 1 7 27
M  V30 30 1 7 28
M  V30 31 1 8 29
M  V30 32 1 8 30
M  V30 33 1 9 31
M  V30 34 1 10 32
M  V30 35 1 10 33
M  V30 36 1 11 34
M  V30 37 1 15 35
M  V30 38 1 16 36
M  V30 39 1 17 37
M  V30 40 1 18 38
M  V30 41 1 20 39
M  V30 42 1 23 40
M  V30 43 1 23 41
M  V30 END BOND
M  V30 END CTAB
M  END
>  <Dataset>  (941) 
ChEMBL_Kinases

>  <Ligand_Instance>  (941) 
nan

>  <PDB_ID>  (941) 
nan

>  <Standardized_SMILES>  (941) 
N#Cc1c(C2CCCNC2)cc(-c2c(O)cccc2O)nc1N

>  <Name>  (941) 
nan

>  <Pocket>  (941) 
nan

>  <ATP_Site>  (941) 
nan

>  <Peripheral>  (941) 
nan

>  <Num_H_Atoms_ProtBoundConf>  (941) 
nan

>  <Num_Resolved_Atoms>  (941) 
nan

>  <Num_Not_Resolved_Atoms>  (941) 
nan

$$$$
CHEMBL1823630
     RDKit          3D

  0  0  0  0  0  0  0  0  0  0999 V3000
M  V30 BEGIN CTAB
M  V30 COUNTS 48 51 0 0 0
M  V30 BEGIN ATOM
M  V30 1 N -2.875576 -2.473538 2.417292 0
M  V30 2 C -1.675254 -2.724243 1.680231 0 CFG=2
M  V30 3 C -0.796425 -1.494391 1.720815 0
M  V30 4 N 0.427900 -1.723948 0.979665 0
M  V30 5 C 1.215539 -0.511490 1.061160 0
M  V30 6 N 2.016534 -0.173773 1.834507 0
M  V30 7 N 2.694723 0.927346 1.860675 0
M  V30 8 C 2.593690 1.792736 1.062954 0
M  V30 9 C 3.092726 3.160328 0.652453 0
M  V30 10 C 2.679741 3.868644 -0.426408 0
M  V30 11 C 3.259603 5.107421 -0.633395 0
M  V30 12 C 4.220908 5.554041 0.262432 0
M  V30 13 C 4.630791 4.820986 1.356367 0
M  V30 14 C 4.042517 3.567175 1.564092 0
M  V30 15 C 5.671052 5.596583 2.100354 0
M  V30 16 C 5.779481 6.829375 1.289941 0
M  V30 17 O 6.562772 7.794835 1.556243 0
M  V30 18 N 4.902438 6.800680 0.180588 0
M  V30 19 S 1.276671 1.047654 -0.062254 0
M  V30 20 C -1.972454 -2.996408 0.220628 0
M  V30 21 C -2.851398 -4.177670 0.028894 0
M  V30 22 C -4.239970 -4.006823 0.005362 0
M  V30 23 C -5.146162 -5.032194 -0.165896 0
M  V30 24 C -4.669623 -6.314608 -0.325634 0
M  V30 25 C -5.645233 -7.419877 -0.510196 0
M  V30 26 F -6.905042 -6.999393 -0.156195 0
M  V30 27 F -5.625834 -7.818521 -1.849769 0
M  V30 28 F -5.254126 -8.445683 0.296171 0
M  V30 29 C -3.308110 -6.525378 -0.308492 0
M  V30 30 C -2.405929 -5.484110 -0.135193 0
M  V30 31 H -3.214941 -1.496135 2.346434 0
M  V30 32 H -2.799945 -2.733610 3.432810 0
M  V30 33 H -1.124162 -3.546725 2.159439 0
M  V30 34 H -1.378665 -0.653536 1.272171 0
M  V30 35 H -0.537235 -1.205922 2.760696 0
M  V30 36 H 0.782175 -2.552823 0.452247 0
M  V30 37 H 1.923545 3.401762 -1.042005 0
M  V30 38 H 2.926697 5.669905 -1.496525 0
M  V30 39 H 4.401569 3.045457 2.429513 0
M  V30 40 H 5.326504 5.841498 3.136816 0
M  V30 41 H 6.599002 5.008752 2.123968 0
M  V30 42 H 4.817914 7.568192 -0.520161 0
M  V30 43 H -1.066576 -3.025767 -0.391824 0
M  V30 44 H -2.554588 -2.098124 -0.139047 0
M  V30 45 H -4.598058 -2.992531 0.132339 0
M  V30 46 H -6.183487 -4.771558 -0.165240 0
M  V30 47 H -2.934813 -7.535737 -0.434423 0
M  V30 48 H -1.336863 -5.636067 -0.119875 0
M  V30 END ATOM
M  V30 BEGIN BOND
M  V30 1 1 1 2
M  V30 2 1 2 3
M  V30 3 1 3 4
M  V30 4 1 4 5
M  V30 5 2 5 6
M  V30 6 1 6 7
M  V30 7 2 7 8
M  V30 8 1 8 9
M  V30 9 2 9 10
M  V30 10 1 10 11
M  V30 11 2 11 12
M  V30 12 1 12 13
M  V30 13 2 13 14
M  V30 14 1 13 15
M  V30 15 1 15 16
M  V30 16 2 16 17
M  V30 17 1 16 18
M  V30 18 1 8 19
M  V30 19 1 2 20
M  V30 20 1 20 21
M  V30 21 2 21 22
M  V30 22 1 22 23
M  V30 23 2 23 24
M  V30 24 1 24 25
M  V30 25 1 25 26
M  V30 26 1 25 27
M  V30 27 1 25 28
M  V30 28 1 24 29
M  V30 29 2 29 30
M  V30 30 1 19 5
M  V30 31 1 30 21
M  V30 32 1 14 9
M  V30 33 1 18 12
M  V30 34 1 1 31
M  V30 35 1 1 32
M  V30 36 1 2 33 CFG=1
M  V30 37 1 3 34
M  V30 38 1 3 35
M  V30 39 1 4 36
M  V30 40 1 10 37
M  V30 41 1 11 38
M  V30 42 1 14 39
M  V30 43 1 15 40
M  V30 44 1 15 41
M  V30 45 1 18 42
M  V30 46 1 20 43
M  V30 47 1 20 44
M  V30 48 1 22 45
M  V30 49 1 23 46
M  V30 50 1 29 47
M  V30 51 1 30 48
M  V30 END BOND
M  V30 END CTAB
M  END
>  <Dataset>  (942) 
ChEMBL_Kinases

>  <Ligand_Instance>  (942) 
nan

>  <PDB_ID>  (942) 
nan

>  <Standardized_SMILES>  (942) 
N[C@H](CNc1nnc(-c2ccc3c(c2)CC(=O)N3)s1)Cc1ccc(C(F)(F)F)cc1

>  <Name>  (942) 
nan

>  <Pocket>  (942) 
nan

>  <ATP_Site>  (942) 
nan

>  <Peripheral>  (942) 
nan

>  <Num_H_Atoms_ProtBoundConf>  (942) 
nan

>  <Num_Resolved_Atoms>  (942) 
nan

>  <Num_Not_Resolved_Atoms>  (942) 
nan

$$$$
CHEMBL1823651
     RDKit          3D

  0  0  0  0  0  0  0  0  0  0999 V3000
M  V30 BEGIN CTAB
M  V30 COUNTS 49 52 0 0 0
M  V30 BEGIN ATOM
M  V30 1 O 0.333123 -3.290660 0.687342 0
M  V30 2 C -0.386913 -2.278188 0.601050 0
M  V30 3 N 0.389334 -1.086615 0.539467 0
M  V30 4 C 1.721636 -0.613257 0.540208 0
M  V30 5 C 2.189721 -0.034477 -0.755982 0
M  V30 6 C 3.427776 -0.319536 -1.330572 0
M  V30 7 C 3.770045 0.257011 -2.519389 0
M  V30 8 C 2.940372 1.128916 -3.204407 0
M  V30 9 Cl 3.538324 1.766142 -4.699770 0
M  V30 10 C 1.724144 1.406358 -2.635866 0
M  V30 11 Cl 0.682638 2.520787 -3.527049 0
M  V30 12 C 1.337067 0.837498 -1.422125 0
M  V30 13 C 2.194389 0.240800 1.659254 0
M  V30 14 C 2.128644 -0.380574 3.011014 0
M  V30 15 C 1.860597 0.698727 4.052199 0
M  V30 16 N 2.719193 1.828733 3.871952 0
M  V30 17 C 2.619347 2.453162 2.575618 0
M  V30 18 C 1.717242 1.670465 1.620845 0
M  V30 19 C -1.820319 -2.205225 0.560817 0
M  V30 20 C -2.587683 -1.062170 0.464368 0
M  V30 21 C -3.965463 -1.119849 0.434354 0
M  V30 22 C -4.560036 -2.369535 0.504504 0
M  V30 23 C -5.955445 -2.459466 0.476249 0
M  V30 24 N -6.582289 -3.661186 0.542355 0
M  V30 25 C -5.840893 -4.791156 0.637279 0
M  V30 26 F -6.527586 -5.977714 0.700884 0
M  V30 27 C -4.461822 -4.773778 0.670054 0
M  V30 28 C -3.835287 -3.548199 0.602322 0
M  V30 29 C -2.441363 -3.426174 0.628365 0
M  V30 30 H -0.016466 -0.122187 0.464198 0
M  V30 31 H 2.336077 -1.556635 0.619268 0
M  V30 32 H 4.055709 -1.008125 -0.767034 0
M  V30 33 H 4.766129 -0.042189 -2.871882 0
M  V30 34 H 0.375932 1.134464 -1.094968 0
M  V30 35 H 3.289890 0.389753 1.485123 0
M  V30 36 H 3.090966 -0.859941 3.350894 0
M  V30 37 H 1.391231 -1.187721 3.114212 0
M  V30 38 H 2.109621 0.262980 5.042274 0
M  V30 39 H 0.795720 0.979815 4.092735 0
M  V30 40 H 2.416270 2.557606 4.564831 0
M  V30 41 H 2.325041 3.519024 2.606397 0
M  V30 42 H 3.640161 2.417959 2.121474 0
M  V30 43 H 1.937024 2.083091 0.619536 0
M  V30 44 H 0.716988 1.866884 1.989089 0
M  V30 45 H -2.055549 -0.126591 0.414002 0
M  V30 46 H -4.528524 -0.199575 0.358058 0
M  V30 47 H -6.563470 -1.569887 0.400923 0
M  V30 48 H -3.887607 -5.678661 0.745588 0
M  V30 49 H -1.930734 -4.378355 0.705543 0
M  V30 END ATOM
M  V30 BEGIN BOND
M  V30 1 2 1 2
M  V30 2 1 2 3
M  V30 3 1 3 4
M  V30 4 1 4 5
M  V30 5 2 5 6
M  V30 6 1 6 7
M  V30 7 2 7 8
M  V30 8 1 8 9
M  V30 9 1 8 10
M  V30 10 1 10 11
M  V30 11 2 10 12
M  V30 12 1 4 13
M  V30 13 1 13 14
M  V30 14 1 14 15
M  V30 15 1 15 16
M  V30 16 1 16 17
M  V30 17 1 17 18
M  V30 18 1 2 19
M  V30 19 2 19 20
M  V30 20 1 20 21
M  V30 21 2 21 22
M  V30 22 1 22 23
M  V30 23 2 23 24
M  V30 24 1 24 25
M  V30 25 1 25 26
M  V30 26 2 25 27
M  V30 27 1 27 28
M  V30 28 2 28 29
M  V30 29 1 12 5
M  V30 30 1 18 13
M  V30 31 1 29 19
M  V30 32 1 28 22
M  V30 33 1 3 30
M  V30 34 1 4 31
M  V30 35 1 6 32
M  V30 36 1 7 33
M  V30 37 1 12 34
M  V30 38 1 13 35
M  V30 39 1 14 36
M  V30 40 1 14 37
M  V30 41 1 15 38
M  V30 42 1 15 39
M  V30 43 1 16 40
M  V30 44 1 17 41
M  V30 45 1 17 42
M  V30 46 1 18 43
M  V30 47 1 18 44
M  V30 48 1 20 45
M  V30 49 1 21 46
M  V30 50 1 23 47
M  V30 51 1 27 48
M  V30 52 1 29 49
M  V30 END BOND
M  V30 END CTAB
M  END
>  <Dataset>  (943) 
ChEMBL_Kinases

>  <Ligand_Instance>  (943) 
nan

>  <PDB_ID>  (943) 
nan

>  <Standardized_SMILES>  (943) 
O=C(NC(c1ccc(Cl)c(Cl)c1)C1CCNCC1)c1ccc2cnc(F)cc2c1

>  <Name>  (943) 
nan

>  <Pocket>  (943) 
nan

>  <ATP_Site>  (943) 
nan

>  <Peripheral>  (943) 
nan

>  <Num_H_Atoms_ProtBoundConf>  (943) 
nan

>  <Num_Resolved_Atoms>  (943) 
nan

>  <Num_Not_Resolved_Atoms>  (943) 
nan

$$$$
CHEMBL1824432
     RDKit          3D

  0  0  0  0  0  0  0  0  0  0999 V3000
M  V30 BEGIN CTAB
M  V30 COUNTS 53 57 0 0 0
M  V30 BEGIN ATOM
M  V30 1 C 3.612607 -3.977004 3.505141 0
M  V30 2 C 2.762109 -2.759107 3.486692 0
M  V30 3 C 2.189571 -2.282062 4.670078 0
M  V30 4 C 1.406266 -1.145727 4.603626 0
M  V30 5 C 1.203937 -0.506545 3.381852 0
M  V30 6 C 1.793011 -1.021034 2.246650 0
M  V30 7 C 1.657122 -0.442712 0.914307 0
M  V30 8 N 2.002418 0.748076 0.391026 0
M  V30 9 N 1.650649 0.777914 -0.904884 0
M  V30 10 C 1.887474 1.931072 -1.755309 0
M  V30 11 C 0.690509 2.824238 -1.670866 0
M  V30 12 O 0.537567 3.933799 -2.280182 0
M  V30 13 N -0.418414 2.482756 -0.864648 0
M  V30 14 C -1.618983 3.219061 -0.680512 0
M  V30 15 C -2.615162 2.912934 -1.575692 0
M  V30 16 C -3.856745 3.532595 -1.547017 0
M  V30 17 C -4.050018 4.483164 -0.566261 0
M  V30 18 C -3.073263 4.814491 0.347177 0
M  V30 19 C -3.256243 5.803640 1.377921 0
M  V30 20 N -3.408515 6.588139 2.216906 0
M  V30 21 C -1.836205 4.180915 0.300048 0
M  V30 22 C 1.070493 -0.415668 -1.213277 0
M  V30 23 C 1.063559 -1.214253 -0.062846 0
M  V30 24 C 0.477783 -2.544623 -0.185917 0
M  V30 25 C 1.006852 -3.496860 -1.063653 0
M  V30 26 C 0.466782 -4.759223 -1.195231 0
M  V30 27 C -0.639405 -5.104634 -0.434474 0
M  V30 28 N -1.167000 -6.331928 -0.560508 0
M  V30 29 C -2.250265 -6.734323 0.154691 0
M  V30 30 C -2.814437 -5.815966 1.045993 0
M  V30 31 N -2.263809 -4.594451 1.150347 0
M  V30 32 C -1.193431 -4.178913 0.451924 0
M  V30 33 C -0.638354 -2.922533 0.568272 0
M  V30 34 N 2.551948 -2.128380 2.333137 0
M  V30 35 H 3.033869 -4.852946 3.181296 0
M  V30 36 H 4.512680 -3.841134 2.859317 0
M  V30 37 H 3.961731 -4.187894 4.534240 0
M  V30 38 H 2.380530 -2.818028 5.589612 0
M  V30 39 H 0.951242 -0.752316 5.493744 0
M  V30 40 H 0.593488 0.393906 3.278761 0
M  V30 41 H 2.775434 2.488460 -1.375563 0
M  V30 42 H 2.055176 1.618897 -2.807544 0
M  V30 43 H -0.444283 1.605754 -0.304573 0
M  V30 44 H -2.509811 2.170722 -2.366704 0
M  V30 45 H -4.676007 3.331977 -2.224577 0
M  V30 46 H -5.006582 5.012897 -0.484207 0
M  V30 47 H -1.005068 4.365559 0.965996 0
M  V30 48 H 0.709451 -0.592515 -2.238615 0
M  V30 49 H 1.878309 -3.247342 -1.673383 0
M  V30 50 H 0.863210 -5.499972 -1.865303 0
M  V30 51 H -2.636547 -7.734685 0.015523 0
M  V30 52 H -3.686965 -6.113310 1.634154 0
M  V30 53 H -1.094199 -2.218859 1.270918 0
M  V30 END ATOM
M  V30 BEGIN BOND
M  V30 1 1 1 2
M  V30 2 2 2 3
M  V30 3 1 3 4
M  V30 4 2 4 5
M  V30 5 1 5 6
M  V30 6 1 6 7
M  V30 7 2 7 8
M  V30 8 1 8 9
M  V30 9 1 9 10
M  V30 10 1 10 11
M  V30 11 2 11 12
M  V30 12 1 11 13
M  V30 13 1 13 14
M  V30 14 2 14 15
M  V30 15 1 15 16
M  V30 16 2 16 17
M  V30 17 1 17 18
M  V30 18 1 18 19
M  V30 19 3 19 20
M  V30 20 2 18 21
M  V30 21 1 9 22
M  V30 22 2 22 23
M  V30 23 1 23 24
M  V30 24 2 24 25
M  V30 25 1 25 26
M  V30 26 2 26 27
M  V30 27 1 27 28
M  V30 28 2 28 29
M  V30 29 1 29 30
M  V30 30 2 30 31
M  V30 31 1 31 32
M  V30 32 2 32 33
M  V30 33 2 6 34
M  V30 34 1 34 2
M  V30 35 1 23 7
M  V30 36 1 33 24
M  V30 37 1 21 14
M  V30 38 1 32 27
M  V30 39 1 1 35
M  V30 40 1 1 36
M  V30 41 1 1 37
M  V30 42 1 3 38
M  V30 43 1 4 39
M  V30 44 1 5 40
M  V30 45 1 10 41
M  V30 46 1 10 42
M  V30 47 1 13 43
M  V30 48 1 15 44
M  V30 49 1 16 45
M  V30 50 1 17 46
M  V30 51 1 21 47
M  V30 52 1 22 48
M  V30 53 1 25 49
M  V30 54 1 26 50
M  V30 55 1 29 51
M  V30 56 1 30 52
M  V30 57 1 33 53
M  V30 END BOND
M  V30 END CTAB
M  END
>  <Dataset>  (944) 
ChEMBL_Kinases

>  <Ligand_Instance>  (944) 
nan

>  <PDB_ID>  (944) 
nan

>  <Standardized_SMILES>  (944) 
Cc1cccc(-c2nn(CC(=O)Nc3cccc(C#N)c3)cc2-c2ccc3nccnc3c2)n1

>  <Name>  (944) 
nan

>  <Pocket>  (944) 
nan

>  <ATP_Site>  (944) 
nan

>  <Peripheral>  (944) 
nan

>  <Num_H_Atoms_ProtBoundConf>  (944) 
nan

>  <Num_Resolved_Atoms>  (944) 
nan

>  <Num_Not_Resolved_Atoms>  (944) 
nan

$$$$
CHEMBL182396
     RDKit          3D

  0  0  0  0  0  0  0  0  0  0999 V3000
M  V30 BEGIN CTAB
M  V30 COUNTS 69 73 0 0 0
M  V30 BEGIN ATOM
M  V30 1 C 1.393371 -3.708617 4.211425 0
M  V30 2 C 1.470668 -3.658291 2.721688 0
M  V30 3 C 1.707827 -4.794026 1.982046 0
M  V30 4 C 1.760301 -4.637548 0.611767 0
M  V30 5 C 1.596261 -3.449179 -0.074074 0
M  V30 6 N 1.662616 -3.373070 -1.494589 0
M  V30 7 C 0.395509 -3.550296 -2.105015 0
M  V30 8 O -0.544371 -3.738580 -1.288367 0
M  V30 9 C 0.194885 -3.517896 -3.537922 0
M  V30 10 C 1.181997 -3.336415 -4.481740 0
M  V30 11 C 0.850143 -3.323873 -5.831786 0
M  V30 12 C -0.459419 -3.489262 -6.287316 0
M  V30 13 C -1.431750 -3.668209 -5.352135 0
M  V30 14 N -2.790730 -3.841735 -5.791854 0
M  V30 15 C -3.945351 -3.933799 -4.909112 0
M  V30 16 C -5.084479 -3.260011 -5.661110 0
M  V30 17 O -5.468523 -3.977820 -6.769372 0
M  V30 18 C -4.421733 -4.681154 -7.343143 0
M  V30 19 C -3.104254 -3.943045 -7.202015 0
M  V30 20 C -1.102698 -3.680502 -4.023996 0
M  V30 21 C 1.364602 -2.366018 0.730515 0
M  V30 22 C 1.295074 -2.424524 2.106904 0
M  V30 23 N 1.047812 -1.225251 2.834151 0
M  V30 24 C 1.833756 -0.215775 3.404024 0
M  V30 25 O 3.089335 -0.359899 3.263208 0
M  V30 26 C 1.141383 0.872713 4.085537 0
M  V30 27 C -0.216691 1.064386 4.250324 0
M  V30 28 C -0.650185 2.185421 4.947330 0
M  V30 29 C 0.223239 3.138634 5.495827 0
M  V30 30 O -0.543470 4.089438 6.102649 0
M  V30 31 C -0.230033 5.236225 6.786633 0
M  V30 32 C 0.513353 6.277253 6.042266 0
M  V30 33 C 1.853097 6.564646 5.926676 0
M  V30 34 C 2.296503 7.607001 5.142563 0
M  V30 35 C 1.400925 8.391520 4.451088 0
M  V30 36 N 0.058640 8.152211 4.528522 0
M  V30 37 C -0.350284 7.110906 5.314538 0
M  V30 38 C 1.580583 2.914883 5.311445 0
M  V30 39 C 2.004986 1.802927 4.620206 0
M  V30 40 H 2.385844 -3.498513 4.662031 0
M  V30 41 H 0.693706 -2.948878 4.609713 0
M  V30 42 H 1.133042 -4.737916 4.517715 0
M  V30 43 H 1.846414 -5.761185 2.445938 0
M  V30 44 H 1.950224 -5.539909 0.010565 0
M  V30 45 H 2.510891 -3.207390 -2.107726 0
M  V30 46 H 2.196001 -3.208157 -4.126221 0
M  V30 47 H 1.714651 -3.174440 -6.474345 0
M  V30 48 H -0.592844 -3.461026 -7.343371 0
M  V30 49 H -4.197292 -4.950264 -4.599817 0
M  V30 50 H -3.713092 -3.287514 -4.021420 0
M  V30 51 H -5.941184 -3.180851 -4.972194 0
M  V30 52 H -4.798660 -2.222584 -5.944940 0
M  V30 53 H -4.653548 -4.793821 -8.442548 0
M  V30 54 H -4.366402 -5.664993 -6.834453 0
M  V30 55 H -3.261357 -2.896753 -7.564160 0
M  V30 56 H -2.305918 -4.451472 -7.786195 0
M  V30 57 H -1.902728 -3.827574 -3.286937 0
M  V30 58 H 1.225567 -1.389749 0.250608 0
M  V30 59 H 0.003416 -1.305456 2.831463 0
M  V30 60 H -0.819400 0.292716 3.802222 0
M  V30 61 H -1.754008 2.156552 4.969114 0
M  V30 62 H -1.172989 5.668276 7.221883 0
M  V30 63 H 0.428140 4.990252 7.668155 0
M  V30 64 H 2.458061 5.892328 6.516258 0
M  V30 65 H 3.363878 7.755763 5.112642 0
M  V30 66 H 1.821222 9.199105 3.849480 0
M  V30 67 H -1.442022 7.026134 5.290467 0
M  V30 68 H 2.139766 3.691139 5.766747 0
M  V30 69 H 3.086564 1.777035 4.565864 0
M  V30 END ATOM
M  V30 BEGIN BOND
M  V30 1 1 1 2
M  V30 2 2 2 3
M  V30 3 1 3 4
M  V30 4 2 4 5
M  V30 5 1 5 6
M  V30 6 1 6 7
M  V30 7 2 7 8
M  V30 8 1 7 9
M  V30 9 2 9 10
M  V30 10 1 10 11
M  V30 11 2 11 12
M  V30 12 1 12 13
M  V30 13 1 13 14
M  V30 14 1 14 15
M  V30 15 1 15 16
M  V30 16 1 16 17
M  V30 17 1 17 18
M  V30 18 1 18 19
M  V30 19 2 13 20
M  V30 20 1 5 21
M  V30 21 2 21 22
M  V30 22 1 22 23
M  V30 23 1 23 24
M  V30 24 2 24 25
M  V30 25 1 24 26
M  V30 26 2 26 27
M  V30 27 1 27 28
M  V30 28 2 28 29
M  V30 29 1 29 30
M  V30 30 1 30 31
M  V30 31 1 31 32
M  V30 32 2 32 33
M  V30 33 1 33 34
M  V30 34 2 34 35
M  V30 35 1 35 36
M  V30 36 2 36 37
M  V30 37 1 29 38
M  V30 38 2 38 39
M  V30 39 1 22 2
M  V30 40 1 39 26
M  V30 41 1 20 9
M  V30 42 1 37 32
M  V30 43 1 19 14
M  V30 44 1 1 40
M  V30 45 1 1 41
M  V30 46 1 1 42
M  V30 47 1 3 43
M  V30 48 1 4 44
M  V30 49 1 6 45
M  V30 50 1 10 46
M  V30 51 1 11 47
M  V30 52 1 12 48
M  V30 53 1 15 49
M  V30 54 1 15 50
M  V30 55 1 16 51
M  V30 56 1 16 52
M  V30 57 1 18 53
M  V30 58 1 18 54
M  V30 59 1 19 55
M  V30 60 1 19 56
M  V30 61 1 20 57
M  V30 62 1 21 58
M  V30 63 1 23 59
M  V30 64 1 27 60
M  V30 65 1 28 61
M  V30 66 1 31 62
M  V30 67 1 31 63
M  V30 68 1 33 64
M  V30 69 1 34 65
M  V30 70 1 35 66
M  V30 71 1 37 67
M  V30 72 1 38 68
M  V30 73 1 39 69
M  V30 END BOND
M  V30 END CTAB
M  END
>  <Dataset>  (945) 
ChEMBL_Kinases

>  <Ligand_Instance>  (945) 
nan

>  <PDB_ID>  (945) 
nan

>  <Standardized_SMILES>  (945) 
Cc1ccc(NC(=O)c2cccc(N3CCOCC3)c2)cc1NC(=O)c1ccc(OCc2cccnc2)cc1

>  <Name>  (945) 
nan

>  <Pocket>  (945) 
nan

>  <ATP_Site>  (945) 
nan

>  <Peripheral>  (945) 
nan

>  <Num_H_Atoms_ProtBoundConf>  (945) 
nan

>  <Num_Resolved_Atoms>  (945) 
nan

>  <Num_Not_Resolved_Atoms>  (945) 
nan

$$$$
CHEMBL182397
     RDKit          3D

  0  0  0  0  0  0  0  0  0  0999 V3000
M  V30 BEGIN CTAB
M  V30 COUNTS 50 53 0 0 0
M  V30 BEGIN ATOM
M  V30 1 C 1.033315 -5.843836 4.383918 0
M  V30 2 O 1.006599 -5.281550 3.108983 0
M  V30 3 C 1.530517 -4.067263 2.738776 0
M  V30 4 C 2.159833 -3.269836 3.679990 0
M  V30 5 C 2.708273 -2.025579 3.348955 0
M  V30 6 N 3.327808 -1.240624 4.240882 0
M  V30 7 C 3.847471 -0.037522 3.844073 0
M  V30 8 N 3.732256 0.356247 2.541155 0
M  V30 9 C 3.113456 -0.429247 1.651975 0
M  V30 10 N 3.050553 0.079971 0.303551 0
M  V30 11 C 2.188049 1.142480 -0.055650 0
M  V30 12 C 2.837097 2.263933 -0.589459 0
M  V30 13 C 2.148111 3.408668 -0.984004 0
M  V30 14 C 0.775985 3.474815 -0.858606 0
M  V30 15 C 0.116920 2.384684 -0.337040 0
M  V30 16 N -1.298456 2.241241 -0.114888 0
M  V30 17 C -1.940717 1.726052 -1.271191 0
M  V30 18 O -1.232310 1.481629 -2.283375 0
M  V30 19 C -3.367633 1.466877 -1.348149 0
M  V30 20 C -3.866180 1.041477 -2.580203 0
M  V30 21 C -5.221060 0.791399 -2.604608 0
M  V30 22 C -6.094417 0.921875 -1.548388 0
M  V30 23 C -5.574470 1.348332 -0.326458 0
M  V30 24 C -4.203868 1.618007 -0.243297 0
M  V30 25 C 0.818255 1.261470 0.047007 0
M  V30 26 F 0.219294 0.147627 0.574129 0
M  V30 27 C 2.584859 -1.641662 2.033966 0
M  V30 28 C 1.960961 -2.427577 1.090778 0
M  V30 29 C 1.425035 -3.651126 1.428439 0
M  V30 30 O 0.784893 -4.495913 0.532960 0
M  V30 31 C 0.613890 -4.188061 -0.839610 0
M  V30 32 H 1.923916 -6.520525 4.443789 0
M  V30 33 H 0.130672 -6.517508 4.471730 0
M  V30 34 H 1.005301 -5.139753 5.224047 0
M  V30 35 H 2.255346 -3.582191 4.730700 0
M  V30 36 H 4.356234 0.607979 4.576542 0
M  V30 37 H 3.661344 -0.365675 -0.402730 0
M  V30 38 H 3.920062 2.274802 -0.713130 0
M  V30 39 H 2.631403 4.269674 -1.394080 0
M  V30 40 H 0.126661 4.293840 -1.121763 0
M  V30 41 H -1.852979 2.460402 0.742418 0
M  V30 42 H -3.233360 0.919959 -3.441220 0
M  V30 43 H -5.626788 0.457774 -3.561903 0
M  V30 44 H -7.146131 0.687448 -1.715137 0
M  V30 45 H -6.252846 1.448596 0.500273 0
M  V30 46 H -3.817786 1.948268 0.715971 0
M  V30 47 H 1.888915 -2.088541 0.075129 0
M  V30 48 H 0.105323 -3.207533 -0.900591 0
M  V30 49 H 0.024561 -5.025445 -1.274707 0
M  V30 50 H 1.617353 -4.119997 -1.350681 0
M  V30 END ATOM
M  V30 BEGIN BOND
M  V30 1 1 1 2
M  V30 2 1 2 3
M  V30 3 2 3 4
M  V30 4 1 4 5
M  V30 5 2 5 6
M  V30 6 1 6 7
M  V30 7 2 7 8
M  V30 8 1 8 9
M  V30 9 1 9 10
M  V30 10 1 10 11
M  V30 11 2 11 12
M  V30 12 1 12 13
M  V30 13 2 13 14
M  V30 14 1 14 15
M  V30 15 1 15 16
M  V30 16 1 16 17
M  V30 17 2 17 18
M  V30 18 1 17 19
M  V30 19 2 19 20
M  V30 20 1 20 21
M  V30 21 2 21 22
M  V30 22 1 22 23
M  V30 23 2 23 24
M  V30 24 2 15 25
M  V30 25 1 25 26
M  V30 26 2 9 27
M  V30 27 1 27 28
M  V30 28 2 28 29
M  V30 29 1 29 30
M  V30 30 1 30 31
M  V30 31 1 29 3
M  V30 32 1 27 5
M  V30 33 1 25 11
M  V30 34 1 24 19
M  V30 35 1 1 32
M  V30 36 1 1 33
M  V30 37 1 1 34
M  V30 38 1 4 35
M  V30 39 1 7 36
M  V30 40 1 10 37
M  V30 41 1 12 38
M  V30 42 1 13 39
M  V30 43 1 14 40
M  V30 44 1 16 41
M  V30 45 1 20 42
M  V30 46 1 21 43
M  V30 47 1 22 44
M  V30 48 1 23 45
M  V30 49 1 24 46
M  V30 50 1 28 47
M  V30 51 1 31 48
M  V30 52 1 31 49
M  V30 53 1 31 50
M  V30 END BOND
M  V30 END CTAB
M  END
>  <Dataset>  (946) 
ChEMBL_Kinases

>  <Ligand_Instance>  (946) 
nan

>  <PDB_ID>  (946) 
nan

>  <Standardized_SMILES>  (946) 
COc1cc2ncnc(Nc3cccc(NC(=O)c4ccccc4)c3F)c2cc1OC

>  <Name>  (946) 
nan

>  <Pocket>  (946) 
nan

>  <ATP_Site>  (946) 
nan

>  <Peripheral>  (946) 
nan

>  <Num_H_Atoms_ProtBoundConf>  (946) 
nan

>  <Num_Resolved_Atoms>  (946) 
nan

>  <Num_Not_Resolved_Atoms>  (946) 
nan

$$$$
CHEMBL182407
     RDKit          3D

  0  0  0  0  0  0  0  0  0  0999 V3000
M  V30 BEGIN CTAB
M  V30 COUNTS 51 54 0 0 0
M  V30 BEGIN ATOM
M  V30 1 N 1.677493 -4.639424 3.478412 0
M  V30 2 C 1.254124 -3.610462 3.154282 0
M  V30 3 C 0.728006 -2.324337 2.735093 0
M  V30 4 C 1.436890 -1.632041 1.764744 0
M  V30 5 C 2.707856 -2.139531 1.131949 0
M  V30 6 C 2.348876 -2.930947 -0.066107 0
M  V30 7 C 3.282054 -2.767952 -1.236895 0
M  V30 8 C 3.570051 -1.294279 -1.386619 0
M  V30 9 N 4.340728 -0.906631 -0.249549 0
M  V30 10 C 3.764126 -1.121142 1.024754 0
M  V30 11 C 0.916389 -0.420578 1.388600 0
M  V30 12 C -0.246357 0.095520 1.934727 0
M  V30 13 C -0.843205 1.379247 1.570137 0
M  V30 14 C -0.461320 2.503915 2.272568 0
M  V30 15 O 0.458644 2.486275 3.307313 0
M  V30 16 C -0.987338 3.751559 1.979263 0
M  V30 17 C -1.911967 3.873831 0.964466 0
M  V30 18 C -2.291920 2.748853 0.264142 0
M  V30 19 C -1.780530 1.485757 0.537201 0
M  V30 20 O -2.156090 0.341023 -0.162921 0
M  V30 21 C -3.108860 0.521173 -1.195560 0
M  V30 22 C -3.440244 -0.783113 -1.884269 0
M  V30 23 C -4.033654 -1.851452 -0.928962 0
M  V30 24 C -2.710896 -2.021213 -1.604253 0
M  V30 25 N -0.878970 -0.642847 2.876988 0
M  V30 26 C -0.419001 -1.837687 3.288048 0
M  V30 27 N -1.094462 -2.605921 4.281377 0
M  V30 28 H 3.071939 -2.885684 1.901541 0
M  V30 29 H 1.335567 -2.642919 -0.470053 0
M  V30 30 H 2.270269 -4.027079 0.119216 0
M  V30 31 H 2.780946 -3.077837 -2.177174 0
M  V30 32 H 4.243908 -3.281882 -1.134269 0
M  V30 33 H 2.682693 -0.697547 -1.583905 0
M  V30 34 H 4.240006 -1.180425 -2.279080 0
M  V30 35 H 4.767009 0.042176 -0.328584 0
M  V30 36 H 4.604717 -1.239084 1.751769 0
M  V30 37 H 3.304748 -0.134997 1.333034 0
M  V30 38 H 1.395126 0.190695 0.642338 0
M  V30 39 H 0.402686 3.082896 4.116737 0
M  V30 40 H -0.753348 4.687247 2.469137 0
M  V30 41 H -2.384123 4.803237 0.655284 0
M  V30 42 H -3.024608 2.794000 -0.552461 0
M  V30 43 H -2.640358 1.199902 -1.942794 0
M  V30 44 H -4.002832 1.002006 -0.761301 0
M  V30 45 H -4.007706 -0.681848 -2.822191 0
M  V30 46 H -4.897693 -2.439858 -1.302152 0
M  V30 47 H -4.015443 -1.636485 0.148846 0
M  V30 48 H -1.797672 -1.980327 -1.008532 0
M  V30 49 H -2.706786 -2.769175 -2.440587 0
M  V30 50 H -1.528529 -3.442596 3.829010 0
M  V30 51 H -1.213237 -2.468722 5.321904 0
M  V30 END ATOM
M  V30 BEGIN BOND
M  V30 1 3 1 2
M  V30 2 1 2 3
M  V30 3 2 3 4
M  V30 4 1 4 5
M  V30 5 1 5 6
M  V30 6 1 6 7
M  V30 7 1 7 8
M  V30 8 1 8 9
M  V30 9 1 9 10
M  V30 10 1 4 11
M  V30 11 2 11 12
M  V30 12 1 12 13
M  V30 13 2 13 14
M  V30 14 1 14 15
M  V30 15 1 14 16
M  V30 16 2 16 17
M  V30 17 1 17 18
M  V30 18 2 18 19
M  V30 19 1 19 20
M  V30 20 1 20 21
M  V30 21 1 21 22
M  V30 22 1 22 23
M  V30 23 1 23 24
M  V30 24 1 12 25
M  V30 25 2 25 26
M  V30 26 1 26 27
M  V30 27 1 26 3
M  V30 28 1 10 5
M  V30 29 1 19 13
M  V30 30 1 24 22
M  V30 31 1 5 28
M  V30 32 1 6 29
M  V30 33 1 6 30
M  V30 34 1 7 31
M  V30 35 1 7 32
M  V30 36 1 8 33
M  V30 37 1 8 34
M  V30 38 1 9 35
M  V30 39 1 10 36
M  V30 40 1 10 37
M  V30 41 1 11 38
M  V30 42 1 15 39
M  V30 43 1 16 40
M  V30 44 1 17 41
M  V30 45 1 18 42
M  V30 46 1 21 43
M  V30 47 1 21 44
M  V30 48 1 22 45
M  V30 49 1 23 46
M  V30 50 1 23 47
M  V30 51 1 24 48
M  V30 52 1 24 49
M  V30 53 1 27 50
M  V30 54 1 27 51
M  V30 END BOND
M  V30 END CTAB
M  END
>  <Dataset>  (947) 
ChEMBL_Kinases

>  <Ligand_Instance>  (947) 
nan

>  <PDB_ID>  (947) 
nan

>  <Standardized_SMILES>  (947) 
N#Cc1c(C2CCCNC2)cc(-c2c(O)cccc2OCC2CC2)nc1N

>  <Name>  (947) 
nan

>  <Pocket>  (947) 
nan

>  <ATP_Site>  (947) 
nan

>  <Peripheral>  (947) 
nan

>  <Num_H_Atoms_ProtBoundConf>  (947) 
nan

>  <Num_Resolved_Atoms>  (947) 
nan

>  <Num_Not_Resolved_Atoms>  (947) 
nan

$$$$
CHEMBL182417
     RDKit          3D

  0  0  0  0  0  0  0  0  0  0999 V3000
M  V30 BEGIN CTAB
M  V30 COUNTS 42 44 0 0 0
M  V30 BEGIN ATOM
M  V30 1 N 4.031393 -3.672822 -0.129421 0
M  V30 2 C 3.325133 -2.808902 0.140631 0
M  V30 3 C 2.427998 -1.740531 0.460798 0
M  V30 4 C 1.163294 -1.557063 -0.124984 0
M  V30 5 C 0.866101 -2.580290 -1.111107 0
M  V30 6 C 0.347503 -3.893715 -0.624134 0
M  V30 7 C -0.818333 -3.621837 0.297201 0
M  V30 8 C -1.880504 -2.838972 -0.416300 0
M  V30 9 N -1.455493 -2.022017 -1.455866 0
M  V30 10 C -0.207387 -2.080251 -2.047496 0
M  V30 11 C 0.455726 -0.466186 0.321807 0
M  V30 12 C 0.864682 0.430653 1.261190 0
M  V30 13 C 0.147974 1.564208 1.736416 0
M  V30 14 C 0.768376 2.355744 2.714945 0
M  V30 15 N 2.079337 2.057355 3.237258 0
M  V30 16 C 0.176935 3.478846 3.254356 0
M  V30 17 C -1.076142 3.891453 2.854995 0
M  V30 18 C -1.707986 3.129621 1.893160 0
M  V30 19 C -1.096124 2.029538 1.383580 0
M  V30 20 O -1.793910 1.345206 0.444499 0
M  V30 21 N 2.084048 0.189491 1.775770 0
M  V30 22 C 2.864015 -0.844040 1.415333 0
M  V30 23 N 4.135735 -0.970135 2.050169 0
M  V30 24 H 1.782989 -2.821202 -1.746368 0
M  V30 25 H 1.082892 -4.572364 -0.216916 0
M  V30 26 H -0.097528 -4.445912 -1.481027 0
M  V30 27 H -1.182595 -4.605290 0.658773 0
M  V30 28 H -0.415292 -3.088245 1.182454 0
M  V30 29 H -2.475663 -2.301859 0.354194 0
M  V30 30 H -2.596174 -3.594126 -0.837225 0
M  V30 31 H -2.076464 -1.227635 -1.703145 0
M  V30 32 H -0.261760 -2.832987 -2.895178 0
M  V30 33 H 0.093018 -1.147642 -2.567520 0
M  V30 34 H -0.482504 -0.354644 -0.141579 0
M  V30 35 H 2.779876 2.773180 2.883418 0
M  V30 36 H 2.486612 1.313020 3.870750 0
M  V30 37 H 0.667261 4.076181 4.005570 0
M  V30 38 H -1.515895 4.774100 3.293374 0
M  V30 39 H -2.689923 3.458343 1.584441 0
M  V30 40 H -2.052507 1.682177 -0.483377 0
M  V30 41 H 5.141571 -0.756282 1.982181 0
M  V30 42 H 3.974607 -1.496713 2.956095 0
M  V30 END ATOM
M  V30 BEGIN BOND
M  V30 1 3 1 2
M  V30 2 1 2 3
M  V30 3 2 3 4
M  V30 4 1 4 5
M  V30 5 1 5 6
M  V30 6 1 6 7
M  V30 7 1 7 8
M  V30 8 1 8 9
M  V30 9 1 9 10
M  V30 10 1 4 11
M  V30 11 2 11 12
M  V30 12 1 12 13
M  V30 13 2 13 14
M  V30 14 1 14 15
M  V30 15 1 14 16
M  V30 16 2 16 17
M  V30 17 1 17 18
M  V30 18 2 18 19
M  V30 19 1 19 20
M  V30 20 1 12 21
M  V30 21 2 21 22
M  V30 22 1 22 23
M  V30 23 1 22 3
M  V30 24 1 10 5
M  V30 25 1 19 13
M  V30 26 1 5 24
M  V30 27 1 6 25
M  V30 28 1 6 26
M  V30 29 1 7 27
M  V30 30 1 7 28
M  V30 31 1 8 29
M  V30 32 1 8 30
M  V30 33 1 9 31
M  V30 34 1 10 32
M  V30 35 1 10 33
M  V30 36 1 11 34
M  V30 37 1 15 35
M  V30 38 1 15 36
M  V30 39 1 16 37
M  V30 40 1 17 38
M  V30 41 1 18 39
M  V30 42 1 20 40
M  V30 43 1 23 41
M  V30 44 1 23 42
M  V30 END BOND
M  V30 END CTAB
M  END
>  <Dataset>  (948) 
ChEMBL_Kinases

>  <Ligand_Instance>  (948) 
nan

>  <PDB_ID>  (948) 
nan

>  <Standardized_SMILES>  (948) 
N#Cc1c(C2CCCNC2)cc(-c2c(N)cccc2O)nc1N

>  <Name>  (948) 
nan

>  <Pocket>  (948) 
nan

>  <ATP_Site>  (948) 
nan

>  <Peripheral>  (948) 
nan

>  <Num_H_Atoms_ProtBoundConf>  (948) 
nan

>  <Num_Resolved_Atoms>  (948) 
nan

>  <Num_Not_Resolved_Atoms>  (948) 
nan

$$$$
CHEMBL182419
     RDKit          3D

  0  0  0  0  0  0  0  0  0  0999 V3000
M  V30 BEGIN CTAB
M  V30 COUNTS 39 42 0 0 0
M  V30 BEGIN ATOM
M  V30 1 O -0.392280 -2.328631 2.535512 0
M  V30 2 C -1.381341 -2.269520 1.729176 0
M  V30 3 N -1.047281 -2.707133 0.422458 0
M  V30 4 C 0.338870 -3.093003 0.406835 0
M  V30 5 N 0.815058 -4.340031 0.672097 0
M  V30 6 C 2.154427 -4.535092 0.613869 0
M  V30 7 N 3.020221 -3.539293 0.303812 0
M  V30 8 C 2.597413 -2.282165 0.031885 0
M  V30 9 O 3.193611 -1.151742 -0.289612 0
M  V30 10 C 2.310155 -0.199346 -0.451226 0
M  V30 11 C 2.619977 1.181967 -0.811069 0
M  V30 12 C 3.932803 1.560565 -1.006470 0
M  V30 13 C 4.254175 2.869421 -1.349642 0
M  V30 14 C 3.205275 3.756399 -1.482378 0
M  V30 15 N 1.925685 3.377363 -1.289490 0
M  V30 16 C 1.597321 2.105609 -0.954776 0
M  V30 17 C 1.047450 -0.710539 -0.227546 0
M  V30 18 C 1.225912 -2.060801 0.086261 0
M  V30 19 C -2.731242 -1.787240 2.147078 0
M  V30 20 C -3.151956 -0.564027 1.333411 0
M  V30 21 C -2.707796 0.635811 2.127047 0
M  V30 22 C -1.920006 0.090494 3.292790 0
M  V30 23 C -2.604307 -1.234702 3.551108 0
M  V30 24 H -1.812243 -2.689840 -0.308653 0
M  V30 25 H 2.476441 -5.547189 0.834240 0
M  V30 26 H 4.708995 0.838212 -0.892222 0
M  V30 27 H 5.294623 3.113112 -1.490810 0
M  V30 28 H 3.470471 4.781182 -1.752149 0
M  V30 29 H 0.581663 1.776008 -0.794683 0
M  V30 30 H 0.122298 -0.180232 -0.283374 0
M  V30 31 H -3.491272 -2.584224 2.132264 0
M  V30 32 H -2.591913 -0.584651 0.391284 0
M  V30 33 H -4.267181 -0.569072 1.178992 0
M  V30 34 H -3.635190 1.110669 2.543575 0
M  V30 35 H -2.097947 1.339878 1.526162 0
M  V30 36 H -0.895877 -0.077814 2.934462 0
M  V30 37 H -1.963939 0.762575 4.170437 0
M  V30 38 H -3.611387 -1.002143 3.957544 0
M  V30 39 H -2.002720 -1.901641 4.207916 0
M  V30 END ATOM
M  V30 BEGIN BOND
M  V30 1 2 1 2
M  V30 2 1 2 3
M  V30 3 1 3 4
M  V30 4 2 4 5
M  V30 5 1 5 6
M  V30 6 2 6 7
M  V30 7 1 7 8
M  V30 8 1 8 9
M  V30 9 1 9 10
M  V30 10 1 10 11
M  V30 11 2 11 12
M  V30 12 1 12 13
M  V30 13 2 13 14
M  V30 14 1 14 15
M  V30 15 2 15 16
M  V30 16 2 10 17
M  V30 17 1 17 18
M  V30 18 1 2 19
M  V30 19 1 19 20
M  V30 20 1 20 21
M  V30 21 1 21 22
M  V30 22 1 22 23
M  V30 23 1 18 4
M  V30 24 1 23 19
M  V30 25 2 18 8
M  V30 26 1 16 11
M  V30 27 1 3 24
M  V30 28 1 6 25
M  V30 29 1 12 26
M  V30 30 1 13 27
M  V30 31 1 14 28
M  V30 32 1 16 29
M  V30 33 1 17 30
M  V30 34 1 19 31
M  V30 35 1 20 32
M  V30 36 1 20 33
M  V30 37 1 21 34
M  V30 38 1 21 35
M  V30 39 1 22 36
M  V30 40 1 22 37
M  V30 41 1 23 38
M  V30 42 1 23 39
M  V30 END BOND
M  V30 END CTAB
M  END
>  <Dataset>  (949) 
ChEMBL_Kinases

>  <Ligand_Instance>  (949) 
nan

>  <PDB_ID>  (949) 
nan

>  <Standardized_SMILES>  (949) 
O=C(Nc1ncnc2oc(-c3cccnc3)cc12)C1CCCC1

>  <Name>  (949) 
nan

>  <Pocket>  (949) 
nan

>  <ATP_Site>  (949) 
nan

>  <Peripheral>  (949) 
nan

>  <Num_H_Atoms_ProtBoundConf>  (949) 
nan

>  <Num_Resolved_Atoms>  (949) 
nan

>  <Num_Not_Resolved_Atoms>  (949) 
nan

$$$$
CHEMBL1824226
     RDKit          3D

  0  0  0  0  0  0  0  0  0  0999 V3000
M  V30 BEGIN CTAB
M  V30 COUNTS 52 56 0 0 0
M  V30 BEGIN ATOM
M  V30 1 C 1.912453 -4.536676 4.306742 0
M  V30 2 C 1.251343 -3.235417 4.088481 0
M  V30 3 C 0.483801 -2.605746 5.047463 0
M  V30 4 C -0.076316 -1.391361 4.707314 0
M  V30 5 C 0.163857 -0.886510 3.440206 0
M  V30 6 C 0.938099 -1.538050 2.495467 0
M  V30 7 C 1.097007 -0.875705 1.205323 0
M  V30 8 N 1.630150 0.319774 0.827922 0
M  V30 9 N 1.513427 0.426489 -0.503642 0
M  V30 10 C 1.974915 1.574134 -1.269685 0
M  V30 11 C 0.911542 2.590707 -1.393056 0
M  V30 12 O 0.151802 2.481442 -2.385714 0
M  V30 13 N 0.697557 3.656938 -0.485108 0
M  V30 14 C -0.277560 4.679793 -0.499989 0
M  V30 15 C -0.267095 5.608917 0.513377 0
M  V30 16 C -1.185645 6.632724 0.565370 0
M  V30 17 C -2.165354 6.784174 -0.392721 0
M  V30 18 C -2.200114 5.866642 -1.421330 0
M  V30 19 C -1.264193 4.855798 -1.439527 0
M  V30 20 C 0.910008 -0.680615 -1.020070 0
M  V30 21 C 0.639054 -1.521426 0.066974 0
M  V30 22 C -0.014782 -2.789657 -0.239856 0
M  V30 23 C -1.279784 -2.685901 -0.813401 0
M  V30 24 C -2.029930 -3.793196 -1.163536 0
M  V30 25 C -1.511744 -5.054898 -0.938926 0
M  V30 26 N -2.185498 -6.195244 -1.254721 0
M  V30 27 C -1.631375 -7.408282 -1.013556 0
M  V30 28 C -0.377262 -7.536435 -0.445205 0
M  V30 29 N 0.290849 -6.397031 -0.131995 0
M  V30 30 C -0.248438 -5.177283 -0.366310 0
M  V30 31 C 0.474419 -4.065170 -0.028681 0
M  V30 32 N 1.481777 -2.731904 2.846530 0
M  V30 33 H 1.370130 -5.390231 3.819074 0
M  V30 34 H 1.882465 -4.754059 5.385085 0
M  V30 35 H 2.948793 -4.512354 3.926622 0
M  V30 36 H 0.364025 -3.099661 6.012442 0
M  V30 37 H -0.682138 -0.878680 5.443278 0
M  V30 38 H -0.323656 0.085656 3.261329 0
M  V30 39 H 2.893998 1.967146 -0.794689 0
M  V30 40 H 2.290640 1.220092 -2.292098 0
M  V30 41 H 1.398249 3.624984 0.286992 0
M  V30 42 H 0.493745 5.533677 1.303606 0
M  V30 43 H -1.108086 7.316437 1.390687 0
M  V30 44 H -2.894057 7.581731 -0.366654 0
M  V30 45 H -2.952217 5.962636 -2.178768 0
M  V30 46 H -1.344576 4.181177 -2.258392 0
M  V30 47 H 0.726400 -0.780583 -2.086208 0
M  V30 48 H -1.730979 -1.710811 -1.009676 0
M  V30 49 H -3.013001 -3.689387 -1.608973 0
M  V30 50 H -2.215547 -8.293303 -1.286542 0
M  V30 51 H 0.009244 -8.524738 -0.278137 0
M  V30 52 H 1.443940 -4.107292 0.410572 0
M  V30 END ATOM
M  V30 BEGIN BOND
M  V30 1 1 1 2
M  V30 2 2 2 3
M  V30 3 1 3 4
M  V30 4 2 4 5
M  V30 5 1 5 6
M  V30 6 1 6 7
M  V30 7 2 7 8
M  V30 8 1 8 9
M  V30 9 1 9 10
M  V30 10 1 10 11
M  V30 11 2 11 12
M  V30 12 1 11 13
M  V30 13 1 13 14
M  V30 14 2 14 15
M  V30 15 1 15 16
M  V30 16 2 16 17
M  V30 17 1 17 18
M  V30 18 2 18 19
M  V30 19 1 9 20
M  V30 20 2 20 21
M  V30 21 1 21 22
M  V30 22 2 22 23
M  V30 23 1 23 24
M  V30 24 2 24 25
M  V30 25 1 25 26
M  V30 26 2 26 27
M  V30 27 1 27 28
M  V30 28 2 28 29
M  V30 29 1 29 30
M  V30 30 2 30 31
M  V30 31 2 6 32
M  V30 32 1 32 2
M  V30 33 1 21 7
M  V30 34 1 31 22
M  V30 35 1 19 14
M  V30 36 1 30 25
M  V30 37 1 1 33
M  V30 38 1 1 34
M  V30 39 1 1 35
M  V30 40 1 3 36
M  V30 41 1 4 37
M  V30 42 1 5 38
M  V30 43 1 10 39
M  V30 44 1 10 40
M  V30 45 1 13 41
M  V30 46 1 15 42
M  V30 47 1 16 43
M  V30 48 1 17 44
M  V30 49 1 18 45
M  V30 50 1 19 46
M  V30 51 1 20 47
M  V30 52 1 23 48
M  V30 53 1 24 49
M  V30 54 1 27 50
M  V30 55 1 28 51
M  V30 56 1 31 52
M  V30 END BOND
M  V30 END CTAB
M  END
>  <Dataset>  (950) 
ChEMBL_Kinases

>  <Ligand_Instance>  (950) 
nan

>  <PDB_ID>  (950) 
nan

>  <Standardized_SMILES>  (950) 
Cc1cccc(-c2nn(CC(=O)Nc3ccccc3)cc2-c2ccc3nccnc3c2)n1

>  <Name>  (950) 
nan

>  <Pocket>  (950) 
nan

>  <ATP_Site>  (950) 
nan

>  <Peripheral>  (950) 
nan

>  <Num_H_Atoms_ProtBoundConf>  (950) 
nan

>  <Num_Resolved_Atoms>  (950) 
nan

>  <Num_Not_Resolved_Atoms>  (950) 
nan

$$$$
CHEMBL1824331
     RDKit          3D

  0  0  0  0  0  0  0  0  0  0999 V3000
M  V30 BEGIN CTAB
M  V30 COUNTS 43 45 0 0 0
M  V30 BEGIN ATOM
M  V30 1 C -3.199980 -4.584569 1.377258 0
M  V30 2 O -3.384743 -3.967865 0.143737 0
M  V30 3 C -2.401525 -3.428266 -0.639613 0
M  V30 4 C -1.079224 -3.455909 -0.245203 0
M  V30 5 C -0.131226 -2.901771 -1.069734 0
M  V30 6 C -0.370216 -2.301745 -2.287332 0
M  V30 7 C 0.693981 -1.706306 -3.124895 0
M  V30 8 N 0.871570 -0.285297 -2.918502 0
M  V30 9 C 1.431530 0.463082 -1.948187 0
M  V30 10 O 1.825550 -0.489211 -1.133947 0
M  V30 11 N 2.007086 1.230608 -0.950699 0
M  V30 12 C 2.682674 1.431936 0.259458 0
M  V30 13 C 1.827234 1.481889 1.366101 0
M  V30 14 C 2.367358 1.675270 2.622176 0
M  V30 15 C 1.483327 1.716018 3.778734 0
M  V30 16 C 1.414266 2.586712 4.837628 0
M  V30 17 C 0.442438 2.388977 5.830338 0
M  V30 18 C -0.441323 1.305713 5.725504 0
M  V30 19 N -0.359383 0.462208 4.681740 0
M  V30 20 C 0.586169 0.652227 3.712611 0
M  V30 21 F 0.462117 -0.335760 2.782782 0
M  V30 22 C 3.753254 1.804990 2.661796 0
M  V30 23 C 4.601651 1.755968 1.573815 0
M  V30 24 N 4.015305 1.562659 0.351349 0
M  V30 25 C -1.680299 -2.288669 -2.650450 0
M  V30 26 C -2.690572 -2.837701 -1.851876 0
M  V30 27 H -2.448949 -5.425831 1.341539 0
M  V30 28 H -4.199631 -4.971365 1.720233 0
M  V30 29 H -2.889057 -3.831953 2.131533 0
M  V30 30 H -0.878942 -3.921108 0.691744 0
M  V30 31 H 0.873205 -2.981285 -0.672374 0
M  V30 32 H 0.468030 -1.862549 -4.195601 0
M  V30 33 H 1.652937 -2.231110 -2.858438 0
M  V30 34 H 0.656019 0.656082 -3.407708 0
M  V30 35 H 1.680062 1.961607 -1.616064 0
M  V30 36 H 0.754079 1.380755 1.298564 0
M  V30 37 H 2.156810 3.359046 4.770915 0
M  V30 38 H 0.464615 3.130770 6.627811 0
M  V30 39 H -1.138810 1.264208 6.554111 0
M  V30 40 H 4.166003 1.957639 3.657052 0
M  V30 41 H 5.653779 1.863523 1.718122 0
M  V30 42 H -1.986262 -1.836693 -3.604615 0
M  V30 43 H -3.735938 -2.826306 -2.152622 0
M  V30 END ATOM
M  V30 BEGIN BOND
M  V30 1 1 1 2
M  V30 2 1 2 3
M  V30 3 2 3 4
M  V30 4 1 4 5
M  V30 5 2 5 6
M  V30 6 1 6 7
M  V30 7 1 7 8
M  V30 8 1 8 9
M  V30 9 2 9 10
M  V30 10 1 9 11
M  V30 11 1 11 12
M  V30 12 2 12 13
M  V30 13 1 13 14
M  V30 14 1 14 15
M  V30 15 2 15 16
M  V30 16 1 16 17
M  V30 17 2 17 18
M  V30 18 1 18 19
M  V30 19 2 19 20
M  V30 20 1 20 21
M  V30 21 2 14 22
M  V30 22 1 22 23
M  V30 23 2 23 24
M  V30 24 1 6 25
M  V30 25 2 25 26
M  V30 26 1 26 3
M  V30 27 1 24 12
M  V30 28 1 20 15
M  V30 29 1 1 27
M  V30 30 1 1 28
M  V30 31 1 1 29
M  V30 32 1 4 30
M  V30 33 1 5 31
M  V30 34 1 7 32
M  V30 35 1 7 33
M  V30 36 1 8 34
M  V30 37 1 11 35
M  V30 38 1 13 36
M  V30 39 1 16 37
M  V30 40 1 17 38
M  V30 41 1 18 39
M  V30 42 1 22 40
M  V30 43 1 23 41
M  V30 44 1 25 42
M  V30 45 1 26 43
M  V30 END BOND
M  V30 END CTAB
M  END
>  <Dataset>  (951) 
ChEMBL_Kinases

>  <Ligand_Instance>  (951) 
nan

>  <PDB_ID>  (951) 
nan

>  <Standardized_SMILES>  (951) 
COc1ccc(CNC(=O)Nc2cc(-c3cccnc3F)ccn2)cc1

>  <Name>  (951) 
nan

>  <Pocket>  (951) 
nan

>  <ATP_Site>  (951) 
nan

>  <Peripheral>  (951) 
nan

>  <Num_H_Atoms_ProtBoundConf>  (951) 
nan

>  <Num_Resolved_Atoms>  (951) 
nan

>  <Num_Not_Resolved_Atoms>  (951) 
nan

$$$$
CHEMBL1824333
     RDKit          3D

  0  0  0  0  0  0  0  0  0  0999 V3000
M  V30 BEGIN CTAB
M  V30 COUNTS 38 40 0 0 0
M  V30 BEGIN ATOM
M  V30 1 C 0.617962 -5.737276 2.249058 0
M  V30 2 O 1.568062 -4.813538 1.804384 0
M  V30 3 C 1.529484 -4.075167 0.652393 0
M  V30 4 C 2.600974 -3.226660 0.442337 0
M  V30 5 C 2.674721 -2.434710 -0.678333 0
M  V30 6 C 1.681593 -2.445842 -1.652844 0
M  V30 7 C 1.815004 -1.567264 -2.844605 0
M  V30 8 N 1.203979 -0.255244 -2.613368 0
M  V30 9 C 0.564337 0.137036 -1.409842 0
M  V30 10 O 0.471642 -0.643739 -0.414632 0
M  V30 11 N 0.054503 1.445980 -1.426817 0
M  V30 12 C -0.629185 1.912531 -0.186702 0
M  V30 13 N -0.171395 2.435056 0.701109 0
M  V30 14 C -0.682450 2.881341 1.828823 0
M  V30 15 C -0.089001 3.519123 2.898267 0
M  V30 16 C -0.849021 3.894090 3.981182 0
M  V30 17 C -2.204700 3.687996 4.112288 0
M  V30 18 C -3.011826 4.069247 5.227418 0
M  V30 19 N -3.647859 4.384827 6.137914 0
M  V30 20 C -2.802940 3.050829 3.046073 0
M  V30 21 C -2.033179 2.667548 1.942057 0
M  V30 22 S -2.453949 1.845792 0.423301 0
M  V30 23 C 0.612250 -3.296084 -1.438028 0
M  V30 24 C 0.538240 -4.096858 -0.304313 0
M  V30 25 H 1.174444 -6.622241 2.644272 0
M  V30 26 H 0.054149 -5.310331 3.113040 0
M  V30 27 H -0.042762 -6.127726 1.471746 0
M  V30 28 H 3.416970 -3.156317 1.150760 0
M  V30 29 H 3.534249 -1.772016 -0.819745 0
M  V30 30 H 1.334039 -2.089147 -3.686013 0
M  V30 31 H 2.910675 -1.432318 -3.019132 0
M  V30 32 H 1.301718 0.354441 -3.453436 0
M  V30 33 H 0.120987 2.104055 -2.236726 0
M  V30 34 H 0.983459 3.764542 2.964080 0
M  V30 35 H -0.376259 4.402348 4.833501 0
M  V30 36 H -3.833974 2.803200 2.958750 0
M  V30 37 H -0.170889 -3.320400 -2.183056 0
M  V30 38 H -0.289334 -4.758238 -0.132983 0
M  V30 END ATOM
M  V30 BEGIN BOND
M  V30 1 1 1 2
M  V30 2 1 2 3
M  V30 3 2 3 4
M  V30 4 1 4 5
M  V30 5 2 5 6
M  V30 6 1 6 7
M  V30 7 1 7 8
M  V30 8 1 8 9
M  V30 9 2 9 10
M  V30 10 1 9 11
M  V30 11 1 11 12
M  V30 12 2 12 13
M  V30 13 1 13 14
M  V30 14 2 14 15
M  V30 15 1 15 16
M  V30 16 2 16 17
M  V30 17 1 17 18
M  V30 18 3 18 19
M  V30 19 1 17 20
M  V30 20 2 20 21
M  V30 21 1 21 22
M  V30 22 1 6 23
M  V30 23 2 23 24
M  V30 24 1 24 3
M  V30 25 1 22 12
M  V30 26 1 21 14
M  V30 27 1 1 25
M  V30 28 1 1 26
M  V30 29 1 1 27
M  V30 30 1 4 28
M  V30 31 1 5 29
M  V30 32 1 7 30
M  V30 33 1 7 31
M  V30 34 1 8 32
M  V30 35 1 11 33
M  V30 36 1 15 34
M  V30 37 1 16 35
M  V30 38 1 20 36
M  V30 39 1 23 37
M  V30 40 1 24 38
M  V30 END BOND
M  V30 END CTAB
M  END
>  <Dataset>  (952) 
ChEMBL_Kinases

>  <Ligand_Instance>  (952) 
nan

>  <PDB_ID>  (952) 
nan

>  <Standardized_SMILES>  (952) 
COc1ccc(CNC(=O)Nc2nc3ccc(C#N)cc3s2)cc1

>  <Name>  (952) 
nan

>  <Pocket>  (952) 
nan

>  <ATP_Site>  (952) 
nan

>  <Peripheral>  (952) 
nan

>  <Num_H_Atoms_ProtBoundConf>  (952) 
nan

>  <Num_Resolved_Atoms>  (952) 
nan

>  <Num_Not_Resolved_Atoms>  (952) 
nan

$$$$
CHEMBL1823655
     RDKit          3D

  0  0  0  0  0  0  0  0  0  0999 V3000
M  V30 BEGIN CTAB
M  V30 COUNTS 43 46 0 0 0
M  V30 BEGIN ATOM
M  V30 1 O 1.805135 -1.197126 1.934956 0
M  V30 2 C 0.659448 -1.044618 1.434981 0
M  V30 3 N 0.360670 0.165866 0.789035 0
M  V30 4 C 1.362051 1.238934 0.694779 0 CFG=1
M  V30 5 C 1.624214 1.409851 -0.732277 0
M  V30 6 C 1.808516 0.204517 -1.421267 0
M  V30 7 C 2.066119 0.181883 -2.780074 0
M  V30 8 C 2.152947 1.335617 -3.514736 0
M  V30 9 Cl 2.473284 1.423954 -5.232116 0
M  V30 10 C 1.972058 2.524499 -2.840109 0
M  V30 11 Cl 2.052920 4.073536 -3.637415 0
M  V30 12 C 1.715556 2.551791 -1.488271 0
M  V30 13 C 0.787116 2.403211 1.411689 0
M  V30 14 C 1.567777 3.666323 1.500904 0
M  V30 15 N 1.450512 3.698815 2.956584 0
M  V30 16 C 1.061158 2.292678 2.908118 0
M  V30 17 C -0.330917 -2.109745 1.529908 0
M  V30 18 C -1.603447 -2.051613 1.023708 0
M  V30 19 C -2.513456 -3.082294 1.133821 0
M  V30 20 C -2.119855 -4.233637 1.789403 0
M  V30 21 C -2.999538 -5.289539 1.922074 0
M  V30 22 N -2.630647 -6.432295 2.564541 0
M  V30 23 C -1.379118 -6.545686 3.087136 0
M  V30 24 C -0.455300 -5.515088 2.982277 0
M  V30 25 C -0.853619 -4.370021 2.327679 0
M  V30 26 C -0.002099 -3.295405 2.176134 0
M  V30 27 H -0.561785 0.370247 0.350551 0
M  V30 28 H 2.263399 0.840566 1.210699 0
M  V30 29 H 1.768530 -0.786865 -0.973420 0
M  V30 30 H 2.212013 -0.742296 -3.332512 0
M  V30 31 H 1.571259 3.455107 -0.942973 0
M  V30 32 H -0.302786 2.503766 1.257785 0
M  V30 33 H 0.956281 4.530091 1.115404 0
M  V30 34 H 2.614464 3.638821 1.208743 0
M  V30 35 H 2.309860 3.896960 3.483252 0
M  V30 36 H 1.945923 1.670612 3.174144 0
M  V30 37 H 0.205885 2.003666 3.529893 0
M  V30 38 H -1.906479 -1.156166 0.515003 0
M  V30 39 H -3.517946 -2.982445 0.710484 0
M  V30 40 H -3.992251 -5.166705 1.493074 0
M  V30 41 H -1.149037 -7.475989 3.583632 0
M  V30 42 H 0.523814 -5.611601 3.394558 0
M  V30 43 H 1.002337 -3.371559 2.589013 0
M  V30 END ATOM
M  V30 BEGIN BOND
M  V30 1 2 1 2
M  V30 2 1 2 3
M  V30 3 1 3 4
M  V30 4 1 4 5
M  V30 5 2 5 6
M  V30 6 1 6 7
M  V30 7 2 7 8
M  V30 8 1 8 9
M  V30 9 1 8 10
M  V30 10 1 10 11
M  V30 11 2 10 12
M  V30 12 1 4 13
M  V30 13 1 13 14
M  V30 14 1 14 15
M  V30 15 1 15 16
M  V30 16 1 2 17
M  V30 17 2 17 18
M  V30 18 1 18 19
M  V30 19 2 19 20
M  V30 20 1 20 21
M  V30 21 2 21 22
M  V30 22 1 22 23
M  V30 23 2 23 24
M  V30 24 1 24 25
M  V30 25 2 25 26
M  V30 26 1 12 5
M  V30 27 1 16 13
M  V30 28 1 26 17
M  V30 29 1 25 20
M  V30 30 1 3 27
M  V30 31 1 4 28 CFG=1
M  V30 32 1 6 29
M  V30 33 1 7 30
M  V30 34 1 12 31
M  V30 35 1 13 32
M  V30 36 1 14 33
M  V30 37 1 14 34
M  V30 38 1 15 35
M  V30 39 1 16 36
M  V30 40 1 16 37
M  V30 41 1 18 38
M  V30 42 1 19 39
M  V30 43 1 21 40
M  V30 44 1 23 41
M  V30 45 1 24 42
M  V30 46 1 26 43
M  V30 END BOND
M  V30 END CTAB
M  END
>  <Dataset>  (953) 
ChEMBL_Kinases

>  <Ligand_Instance>  (953) 
nan

>  <PDB_ID>  (953) 
nan

>  <Standardized_SMILES>  (953) 
O=C(N[C@@H](c1ccc(Cl)c(Cl)c1)C1CNC1)c1ccc2cnccc2c1

>  <Name>  (953) 
nan

>  <Pocket>  (953) 
nan

>  <ATP_Site>  (953) 
nan

>  <Peripheral>  (953) 
nan

>  <Num_H_Atoms_ProtBoundConf>  (953) 
nan

>  <Num_Resolved_Atoms>  (953) 
nan

>  <Num_Not_Resolved_Atoms>  (953) 
nan

$$$$
CHEMBL181339
     RDKit          3D

  0  0  0  0  0  0  0  0  0  0999 V3000
M  V30 BEGIN CTAB
M  V30 COUNTS 62 68 0 0 0
M  V30 BEGIN ATOM
M  V30 1 O -1.460694 -0.701215 5.705866 0
M  V30 2 C -0.629941 0.106267 5.219584 0
M  V30 3 N -0.091885 1.191658 5.959084 0
M  V30 4 C 0.795678 1.837429 5.036111 0
M  V30 5 O 1.428580 2.867013 5.442180 0
M  V30 6 C 0.776710 1.138852 3.773302 0
M  V30 7 C 1.530970 1.525316 2.605455 0
M  V30 8 C 0.892099 1.525576 1.368440 0
M  V30 9 N 1.781303 1.909350 0.429936 0
M  V30 10 C 2.959935 2.151800 1.025525 0
M  V30 11 C 4.175360 2.558580 0.532786 0
M  V30 12 C 5.183070 2.705223 1.435316 0
M  V30 13 C 5.024477 2.463322 2.798864 0
M  V30 14 C 3.769588 2.056011 3.221897 0
M  V30 15 N 2.778890 1.913361 2.325942 0
M  V30 16 C -0.071939 0.097907 3.863534 0
M  V30 17 C -0.330125 -0.858921 2.773673 0
M  V30 18 C 0.739795 -1.341464 2.016501 0
M  V30 19 N 0.235137 -2.199640 1.076514 0
M  V30 20 C -1.115816 -2.261218 1.231238 0
M  V30 21 C -2.103975 -2.965009 0.554657 0
M  V30 22 C -3.431869 -2.805121 0.966298 0
M  V30 23 C -3.764029 -1.967777 2.021786 0
M  V30 24 C -2.758250 -1.273390 2.684228 0
M  V30 25 C -1.475591 -1.437361 2.275861 0
M  V30 26 C -1.940877 -3.895353 -0.576366 0
M  V30 27 N -0.701361 -3.500915 -1.264983 0
M  V30 28 C -0.680188 -2.770257 -2.482513 0
M  V30 29 O 0.457633 -2.485622 -2.999570 0
M  V30 30 C -1.920356 -2.321695 -3.182647 0
M  V30 31 C -2.762642 -1.380847 -2.360772 0
M  V30 32 C -3.439529 -0.431973 -3.365258 0
M  V30 33 O -2.540726 0.533784 -3.803136 0
M  V30 34 C -1.280022 -0.044585 -3.932138 0
M  V30 35 C -1.495521 -1.488541 -4.400739 0
M  V30 36 C 0.606559 -3.838770 -0.726551 0
M  V30 37 C 1.175174 -2.820057 0.173539 0
M  V30 38 H -0.323470 1.426131 6.954170 0
M  V30 39 H -0.131236 1.279165 1.097761 0
M  V30 40 H 4.376782 2.763142 -0.491746 0
M  V30 41 H 6.186430 3.024808 1.139212 0
M  V30 42 H 5.855953 2.591180 3.494073 0
M  V30 43 H 3.655671 1.869347 4.258841 0
M  V30 44 H 1.806348 -1.085375 2.147495 0
M  V30 45 H -4.167067 -3.388485 0.391634 0
M  V30 46 H -4.817252 -1.915222 2.260553 0
M  V30 47 H -3.029688 -0.626771 3.494764 0
M  V30 48 H -2.793750 -4.007668 -1.234774 0
M  V30 49 H -1.793537 -4.909519 -0.102322 0
M  V30 50 H -2.510057 -3.166448 -3.588761 0
M  V30 51 H -2.133700 -0.749996 -1.722578 0
M  V30 52 H -3.601456 -1.856562 -1.827514 0
M  V30 53 H -4.232153 0.104276 -2.781792 0
M  V30 54 H -3.929247 -0.991358 -4.190640 0
M  V30 55 H -0.696583 -0.050346 -2.991636 0
M  V30 56 H -0.695929 0.477737 -4.701536 0
M  V30 57 H -2.228757 -1.515622 -5.206033 0
M  V30 58 H -0.468537 -1.828133 -4.701577 0
M  V30 59 H 1.334503 -4.015810 -1.573872 0
M  V30 60 H 0.574129 -4.820576 -0.211038 0
M  V30 61 H 1.641647 -1.991758 -0.438656 0
M  V30 62 H 2.004154 -3.230091 0.786237 0
M  V30 END ATOM
M  V30 BEGIN BOND
M  V30 1 2 1 2
M  V30 2 1 2 3
M  V30 3 1 3 4
M  V30 4 2 4 5
M  V30 5 1 4 6
M  V30 6 1 6 7
M  V30 7 2 7 8
M  V30 8 1 8 9
M  V30 9 2 9 10
M  V30 10 1 10 11
M  V30 11 2 11 12
M  V30 12 1 12 13
M  V30 13 2 13 14
M  V30 14 1 14 15
M  V30 15 2 6 16
M  V30 16 1 16 17
M  V30 17 2 17 18
M  V30 18 1 18 19
M  V30 19 1 19 20
M  V30 20 2 20 21
M  V30 21 1 21 22
M  V30 22 2 22 23
M  V30 23 1 23 24
M  V30 24 2 24 25
M  V30 25 1 21 26
M  V30 26 1 26 27
M  V30 27 1 27 28
M  V30 28 2 28 29
M  V30 29 1 28 30
M  V30 30 1 30 31
M  V30 31 1 31 32
M  V30 32 1 32 33
M  V30 33 1 33 34
M  V30 34 1 34 35
M  V30 35 1 27 36
M  V30 36 1 36 37
M  V30 37 1 16 2
M  V30 38 1 25 17
M  V30 39 1 35 30
M  V30 40 1 15 7
M  V30 41 1 37 19
M  V30 42 1 15 10
M  V30 43 1 25 20
M  V30 44 1 3 38
M  V30 45 1 8 39
M  V30 46 1 11 40
M  V30 47 1 12 41
M  V30 48 1 13 42
M  V30 49 1 14 43
M  V30 50 1 18 44
M  V30 51 1 22 45
M  V30 52 1 23 46
M  V30 53 1 24 47
M  V30 54 1 26 48
M  V30 55 1 26 49
M  V30 56 1 30 50
M  V30 57 1 31 51
M  V30 58 1 31 52
M  V30 59 1 32 53
M  V30 60 1 32 54
M  V30 61 1 34 55
M  V30 62 1 34 56
M  V30 63 1 35 57
M  V30 64 1 35 58
M  V30 65 1 36 59
M  V30 66 1 36 60
M  V30 67 1 37 61
M  V30 68 1 37 62
M  V30 END BOND
M  V30 END CTAB
M  END
>  <Dataset>  (954) 
ChEMBL_Kinases

>  <Ligand_Instance>  (954) 
nan

>  <PDB_ID>  (954) 
nan

>  <Standardized_SMILES>  (954) 
O=C1NC(=O)C(c2cnc3ccccn23)=C1c1cn2c3c(cccc13)CN(C(=O)C1CCOCC1)CC2

>  <Name>  (954) 
nan

>  <Pocket>  (954) 
nan

>  <ATP_Site>  (954) 
nan

>  <Peripheral>  (954) 
nan

>  <Num_H_Atoms_ProtBoundConf>  (954) 
nan

>  <Num_Resolved_Atoms>  (954) 
nan

>  <Num_Not_Resolved_Atoms>  (954) 
nan

$$$$
CHEMBL181334
     RDKit          3D

  0  0  0  0  0  0  0  0  0  0999 V3000
M  V30 BEGIN CTAB
M  V30 COUNTS 50 52 0 0 0
M  V30 BEGIN ATOM
M  V30 1 C 0.392853 -3.627797 2.615182 0
M  V30 2 C 1.223512 -4.267383 1.530134 0
M  V30 3 C 2.333833 -3.381802 1.032948 0
M  V30 4 O 1.893069 -2.166433 0.485524 0
M  V30 5 C 2.773174 -1.217291 -0.026174 0
M  V30 6 C 4.136587 -1.491398 0.010356 0
M  V30 7 C 5.034565 -0.550722 -0.498563 0
M  V30 8 C 4.580573 0.640544 -1.033624 0
M  V30 9 C 3.241933 0.905042 -1.067289 0
M  V30 10 O 2.712814 2.095457 -1.596778 0
M  V30 11 C 2.348211 -0.018547 -0.566781 0
M  V30 12 C 0.931090 0.226798 -0.585744 0
M  V30 13 C 0.183870 0.853185 0.420421 0
M  V30 14 C -1.203678 1.037580 0.288170 0
M  V30 15 C -1.715978 1.668832 1.493353 0
M  V30 16 C -1.233962 0.824493 2.693114 0
M  V30 17 C -1.602972 -0.613606 2.465320 0
M  V30 18 C -2.976005 -0.780569 1.897304 0
M  V30 19 N -3.736439 0.370385 1.724998 0
M  V30 20 C -3.203453 1.655686 1.704114 0
M  V30 21 C -1.715015 0.557110 -0.886136 0
M  V30 22 C -3.112634 0.778463 -1.075000 0
M  V30 23 N -4.238155 0.963455 -1.246588 0
M  V30 24 C -0.997132 -0.058996 -1.880326 0
M  V30 25 N -1.680294 -0.499567 -3.031879 0
M  V30 26 N 0.322457 -0.207121 -1.696466 0
M  V30 27 H 0.174080 -4.332618 3.458615 0
M  V30 28 H 0.841743 -2.707518 2.998713 0
M  V30 29 H -0.623743 -3.378449 2.198560 0
M  V30 30 H 0.559015 -4.607842 0.712201 0
M  V30 31 H 1.690453 -5.166252 1.960785 0
M  V30 32 H 3.047338 -3.249455 1.873433 0
M  V30 33 H 2.863694 -3.940632 0.243568 0
M  V30 34 H 4.523535 -2.416508 0.423495 0
M  V30 35 H 6.117200 -0.720806 -0.492174 0
M  V30 36 H 5.270280 1.389485 -1.437080 0
M  V30 37 H 2.893439 2.242436 -2.588244 0
M  V30 38 H 0.856206 1.128011 1.222277 0
M  V30 39 H -1.309079 2.713423 1.633274 0
M  V30 40 H -0.187646 0.985078 2.934796 0
M  V30 41 H -1.813513 1.193273 3.563455 0
M  V30 42 H -1.485348 -1.187839 3.405052 0
M  V30 43 H -0.877593 -1.036528 1.740369 0
M  V30 44 H -2.953029 -1.343320 0.917213 0
M  V30 45 H -3.539199 -1.475135 2.561478 0
M  V30 46 H -4.733727 0.346850 1.965628 0
M  V30 47 H -3.415705 2.106431 2.741021 0
M  V30 48 H -3.736911 2.366999 1.042556 0
M  V30 49 H -1.942157 -1.453290 -3.372443 0
M  V30 50 H -2.010634 0.206967 -3.706874 0
M  V30 END ATOM
M  V30 BEGIN BOND
M  V30 1 1 1 2
M  V30 2 1 2 3
M  V30 3 1 3 4
M  V30 4 1 4 5
M  V30 5 2 5 6
M  V30 6 1 6 7
M  V30 7 2 7 8
M  V30 8 1 8 9
M  V30 9 1 9 10
M  V30 10 2 9 11
M  V30 11 1 11 12
M  V30 12 2 12 13
M  V30 13 1 13 14
M  V30 14 1 14 15
M  V30 15 1 15 16
M  V30 16 1 16 17
M  V30 17 1 17 18
M  V30 18 1 18 19
M  V30 19 1 19 20
M  V30 20 2 14 21
M  V30 21 1 21 22
M  V30 22 3 22 23
M  V30 23 1 21 24
M  V30 24 1 24 25
M  V30 25 2 24 26
M  V30 26 1 11 5
M  V30 27 1 26 12
M  V30 28 1 20 15
M  V30 29 1 1 27
M  V30 30 1 1 28
M  V30 31 1 1 29
M  V30 32 1 2 30
M  V30 33 1 2 31
M  V30 34 1 3 32
M  V30 35 1 3 33
M  V30 36 1 6 34
M  V30 37 1 7 35
M  V30 38 1 8 36
M  V30 39 1 10 37
M  V30 40 1 13 38
M  V30 41 1 15 39
M  V30 42 1 16 40
M  V30 43 1 16 41
M  V30 44 1 17 42
M  V30 45 1 17 43
M  V30 46 1 18 44
M  V30 47 1 18 45
M  V30 48 1 19 46
M  V30 49 1 20 47
M  V30 50 1 20 48
M  V30 51 1 25 49
M  V30 52 1 25 50
M  V30 END BOND
M  V30 END CTAB
M  END
>  <Dataset>  (955) 
ChEMBL_Kinases

>  <Ligand_Instance>  (955) 
nan

>  <PDB_ID>  (955) 
nan

>  <Standardized_SMILES>  (955) 
CCCOc1cccc(O)c1-c1cc(C2CCCNC2)c(C#N)c(N)n1

>  <Name>  (955) 
nan

>  <Pocket>  (955) 
nan

>  <ATP_Site>  (955) 
nan

>  <Peripheral>  (955) 
nan

>  <Num_H_Atoms_ProtBoundConf>  (955) 
nan

>  <Num_Resolved_Atoms>  (955) 
nan

>  <Num_Not_Resolved_Atoms>  (955) 
nan

$$$$
CHEMBL181293
     RDKit          3D

  0  0  0  0  0  0  0  0  0  0999 V3000
M  V30 BEGIN CTAB
M  V30 COUNTS 72 75 0 0 0
M  V30 BEGIN ATOM
M  V30 1 C 3.644368 -2.286814 6.180015 0
M  V30 2 C 3.597022 -2.285375 4.665818 0
M  V30 3 N 2.342241 -1.876822 4.118297 0
M  V30 4 C 1.256264 -2.774482 4.338986 0 CFG=1
M  V30 5 C -0.017520 -2.218468 3.714472 0
M  V30 6 C 0.234411 -1.995465 2.231677 0
M  V30 7 C 0.695459 -3.260726 1.555368 0 CFG=2
M  V30 8 N -0.147272 -3.646236 0.428733 0
M  V30 9 C -0.322442 -2.862975 -0.760167 0
M  V30 10 C 0.307175 -1.643145 -0.944509 0
M  V30 11 C 0.129071 -0.905281 -2.119447 0
M  V30 12 N 0.819459 0.336358 -2.187083 0
M  V30 13 C 0.296173 1.632117 -1.924501 0
M  V30 14 C -1.060264 1.781275 -1.736189 0
M  V30 15 C -1.560670 3.049962 -1.485570 0
M  V30 16 C -0.692279 4.139737 -1.429130 0
M  V30 17 S -1.213233 5.791679 -1.138731 0
M  V30 18 O -0.196500 6.741482 -1.687577 0
M  V30 19 O -2.525450 6.054601 -1.817251 0
M  V30 20 N -1.345965 6.035790 0.557428 0
M  V30 21 C -2.338375 5.157260 1.148697 0
M  V30 22 C -0.089607 5.996643 1.238827 0
M  V30 23 C 0.663777 3.920721 -1.627177 0
M  V30 24 C 1.215612 2.658010 -1.883269 0
M  V30 25 N -0.666951 -1.384853 -3.090955 0
M  V30 26 N -0.984625 -0.878205 -4.268307 0
M  V30 27 C -1.824105 -1.714719 -4.915957 0
M  V30 28 C -2.001899 -2.778915 -4.047223 0
M  V30 29 C -2.829584 -3.993527 -4.233539 0
M  V30 30 C -4.242014 -3.793909 -3.723342 0
M  V30 31 C -2.229529 -5.201442 -3.562775 0
M  V30 32 C -1.272119 -2.589777 -2.876001 0
M  V30 33 N -1.094346 -3.286397 -1.747774 0
M  V30 34 C 0.718104 -4.428097 2.514009 0
M  V30 35 C 1.444308 -4.159904 3.795116 0
M  V30 36 H 4.703685 -2.506642 6.444424 0
M  V30 37 H 2.994632 -3.053564 6.640158 0
M  V30 38 H 3.441879 -1.286534 6.599365 0
M  V30 39 H 4.363607 -1.509744 4.359197 0
M  V30 40 H 3.989803 -3.236020 4.290689 0
M  V30 41 H 2.082272 -0.954194 4.532758 0
M  V30 42 H 1.066492 -2.787019 5.444150 0
M  V30 43 H -0.205844 -1.222894 4.172621 0
M  V30 44 H -0.866114 -2.873136 3.927170 0
M  V30 45 H -0.681994 -1.588739 1.787799 0
M  V30 46 H 1.062481 -1.227432 2.209354 0
M  V30 47 H 1.753876 -3.122788 1.222744 0
M  V30 48 H -0.683033 -4.563120 0.457406 0
M  V30 49 H 0.946005 -1.260553 -0.168975 0
M  V30 50 H 1.801074 0.142665 -2.467676 0
M  V30 51 H -1.750964 0.935679 -1.778903 0
M  V30 52 H -2.611309 3.254606 -1.325496 0
M  V30 53 H -2.527447 5.454927 2.179946 0
M  V30 54 H -3.248446 5.118184 0.505444 0
M  V30 55 H -1.896762 4.140116 1.100451 0
M  V30 56 H -0.174454 5.218027 2.054592 0
M  V30 57 H 0.653651 5.559243 0.523233 0
M  V30 58 H 0.247187 6.943839 1.680858 0
M  V30 59 H 1.405520 4.734706 -1.596432 0
M  V30 60 H 2.275245 2.529375 -2.032091 0
M  V30 61 H -2.281380 -1.611379 -5.901192 0
M  V30 62 H -2.903648 -4.191866 -5.315557 0
M  V30 63 H -4.855594 -3.198422 -4.430038 0
M  V30 64 H -4.229975 -3.350497 -2.718225 0
M  V30 65 H -4.695705 -4.790052 -3.625234 0
M  V30 66 H -2.764358 -6.106774 -3.957927 0
M  V30 67 H -2.479455 -5.190881 -2.464897 0
M  V30 68 H -1.157971 -5.328952 -3.735949 0
M  V30 69 H -0.324419 -4.738388 2.694318 0
M  V30 70 H 1.259937 -5.246764 1.954849 0
M  V30 71 H 0.967518 -4.851296 4.557347 0
M  V30 72 H 2.497583 -4.481952 3.769384 0
M  V30 END ATOM
M  V30 BEGIN BOND
M  V30 1 1 1 2
M  V30 2 1 2 3
M  V30 3 1 3 4
M  V30 4 1 4 5
M  V30 5 1 5 6
M  V30 6 1 6 7
M  V30 7 1 7 8
M  V30 8 1 8 9
M  V30 9 1 9 10
M  V30 10 2 10 11
M  V30 11 1 11 12
M  V30 12 1 12 13
M  V30 13 2 13 14
M  V30 14 1 14 15
M  V30 15 2 15 16
M  V30 16 1 16 17
M  V30 17 2 17 18
M  V30 18 2 17 19
M  V30 19 1 17 20
M  V30 20 1 20 21
M  V30 21 1 20 22
M  V30 22 1 16 23
M  V30 23 2 23 24
M  V30 24 1 11 25
M  V30 25 1 25 26
M  V30 26 2 26 27
M  V30 27 1 27 28
M  V30 28 1 28 29
M  V30 29 1 29 30
M  V30 30 1 29 31
M  V30 31 2 28 32
M  V30 32 1 32 33
M  V30 33 1 7 34
M  V30 34 1 34 35
M  V30 35 1 35 4
M  V30 36 2 33 9
M  V30 37 1 24 13
M  V30 38 1 32 25
M  V30 39 1 1 36
M  V30 40 1 1 37
M  V30 41 1 1 38
M  V30 42 1 2 39
M  V30 43 1 2 40
M  V30 44 1 3 41
M  V30 45 1 4 42 CFG=1
M  V30 46 1 5 43
M  V30 47 1 5 44
M  V30 48 1 6 45
M  V30 49 1 6 46
M  V30 50 1 7 47 CFG=3
M  V30 51 1 8 48
M  V30 52 1 10 49
M  V30 53 1 12 50
M  V30 54 1 14 51
M  V30 55 1 15 52
M  V30 56 1 21 53
M  V30 57 1 21 54
M  V30 58 1 21 55
M  V30 59 1 22 56
M  V30 60 1 22 57
M  V30 61 1 22 58
M  V30 62 1 23 59
M  V30 63 1 24 60
M  V30 64 1 27 61
M  V30 65 1 29 62
M  V30 66 1 30 63
M  V30 67 1 30 64
M  V30 68 1 30 65
M  V30 69 1 31 66
M  V30 70 1 31 67
M  V30 71 1 31 68
M  V30 72 1 34 69
M  V30 73 1 34 70
M  V30 74 1 35 71
M  V30 75 1 35 72
M  V30 END BOND
M  V30 END CTAB
M  END
>  <Dataset>  (956) 
ChEMBL_Kinases

>  <Ligand_Instance>  (956) 
nan

>  <PDB_ID>  (956) 
nan

>  <Standardized_SMILES>  (956) 
CCN[C@H]1CC[C@H](Nc2cc(Nc3ccc(S(=O)(=O)N(C)C)cc3)n3ncc(C(C)C)c3n2)CC1

>  <Name>  (956) 
nan

>  <Pocket>  (956) 
nan

>  <ATP_Site>  (956) 
nan

>  <Peripheral>  (956) 
nan

>  <Num_H_Atoms_ProtBoundConf>  (956) 
nan

>  <Num_Resolved_Atoms>  (956) 
nan

>  <Num_Not_Resolved_Atoms>  (956) 
nan

$$$$
CHEMBL181285
     RDKit          3D

  0  0  0  0  0  0  0  0  0  0999 V3000
M  V30 BEGIN CTAB
M  V30 COUNTS 54 57 0 0 0
M  V30 BEGIN ATOM
M  V30 1 C 1.720067 -0.641792 -0.088833 0
M  V30 2 N 2.033071 0.636743 0.508725 0
M  V30 3 C 3.249379 1.180268 0.411846 0
M  V30 4 O 4.182667 0.611342 -0.197690 0
M  V30 5 C 3.534582 2.403349 0.983792 0
M  V30 6 C 4.850512 3.066876 0.914472 0
M  V30 7 C 4.903700 3.879856 -0.216742 0
M  V30 8 Cl 3.623576 4.103579 -1.392869 0
M  V30 9 C 6.061737 4.618947 -0.502406 0
M  V30 10 C 7.104441 4.482678 0.390390 0
M  V30 11 C 7.058016 3.681446 1.509407 0
M  V30 12 C 5.911473 2.953912 1.786546 0
M  V30 13 Cl 5.608340 1.886630 3.113949 0
M  V30 14 C 2.556594 3.106296 1.680502 0
M  V30 15 C 1.316036 2.478975 1.739531 0
M  V30 16 C 0.312400 3.138420 2.415504 0
M  V30 17 N -0.896663 2.564994 2.488408 0
M  V30 18 C -1.204170 1.375464 1.941585 0
M  V30 19 N -2.517670 0.844621 2.050751 0
M  V30 20 C -3.018797 -0.390986 1.603423 0
M  V30 21 C -4.398570 -0.632077 1.626915 0
M  V30 22 C -4.890739 -1.842051 1.200664 0
M  V30 23 C -4.083041 -2.855013 0.740913 0
M  V30 24 O -4.690407 -4.032055 0.336903 0
M  V30 25 C -3.975926 -5.153995 -0.149170 0
M  V30 26 C -4.898533 -6.285518 -0.524811 0
M  V30 27 C -4.152015 -7.496336 -1.035056 0
M  V30 28 C -3.338424 -7.256150 -2.226503 0
M  V30 29 O -2.241664 -6.652288 -2.062771 0
M  V30 30 O -2.823712 -7.185096 -3.493448 0
M  V30 31 C -2.722187 -2.652901 0.704199 0
M  V30 32 C -2.247439 -1.432721 1.135617 0
M  V30 33 N -0.201798 0.768030 1.294992 0
M  V30 34 C 1.036481 1.257376 1.166599 0
M  V30 35 H 1.653758 -1.441106 0.643435 0
M  V30 36 H 2.558723 -0.898465 -0.785254 0
M  V30 37 H 0.822737 -0.559949 -0.745394 0
M  V30 38 H 6.171118 5.266610 -1.358267 0
M  V30 39 H 8.062848 5.001419 0.286812 0
M  V30 40 H 7.844168 3.541880 2.236073 0
M  V30 41 H 2.716478 4.068559 2.151288 0
M  V30 42 H 0.377949 4.084000 2.907529 0
M  V30 43 H -3.220059 1.475985 2.544872 0
M  V30 44 H -5.068638 0.145356 1.983646 0
M  V30 45 H -5.979615 -1.950468 1.249860 0
M  V30 46 H -3.321758 -4.878627 -0.994883 0
M  V30 47 H -3.374409 -5.523398 0.734154 0
M  V30 48 H -5.505759 -6.622877 0.340027 0
M  V30 49 H -5.632018 -5.963823 -1.311418 0
M  V30 50 H -4.926565 -8.289423 -1.235097 0
M  V30 51 H -3.491534 -7.899566 -0.229494 0
M  V30 52 H -3.313718 -6.836224 -4.295047 0
M  V30 53 H -2.068902 -3.436788 0.346014 0
M  V30 54 H -1.175166 -1.337370 1.084508 0
M  V30 END ATOM
M  V30 BEGIN BOND
M  V30 1 1 1 2
M  V30 2 1 2 3
M  V30 3 2 3 4
M  V30 4 1 3 5
M  V30 5 1 5 6
M  V30 6 2 6 7
M  V30 7 1 7 8
M  V30 8 1 7 9
M  V30 9 2 9 10
M  V30 10 1 10 11
M  V30 11 2 11 12
M  V30 12 1 12 13
M  V30 13 2 5 14
M  V30 14 1 14 15
M  V30 15 2 15 16
M  V30 16 1 16 17
M  V30 17 2 17 18
M  V30 18 1 18 19
M  V30 19 1 19 20
M  V30 20 2 20 21
M  V30 21 1 21 22
M  V30 22 2 22 23
M  V30 23 1 23 24
M  V30 24 1 24 25
M  V30 25 1 25 26
M  V30 26 1 26 27
M  V30 27 1 27 28
M  V30 28 2 28 29
M  V30 29 1 28 30
M  V30 30 1 23 31
M  V30 31 2 31 32
M  V30 32 1 18 33
M  V30 33 2 33 34
M  V30 34 1 34 2
M  V30 35 1 12 6
M  V30 36 1 34 15
M  V30 37 1 32 20
M  V30 38 1 1 35
M  V30 39 1 1 36
M  V30 40 1 1 37
M  V30 41 1 9 38
M  V30 42 1 10 39
M  V30 43 1 11 40
M  V30 44 1 14 41
M  V30 45 1 16 42
M  V30 46 1 19 43
M  V30 47 1 21 44
M  V30 48 1 22 45
M  V30 49 1 25 46
M  V30 50 1 25 47
M  V30 51 1 26 48
M  V30 52 1 26 49
M  V30 53 1 27 50
M  V30 54 1 27 51
M  V30 55 1 30 52
M  V30 56 1 31 53
M  V30 57 1 32 54
M  V30 END BOND
M  V30 END CTAB
M  END
>  <Dataset>  (957) 
ChEMBL_Kinases

>  <Ligand_Instance>  (957) 
nan

>  <PDB_ID>  (957) 
nan

>  <Standardized_SMILES>  (957) 
Cn1c(=O)c(-c2c(Cl)cccc2Cl)cc2cnc(Nc3ccc(OCCCC(=O)O)cc3)nc21

>  <Name>  (957) 
nan

>  <Pocket>  (957) 
nan

>  <ATP_Site>  (957) 
nan

>  <Peripheral>  (957) 
nan

>  <Num_H_Atoms_ProtBoundConf>  (957) 
nan

>  <Num_Resolved_Atoms>  (957) 
nan

>  <Num_Not_Resolved_Atoms>  (957) 
nan

$$$$
CHEMBL181095
     RDKit          3D

  0  0  0  0  0  0  0  0  0  0999 V3000
M  V30 BEGIN CTAB
M  V30 COUNTS 68 71 0 0 0
M  V30 BEGIN ATOM
M  V30 1 C 4.698287 -3.646746 3.110287 0
M  V30 2 C 3.852808 -2.578430 2.483085 0
M  V30 3 N 4.586089 -1.585670 1.811883 0
M  V30 4 C 5.365861 -0.722895 2.605960 0
M  V30 5 C 4.438469 0.160368 3.418429 0
M  V30 6 C 4.758859 -1.681378 0.434441 0
M  V30 7 C 5.454037 -0.580381 -0.285740 0
M  V30 8 O 4.898036 0.675746 -0.207830 0
M  V30 9 C 3.702003 1.176766 -0.557880 0
M  V30 10 C 2.595454 0.620421 -1.122723 0
M  V30 11 C 1.430906 1.340570 -1.401696 0
M  V30 12 C 1.358552 2.699917 -1.102576 0
M  V30 13 N 0.133194 3.403235 -1.352284 0
M  V30 14 C -0.928339 2.495939 -1.694108 0
M  V30 15 N -1.567672 2.171453 -2.856156 0
M  V30 16 C -2.515450 1.207101 -2.833810 0
M  V30 17 C -2.854274 0.543962 -1.679276 0
M  V30 18 C -3.793135 -0.462550 -1.567769 0
M  V30 19 C -4.033114 -1.067573 -0.357069 0
M  V30 20 C -4.981362 -2.134587 -0.162600 0
M  V30 21 C -4.607773 -3.467036 -0.348517 0
M  V30 22 C -3.234753 -3.854587 -0.788093 0
M  V30 23 C -5.543911 -4.451927 -0.122341 0
M  V30 24 C -6.840975 -4.112542 0.285230 0
M  V30 25 C -7.225840 -2.797291 0.472899 0
M  V30 26 C -6.267159 -1.846177 0.238258 0
M  V30 27 C -6.615145 -0.412916 0.428553 0
M  V30 28 C -3.369843 -0.718097 0.802713 0
M  V30 29 O -3.537529 -1.228620 1.943756 0
M  V30 30 N -2.461067 0.264524 0.675781 0
M  V30 31 C -1.699062 0.736826 1.826973 0
M  V30 32 C -2.194920 0.887814 -0.511220 0
M  V30 33 N -1.258471 1.850175 -0.563432 0
M  V30 34 C 2.470185 3.280980 -0.532670 0
M  V30 35 C 3.619018 2.546054 -0.261974 0
M  V30 36 H 5.763302 -3.578240 2.811439 0
M  V30 37 H 4.330568 -4.663210 2.828828 0
M  V30 38 H 4.653744 -3.589436 4.238731 0
M  V30 39 H 3.072343 -3.040694 1.847192 0
M  V30 40 H 3.294174 -2.051578 3.319034 0
M  V30 41 H 5.941779 -1.362883 3.342044 0
M  V30 42 H 6.126449 -0.180073 2.055295 0
M  V30 43 H 3.357115 0.039633 3.112308 0
M  V30 44 H 4.668622 1.224648 3.304375 0
M  V30 45 H 4.458105 -0.075963 4.512107 0
M  V30 46 H 5.383308 -2.615246 0.237573 0
M  V30 47 H 3.796745 -1.919234 -0.053627 0
M  V30 48 H 6.523690 -0.493620 0.084087 0
M  V30 49 H 5.596099 -0.857698 -1.361896 0
M  V30 50 H 2.645341 -0.406392 -1.359080 0
M  V30 51 H 0.637616 0.771957 -1.845626 0
M  V30 52 H 0.054897 4.434464 -1.287440 0
M  V30 53 H -3.017725 0.948063 -3.728420 0
M  V30 54 H -4.319876 -0.747807 -2.453416 0
M  V30 55 H -3.003905 -4.857968 -0.371474 0
M  V30 56 H -3.299658 -3.978507 -1.910315 0
M  V30 57 H -2.468129 -3.107128 -0.577305 0
M  V30 58 H -5.237891 -5.476063 -0.272692 0
M  V30 59 H -7.537877 -4.920390 0.448846 0
M  V30 60 H -8.230149 -2.521840 0.788578 0
M  V30 61 H -5.682564 0.132913 0.769556 0
M  V30 62 H -7.440367 -0.252144 1.144675 0
M  V30 63 H -6.829042 0.016424 -0.588402 0
M  V30 64 H -0.842831 1.370192 1.501291 0
M  V30 65 H -2.391844 1.438986 2.378331 0
M  V30 66 H -1.417314 -0.066640 2.526443 0
M  V30 67 H 2.361905 4.332701 -0.323195 0
M  V30 68 H 4.404183 3.159461 0.188440 0
M  V30 END ATOM
M  V30 BEGIN BOND
M  V30 1 1 1 2
M  V30 2 1 2 3
M  V30 3 1 3 4
M  V30 4 1 4 5
M  V30 5 1 3 6
M  V30 6 1 6 7
M  V30 7 1 7 8
M  V30 8 1 8 9
M  V30 9 2 9 10
M  V30 10 1 10 11
M  V30 11 2 11 12
M  V30 12 1 12 13
M  V30 13 1 13 14
M  V30 14 2 14 15
M  V30 15 1 15 16
M  V30 16 2 16 17
M  V30 17 1 17 18
M  V30 18 2 18 19
M  V30 19 1 19 20
M  V30 20 2 20 21
M  V30 21 1 21 22
M  V30 22 1 21 23
M  V30 23 2 23 24
M  V30 24 1 24 25
M  V30 25 2 25 26
M  V30 26 1 26 27
M  V30 27 1 19 28
M  V30 28 2 28 29
M  V30 29 1 28 30
M  V30 30 1 30 31
M  V30 31 1 30 32
M  V30 32 2 32 33
M  V30 33 1 12 34
M  V30 34 2 34 35
M  V30 35 1 35 9
M  V30 36 1 33 14
M  V30 37 1 32 17
M  V30 38 1 26 20
M  V30 39 1 1 36
M  V30 40 1 1 37
M  V30 41 1 1 38
M  V30 42 1 2 39
M  V30 43 1 2 40
M  V30 44 1 4 41
M  V30 45 1 4 42
M  V30 46 1 5 43
M  V30 47 1 5 44
M  V30 48 1 5 45
M  V30 49 1 6 46
M  V30 50 1 6 47
M  V30 51 1 7 48
M  V30 52 1 7 49
M  V30 53 1 10 50
M  V30 54 1 11 51
M  V30 55 1 13 52
M  V30 56 1 16 53
M  V30 57 1 18 54
M  V30 58 1 22 55
M  V30 59 1 22 56
M  V30 60 1 22 57
M  V30 61 1 23 58
M  V30 62 1 24 59
M  V30 63 1 25 60
M  V30 64 1 27 61
M  V30 65 1 27 62
M  V30 66 1 27 63
M  V30 67 1 31 64
M  V30 68 1 31 65
M  V30 69 1 31 66
M  V30 70 1 34 67
M  V30 71 1 35 68
M  V30 END BOND
M  V30 END CTAB
M  END
>  <Dataset>  (958) 
ChEMBL_Kinases

>  <Ligand_Instance>  (958) 
nan

>  <PDB_ID>  (958) 
nan

>  <Standardized_SMILES>  (958) 
CCN(CC)CCOc1ccc(Nc2ncc3cc(-c4c(C)cccc4C)c(=O)n(C)c3n2)cc1

>  <Name>  (958) 
nan

>  <Pocket>  (958) 
nan

>  <ATP_Site>  (958) 
nan

>  <Peripheral>  (958) 
nan

>  <Num_H_Atoms_ProtBoundConf>  (958) 
nan

>  <Num_Resolved_Atoms>  (958) 
nan

>  <Num_Not_Resolved_Atoms>  (958) 
nan

$$$$
CHEMBL181031
     RDKit          3D

  0  0  0  0  0  0  0  0  0  0999 V3000
M  V30 BEGIN CTAB
M  V30 COUNTS 62 68 0 0 0
M  V30 BEGIN ATOM
M  V30 1 O -0.301475 -1.058291 6.517112 0
M  V30 2 C 0.299859 -0.131587 5.917792 0
M  V30 3 N 1.016358 0.907868 6.613724 0
M  V30 4 C 1.524086 1.718217 5.536455 0
M  V30 5 O 2.226497 2.758920 5.738286 0
M  V30 6 C 1.117351 1.170380 4.260086 0
M  V30 7 C 1.411176 1.722651 2.920077 0
M  V30 8 C 0.485989 1.838059 1.879411 0
M  V30 9 N 1.123986 2.361210 0.825006 0
M  V30 10 C 2.400225 2.564941 1.195278 0
M  V30 11 C 3.516497 3.065967 0.559283 0
M  V30 12 C 4.734686 3.157215 1.208752 0
M  V30 13 C 4.881510 2.752043 2.516066 0
M  V30 14 N 3.772760 2.266647 3.110037 0
M  V30 15 N 2.615742 2.183808 2.480681 0
M  V30 16 C 0.385641 0.063755 4.477093 0
M  V30 17 C -0.161499 -0.751557 3.398348 0
M  V30 18 C 0.629079 -1.053566 2.280645 0
M  V30 19 N -0.034700 -1.794078 1.387746 0
M  V30 20 C -1.272896 -1.990589 1.906909 0
M  V30 21 C -2.389548 -2.674553 1.435708 0
M  V30 22 C -3.520395 -2.683070 2.220301 0
M  V30 23 C -3.586996 -2.037226 3.459478 0
M  V30 24 C -2.475050 -1.343185 3.951922 0
M  V30 25 C -1.368977 -1.360704 3.135640 0
M  V30 26 C -2.700634 -3.459889 0.204080 0
M  V30 27 N -1.573499 -3.297847 -0.683781 0
M  V30 28 C -1.888515 -2.882422 -1.995461 0
M  V30 29 O -3.142269 -2.774329 -2.015476 0
M  V30 30 N -1.518158 -2.521367 -3.309020 0
M  V30 31 C -2.573132 -2.175136 -4.235976 0
M  V30 32 C -2.401148 -0.686433 -4.554748 0
M  V30 33 C -1.067706 -0.364834 -5.139503 0
M  V30 34 C 0.081790 -1.025243 -4.435735 0
M  V30 35 C -0.208747 -2.416319 -3.960566 0
M  V30 36 C -0.196511 -3.528975 -0.332623 0
M  V30 37 C 0.503691 -2.271859 0.124748 0
M  V30 38 H 1.164031 1.079978 7.631987 0
M  V30 39 H -0.560547 1.545818 1.956998 0
M  V30 40 H 3.456182 3.394722 -0.460301 0
M  V30 41 H 5.603275 3.554267 0.689796 0
M  V30 42 H 5.806012 2.802512 3.071608 0
M  V30 43 H 1.665247 -0.767541 2.079983 0
M  V30 44 H -4.428247 -3.194714 1.919395 0
M  V30 45 H -4.479908 -2.059989 4.050400 0
M  V30 46 H -2.498105 -0.840416 4.895503 0
M  V30 47 H -2.693911 -4.533814 0.554997 0
M  V30 48 H -3.661389 -3.185624 -0.233715 0
M  V30 49 H -3.571110 -2.288488 -3.801914 0
M  V30 50 H -2.446502 -2.753017 -5.182725 0
M  V30 51 H -2.501543 -0.177132 -3.580705 0
M  V30 52 H -3.185775 -0.356553 -5.258652 0
M  V30 53 H -0.921770 0.746328 -5.000946 0
M  V30 54 H -1.047152 -0.504797 -6.234244 0
M  V30 55 H 0.483982 -0.402062 -3.596347 0
M  V30 56 H 0.912813 -1.090530 -5.179377 0
M  V30 57 H -0.251460 -3.074565 -4.858096 0
M  V30 58 H 0.613639 -2.743028 -3.303790 0
M  V30 59 H -0.079143 -4.296583 0.465349 0
M  V30 60 H 0.414964 -3.918699 -1.193303 0
M  V30 61 H 0.492343 -1.479147 -0.650024 0
M  V30 62 H 1.567820 -2.527787 0.304055 0
M  V30 END ATOM
M  V30 BEGIN BOND
M  V30 1 2 1 2
M  V30 2 1 2 3
M  V30 3 1 3 4
M  V30 4 2 4 5
M  V30 5 1 4 6
M  V30 6 1 6 7
M  V30 7 2 7 8
M  V30 8 1 8 9
M  V30 9 2 9 10
M  V30 10 1 10 11
M  V30 11 2 11 12
M  V30 12 1 12 13
M  V30 13 2 13 14
M  V30 14 1 14 15
M  V30 15 2 6 16
M  V30 16 1 16 17
M  V30 17 2 17 18
M  V30 18 1 18 19
M  V30 19 1 19 20
M  V30 20 2 20 21
M  V30 21 1 21 22
M  V30 22 2 22 23
M  V30 23 1 23 24
M  V30 24 2 24 25
M  V30 25 1 21 26
M  V30 26 1 26 27
M  V30 27 1 27 28
M  V30 28 2 28 29
M  V30 29 1 28 30
M  V30 30 1 30 31
M  V30 31 1 31 32
M  V30 32 1 32 33
M  V30 33 1 33 34
M  V30 34 1 34 35
M  V30 35 1 27 36
M  V30 36 1 36 37
M  V30 37 1 16 2
M  V30 38 1 25 17
M  V30 39 1 35 30
M  V30 40 1 15 7
M  V30 41 1 37 19
M  V30 42 1 15 10
M  V30 43 1 25 20
M  V30 44 1 3 38
M  V30 45 1 8 39
M  V30 46 1 11 40
M  V30 47 1 12 41
M  V30 48 1 13 42
M  V30 49 1 18 43
M  V30 50 1 22 44
M  V30 51 1 23 45
M  V30 52 1 24 46
M  V30 53 1 26 47
M  V30 54 1 26 48
M  V30 55 1 31 49
M  V30 56 1 31 50
M  V30 57 1 32 51
M  V30 58 1 32 52
M  V30 59 1 33 53
M  V30 60 1 33 54
M  V30 61 1 34 55
M  V30 62 1 34 56
M  V30 63 1 35 57
M  V30 64 1 35 58
M  V30 65 1 36 59
M  V30 66 1 36 60
M  V30 67 1 37 61
M  V30 68 1 37 62
M  V30 END BOND
M  V30 END CTAB
M  END
>  <Dataset>  (959) 
ChEMBL_Kinases

>  <Ligand_Instance>  (959) 
nan

>  <PDB_ID>  (959) 
nan

>  <Standardized_SMILES>  (959) 
O=C1NC(=O)C(c2cnc3cccnn23)=C1c1cn2c3c(cccc13)CN(C(=O)N1CCCCC1)CC2

>  <Name>  (959) 
BISARYLMALEIMIDE 1

>  <Pocket>  (959) 
nan

>  <ATP_Site>  (959) 
nan

>  <Peripheral>  (959) 
nan

>  <Num_H_Atoms_ProtBoundConf>  (959) 
nan

>  <Num_Resolved_Atoms>  (959) 
nan

>  <Num_Not_Resolved_Atoms>  (959) 
nan

$$$$
CHEMBL181017
     RDKit          3D

  0  0  0  0  0  0  0  0  0  0999 V3000
M  V30 BEGIN CTAB
M  V30 COUNTS 65 68 0 0 0
M  V30 BEGIN ATOM
M  V30 1 C 7.029053 0.501681 4.228560 0
M  V30 2 C 6.131795 1.483410 3.500394 0
M  V30 3 N 4.953161 0.884109 2.984458 0
M  V30 4 C 4.004312 0.432820 3.944642 0
M  V30 5 C 3.332776 1.558812 4.705322 0
M  V30 6 C 5.111035 0.048578 1.838182 0
M  V30 7 C 5.485528 0.811316 0.611292 0
M  V30 8 O 4.564879 1.775897 0.226709 0
M  V30 9 C 3.268020 1.677366 -0.159289 0
M  V30 10 C 2.356415 0.671045 -0.343419 0
M  V30 11 C 1.052595 0.822235 -0.750951 0
M  V30 12 C 0.637499 2.114247 -0.993929 0
M  V30 13 N -0.703498 2.277314 -1.407486 0
M  V30 14 C -1.558390 1.158388 -1.597533 0
M  V30 15 N -1.719419 0.587854 -2.796846 0
M  V30 16 C -2.535102 -0.488029 -3.000861 0
M  V30 17 C -3.230149 -1.021521 -1.931658 0
M  V30 18 C -4.076626 -2.114109 -2.052276 0
M  V30 19 C -4.255607 -2.736594 -3.375880 0
M  V30 20 C -4.727540 -2.573360 -0.905805 0
M  V30 21 C -5.636257 -3.736554 -1.012653 0
M  V30 22 C -5.035304 -4.976979 -0.820699 0
M  V30 23 C -5.772751 -6.163070 -0.894348 0
M  V30 24 C -7.125708 -6.071065 -1.164622 0
M  V30 25 C -7.714207 -4.840232 -1.353678 0
M  V30 26 C -7.003649 -3.662732 -1.284933 0
M  V30 27 Cl -7.673408 -2.068533 -1.510528 0
M  V30 28 C -4.552767 -1.976678 0.326214 0
M  V30 29 O -5.121048 -2.363707 1.372346 0
M  V30 30 N -3.715430 -0.915465 0.380974 0
M  V30 31 C -3.524892 -0.282161 1.674756 0
M  V30 32 C -3.045297 -0.410902 -0.695735 0
M  V30 33 N -2.225252 0.649573 -0.560880 0
M  V30 34 C 1.473841 3.196598 -0.840410 0
M  V30 35 C 2.792337 2.970549 -0.421933 0
M  V30 36 H 6.984909 -0.510710 3.797935 0
M  V30 37 H 8.053545 0.889446 4.185948 0
M  V30 38 H 6.740140 0.433683 5.300839 0
M  V30 39 H 5.888658 2.276599 4.208306 0
M  V30 40 H 6.728197 1.878882 2.654775 0
M  V30 41 H 3.194285 -0.119284 3.385305 0
M  V30 42 H 4.431630 -0.255674 4.715807 0
M  V30 43 H 3.180349 1.301665 5.775703 0
M  V30 44 H 2.319274 1.766487 4.260783 0
M  V30 45 H 3.893957 2.503709 4.553804 0
M  V30 46 H 5.905809 -0.728225 1.986853 0
M  V30 47 H 4.173767 -0.502040 1.677705 0
M  V30 48 H 6.525830 1.204811 0.665854 0
M  V30 49 H 5.532273 0.069456 -0.240782 0
M  V30 50 H 2.773511 -0.299773 -0.143441 0
M  V30 51 H 0.479235 -0.087316 -0.840757 0
M  V30 52 H -1.163503 3.212560 -1.603162 0
M  V30 53 H -2.644599 -0.927121 -3.983786 0
M  V30 54 H -3.375843 -3.371992 -3.589139 0
M  V30 55 H -4.402740 -1.952631 -4.168712 0
M  V30 56 H -5.152948 -3.372969 -3.443801 0
M  V30 57 H -3.959074 -5.046280 -0.606461 0
M  V30 58 H -5.351011 -7.148540 -0.753336 0
M  V30 59 H -7.817673 -6.897781 -1.251341 0
M  V30 60 H -8.785396 -4.728522 -1.571632 0
M  V30 61 H -2.590950 0.300753 1.697527 0
M  V30 62 H -3.430625 -1.104086 2.441607 0
M  V30 63 H -4.413066 0.295219 1.984133 0
M  V30 64 H 1.041914 4.156228 -1.058401 0
M  V30 65 H 3.318137 3.935540 -0.350837 0
M  V30 END ATOM
M  V30 BEGIN BOND
M  V30 1 1 1 2
M  V30 2 1 2 3
M  V30 3 1 3 4
M  V30 4 1 4 5
M  V30 5 1 3 6
M  V30 6 1 6 7
M  V30 7 1 7 8
M  V30 8 1 8 9
M  V30 9 2 9 10
M  V30 10 1 10 11
M  V30 11 2 11 12
M  V30 12 1 12 13
M  V30 13 1 13 14
M  V30 14 2 14 15
M  V30 15 1 15 16
M  V30 16 2 16 17
M  V30 17 1 17 18
M  V30 18 1 18 19
M  V30 19 2 18 20
M  V30 20 1 20 21
M  V30 21 2 21 22
M  V30 22 1 22 23
M  V30 23 2 23 24
M  V30 24 1 24 25
M  V30 25 2 25 26
M  V30 26 1 26 27
M  V30 27 1 20 28
M  V30 28 2 28 29
M  V30 29 1 28 30
M  V30 30 1 30 31
M  V30 31 1 30 32
M  V30 32 2 32 33
M  V30 33 1 12 34
M  V30 34 2 34 35
M  V30 35 1 35 9
M  V30 36 1 33 14
M  V30 37 1 32 17
M  V30 38 1 26 21
M  V30 39 1 1 36
M  V30 40 1 1 37
M  V30 41 1 1 38
M  V30 42 1 2 39
M  V30 43 1 2 40
M  V30 44 1 4 41
M  V30 45 1 4 42
M  V30 46 1 5 43
M  V30 47 1 5 44
M  V30 48 1 5 45
M  V30 49 1 6 46
M  V30 50 1 6 47
M  V30 51 1 7 48
M  V30 52 1 7 49
M  V30 53 1 10 50
M  V30 54 1 11 51
M  V30 55 1 13 52
M  V30 56 1 16 53
M  V30 57 1 19 54
M  V30 58 1 19 55
M  V30 59 1 19 56
M  V30 60 1 22 57
M  V30 61 1 23 58
M  V30 62 1 24 59
M  V30 63 1 25 60
M  V30 64 1 31 61
M  V30 65 1 31 62
M  V30 66 1 31 63
M  V30 67 1 34 64
M  V30 68 1 35 65
M  V30 END BOND
M  V30 END CTAB
M  END
>  <Dataset>  (960) 
ChEMBL_Kinases

>  <Ligand_Instance>  (960) 
nan

>  <PDB_ID>  (960) 
nan

>  <Standardized_SMILES>  (960) 
CCN(CC)CCOc1ccc(Nc2ncc3c(C)c(-c4ccccc4Cl)c(=O)n(C)c3n2)cc1

>  <Name>  (960) 
nan

>  <Pocket>  (960) 
nan

>  <ATP_Site>  (960) 
nan

>  <Peripheral>  (960) 
nan

>  <Num_H_Atoms_ProtBoundConf>  (960) 
nan

>  <Num_Resolved_Atoms>  (960) 
nan

>  <Num_Not_Resolved_Atoms>  (960) 
nan

$$$$
CHEMBL1809232
     RDKit          3D

  0  0  0  0  0  0  0  0  0  0999 V3000
M  V30 BEGIN CTAB
M  V30 COUNTS 605 617 0 0 0
M  V30 BEGIN ATOM
M  V30 1 C 5.961445 0.023451 10.647222 0
M  V30 2 C 4.852142 0.963214 11.159087 0
M  V30 3 C 3.513229 0.380476 10.706329 0 CFG=2
M  V30 4 C 3.475617 -0.998244 11.319859 0
M  V30 5 C 3.451711 0.344738 9.230013 0 CFG=2
M  V30 6 N 3.507079 1.686948 8.599221 0
M  V30 7 C 3.234066 3.009367 9.106430 0
M  V30 8 O 2.879776 3.067944 10.341760 0
M  V30 9 C 3.186806 4.403946 8.767650 0 CFG=2
M  V30 10 C 1.816578 4.971132 9.203168 0
M  V30 11 N 3.411794 4.756165 7.369714 0
M  V30 12 C 3.272245 6.157934 7.112688 0
M  V30 13 O 2.960509 6.990297 7.982598 0
M  V30 14 C 3.448242 6.913693 5.844892 0 CFG=1
M  V30 15 N 2.799345 8.231034 5.905285 0
M  V30 16 C 2.248150 8.709203 4.676136 0
M  V30 17 O 2.159525 8.326464 3.500525 0
M  V30 18 C 1.517633 9.897868 4.205967 0 CFG=2
M  V30 19 C 0.080157 9.977696 4.729921 0
M  V30 20 C -0.727302 8.806695 4.257064 0
M  V30 21 C -2.114940 8.937205 4.745229 0
M  V30 22 N -3.081100 7.946222 4.463141 0
M  V30 23 O -2.498944 9.923977 5.427367 0
M  V30 24 N 1.401821 9.860645 2.753559 0
M  V30 25 C 2.039698 10.662031 1.778573 0
M  V30 26 O 2.791622 11.429620 2.535506 0
M  V30 27 C 2.393485 11.178047 0.476553 0 CFG=2
M  V30 28 C 2.265327 12.721493 0.469907 0
M  V30 29 C 0.831051 12.937283 0.136246 0
M  V30 30 C 0.319372 11.668518 -0.514777 0
M  V30 31 N 1.540189 10.879366 -0.644746 0
M  V30 32 C 1.707706 10.047902 -1.784052 0
M  V30 33 O 2.790049 9.362810 -1.628802 0
M  V30 34 C 1.205366 9.611074 -3.078283 0 CFG=2
M  V30 35 C 2.358315 9.714339 -4.090190 0
M  V30 36 C 2.087875 9.250064 -5.431048 0
M  V30 37 C 1.762797 9.644554 -6.702372 0
M  V30 38 C 1.526466 8.922477 -7.815569 0
M  V30 39 C 1.612083 7.543186 -7.733102 0
M  V30 40 C 1.936877 6.989769 -6.508004 0
M  V30 41 C 2.158282 7.837130 -5.426897 0
M  V30 42 N 0.074063 10.400203 -3.502243 0
M  V30 43 C -0.131788 11.534136 -4.287969 0
M  V30 44 O 0.946078 12.023206 -4.742804 0
M  V30 45 C -1.105670 12.459384 -4.844614 0 CFG=1
M  V30 46 N -2.494823 12.201446 -4.454255 0
M  V30 47 C -3.676561 12.352761 -5.279718 0
M  V30 48 O -3.580901 12.728342 -6.472886 0
M  V30 49 C -5.016543 12.107206 -4.823006 0 CFG=2
M  V30 50 C -5.640678 13.525164 -4.562827 0
M  V30 51 C -5.640375 14.236190 -5.847124 0
M  V30 52 C -4.920861 15.105943 -6.640753 0
M  V30 53 N -5.571691 15.378598 -7.774047 0
M  V30 54 C -6.742335 14.693784 -7.758293 0
M  V30 55 N -6.770662 14.018447 -6.604485 0
M  V30 56 N -5.076729 11.352962 -3.607119 0
M  V30 57 C -6.010209 11.133516 -2.574650 0
M  V30 58 O -7.099449 11.779080 -2.646588 0
M  V30 59 C -5.988443 10.259132 -1.346756 0 CFG=2
M  V30 60 C -5.232241 11.108001 -0.312291 0
M  V30 61 C -5.915777 12.398670 -0.067915 0
M  V30 62 C -5.529256 13.460989 -0.881141 0
M  V30 63 C -6.061036 14.739556 -0.820335 0
M  V30 64 C -7.043656 15.014705 0.100463 0
M  V30 65 C -7.433072 13.980084 0.903533 0
M  V30 66 C -6.903247 12.710737 0.840819 0
M  V30 67 N -5.137911 9.127345 -1.713831 0
M  V30 68 C -5.716661 7.808762 -1.607738 0
M  V30 69 O -6.860495 7.463506 -1.215534 0
M  V30 70 C -4.725097 6.809100 -2.067641 0 CFG=2
M  V30 71 C -4.491197 7.137865 -3.543744 0
M  V30 72 C -3.417009 6.193853 -4.092463 0
M  V30 73 C -2.115080 6.510143 -3.402387 0
M  V30 74 C -1.108872 5.475301 -3.695363 0
M  V30 75 N 0.152557 5.723744 -2.984074 0
M  V30 76 C -0.249656 5.739656 -1.582885 0
M  V30 77 O -1.430313 5.561358 -1.123915 0
M  V30 78 C 0.376022 5.931153 -0.281426 0 CFG=2
M  V30 79 C -0.141423 7.288988 0.269908 0
M  V30 80 N 1.812527 5.948489 -0.319176 0
M  V30 81 C 2.405100 5.842687 0.952990 0
M  V30 82 O 1.627791 5.817296 1.930539 0
M  V30 83 C 3.940639 5.767991 0.924790 0 CFG=2
M  V30 84 C 4.543645 6.970602 1.530472 0
M  V30 85 C 6.023096 6.875184 1.447726 0
M  V30 86 C 6.968202 6.375821 2.300100 0
M  V30 87 C 8.310091 6.415154 2.004804 0
M  V30 88 C 8.720550 6.976970 0.810860 0
M  V30 89 C 7.814692 7.492163 -0.078513 0
M  V30 90 C 6.464442 7.431980 0.259413 0
M  V30 91 N 4.381363 5.440197 -0.402999 0
M  V30 92 C 3.718309 4.252488 -0.816090 0
M  V30 93 O 2.840438 3.590597 -0.117232 0
M  V30 94 C 3.434609 3.180150 -1.760999 0 CFG=2
M  V30 95 C 3.492258 3.490502 -3.210553 0
M  V30 96 C 4.799122 3.964518 -3.758047 0
M  V30 97 C 4.561217 4.127251 -5.278498 0
M  V30 98 C 5.768461 4.595448 -6.010957 0
M  V30 99 N 5.530647 4.731851 -7.440363 0
M  V30 100 N 2.242318 2.410613 -1.407391 0
M  V30 101 C 2.007176 1.179686 -0.779448 0
M  V30 102 O 2.782963 0.349575 -0.292917 0
M  V30 103 C 0.803494 0.321213 -0.429881 0 CFG=2
M  V30 104 C 0.151816 1.038404 0.698277 0
M  V30 105 C -1.086053 0.530955 1.304198 0
M  V30 106 C -0.981691 -0.822291 1.918004 0
M  V30 107 N -2.275828 -1.217322 2.527006 0
M  V30 108 C -2.450050 -2.450644 3.221053 0
M  V30 109 N -1.557045 -3.369263 3.030709 0
M  V30 110 N -3.578330 -2.574993 4.062395 0
M  V30 111 N 1.429228 -0.903671 0.115453 0
M  V30 112 C 1.406339 -2.223421 -0.438560 0
M  V30 113 O 0.749630 -2.216228 -1.510031 0
M  V30 114 C 2.100794 -3.316097 0.281592 0 CFG=2
M  V30 115 C 3.622133 -3.162402 0.234044 0
M  V30 116 C 4.265743 -4.310723 0.978887 0
M  V30 117 C 5.776600 -4.147006 0.919038 0
M  V30 118 C 6.495859 -5.274528 1.627029 0
M  V30 119 N 6.155053 -6.565638 0.987270 0
M  V30 120 N 1.806932 -4.618366 -0.170091 0
M  V30 121 C 1.920710 -5.469891 -1.272135 0
M  V30 122 O 2.498723 -4.837046 -2.226241 0
M  V30 123 C 1.637090 -6.817123 -1.764727 0 CFG=2
M  V30 124 C 1.023983 -6.884181 -3.105364 0
M  V30 125 C 1.758570 -6.332021 -4.261811 0
M  V30 126 C 3.113043 -6.984180 -4.511181 0
M  V30 127 C 3.670275 -6.259488 -5.742448 0
M  V30 128 N 4.961459 -6.746640 -6.134978 0
M  V30 129 N 0.901712 -7.687359 -0.886131 0
M  V30 130 C -0.040390 -7.792579 0.135174 0
M  V30 131 O -0.607234 -6.787268 0.595087 0
M  V30 132 C -0.553530 -8.926930 0.844626 0 CFG=2
M  V30 133 C -0.501902 -8.936408 2.338621 0
M  V30 134 C 0.831763 -8.823275 2.958649 0
M  V30 135 C 1.582043 -7.552012 2.803546 0
M  V30 136 C 0.870009 -6.385639 3.469898 0
M  V30 137 N 1.674970 -5.197545 3.283933 0
M  V30 138 N 0.020830 -10.228190 0.438532 0
M  V30 139 C -0.772530 -11.342909 0.049917 0
M  V30 140 O -1.990064 -11.065104 0.087377 0
M  V30 141 C -0.506983 -12.719321 -0.375198 0 CFG=2
M  V30 142 C 0.336734 -12.805800 -1.632927 0
M  V30 143 C 0.207057 -14.302681 -1.931485 0
M  V30 144 C -1.020247 -14.705371 -1.094237 0
M  V30 145 N -1.686439 -13.428749 -0.784870 0
M  V30 146 C -3.070500 -13.259002 -0.945940 0
M  V30 147 O -3.870979 -12.323533 -0.754165 0
M  V30 148 C -4.325509 -13.893364 -1.362839 0 CFG=2
M  V30 149 C -4.211602 -14.855484 -2.508477 0
M  V30 150 N -5.386051 -12.920542 -1.560402 0
M  V30 151 C -5.409997 -11.617594 -2.042661 0
M  V30 152 O -4.547360 -10.836631 -2.478321 0
M  V30 153 C -6.180246 -10.394310 -2.372554 0 CFG=2
M  V30 154 C -7.267938 -10.674776 -3.374924 0
M  V30 155 C -8.003150 -9.400695 -3.666279 0
M  V30 156 C -9.140319 -9.585113 -4.593946 0
M  V30 157 C -8.771272 -10.115592 -5.943772 0
M  V30 158 N -8.168586 -11.407366 -5.953627 0
M  V30 159 N -5.304421 -9.372726 -2.892537 0
M  V30 160 C -4.808008 -8.187835 -2.215474 0
M  V30 161 O -5.227093 -8.081922 -1.021257 0
M  V30 162 C -3.910200 -7.307044 -2.987693 0 CFG=2
M  V30 163 C -4.058464 -5.858385 -2.889384 0
M  V30 164 C -5.342998 -5.262433 -3.323861 0
M  V30 165 C -6.493185 -5.764547 -2.500720 0
M  V30 166 N -7.674047 -5.046205 -3.018984 0
M  V30 167 C -8.895200 -5.355399 -2.412146 0
M  V30 168 N -8.999276 -6.137538 -1.384803 0
M  V30 169 N -10.108603 -4.811828 -2.890427 0
M  V30 170 N -3.748679 -7.788888 -4.364417 0
M  V30 171 C -2.752483 -8.736566 -4.714379 0
M  V30 172 O -1.986157 -9.188159 -3.806403 0
M  V30 173 C -2.449089 -9.312240 -6.034557 0 CFG=2
M  V30 174 C -0.950328 -9.368560 -6.267349 0
M  V30 175 C -0.692871 -9.984462 -7.635363 0
M  V30 176 C 0.775116 -10.105523 -7.907403 0
M  V30 177 C 1.439956 -8.753165 -7.870740 0
M  V30 178 N 2.853367 -8.984144 -8.146568 0
M  V30 179 N -3.179555 -8.707188 -7.111508 0
M  V30 180 C -4.082369 -8.824605 -8.202149 0
M  V30 181 O -4.487040 -10.024466 -8.383697 0
M  V30 182 C -4.451319 -7.633727 -8.983048 0 CFG=1
M  V30 183 N -3.900081 -6.397842 -8.452308 0
M  V30 184 C -4.259281 -7.778856 -10.460821 0
M  V30 185 C -2.866789 -8.060371 -10.924546 0
M  V30 186 C -1.906694 -6.977328 -10.541804 0
M  V30 187 C -0.545569 -7.399481 -11.104805 0
M  V30 188 N -0.708734 -7.513108 -12.524922 0
M  V30 189 N -5.310975 5.516319 -1.912653 0
M  V30 190 C -5.083941 4.160867 -1.724735 0
M  V30 191 O -3.820805 3.843871 -1.678661 0
M  V30 192 C -5.363225 2.779702 -1.538157 0 CFG=2
M  V30 193 C -5.809595 2.397670 -0.147206 0
M  V30 194 C -7.020015 2.970490 0.419208 0
M  V30 195 C -7.179291 2.371517 1.852292 0
M  V30 196 C -7.203513 4.433106 0.509222 0
M  V30 197 N -4.497881 1.742879 -1.973366 0
M  V30 198 C -3.607175 1.232760 -2.918298 0
M  V30 199 O -3.501110 2.179329 -3.742686 0
M  V30 200 C -2.985484 -0.055573 -2.944154 0 CFG=2
M  V30 201 C -2.896091 -0.905978 -1.706055 0
M  V30 202 C -2.659179 -2.270320 -2.403012 0
M  V30 203 C -2.272072 -1.838391 -3.854411 0
M  V30 204 N -1.880973 -0.414511 -3.703061 0
M  V30 205 C -0.680442 -0.092923 -4.369316 0
M  V30 206 O -0.559674 1.066480 -3.828258 0
M  V30 207 C 0.314740 -0.580984 -5.331149 0 CFG=1
M  V30 208 N 1.628376 -0.875082 -4.933162 0
M  V30 209 C 2.744897 -0.552438 -4.153335 0
M  V30 210 O 1.973593 0.361383 -3.729045 0
M  V30 211 C 4.121746 -1.032649 -3.928233 0 CFG=2
M  V30 212 C 4.341921 -2.413661 -4.428392 0
M  V30 213 O 3.917590 -2.514798 -5.761261 0
M  V30 214 N 4.593753 -0.764888 -2.609886 0
M  V30 215 C 5.611315 0.026561 -2.045468 0
M  V30 216 O 6.174684 0.592308 -3.065912 0
M  V30 217 C 6.332003 0.511805 -0.890431 0 CFG=2
M  V30 218 C 7.857969 0.267526 -1.066760 0
M  V30 219 C 8.105555 -1.211255 -1.228861 0
M  V30 220 C 9.565708 -1.419532 -1.400130 0
M  V30 221 N 9.779555 -2.817241 -1.561656 0
M  V30 222 O 10.544670 -0.617134 -1.419914 0
M  V30 223 N 5.939489 0.139951 0.416780 0
M  V30 224 C 5.315151 0.766616 1.527972 0
M  V30 225 O 4.943853 1.992195 1.405145 0
M  V30 226 C 4.888824 0.546133 2.872329 0 CFG=2
M  V30 227 C 5.040362 -0.836640 3.476823 0
M  V30 228 C 6.484284 -1.216510 3.567937 0
M  V30 229 S 6.722024 -2.863387 4.301928 0
M  V30 230 C 8.522613 -3.173478 4.318962 0
M  V30 231 N 3.759201 1.278416 3.362174 0
M  V30 232 C 3.440003 2.156489 4.465944 0
M  V30 233 O 4.547803 2.204645 5.048426 0
M  V30 234 C 2.074365 2.642475 4.548009 0
M  V30 235 C 1.489738 2.955596 3.355206 0
M  V30 236 C 0.174951 3.324461 3.263055 0
M  V30 237 C -0.540070 3.362742 4.452409 0
M  V30 238 C -0.087092 3.079275 5.734703 0
M  V30 239 C 1.255287 2.726153 5.655479 0
M  V30 240 C -1.181116 3.276761 6.670751 0
M  V30 241 O -2.334138 3.374149 5.804084 0
M  V30 242 C -1.985416 3.558783 4.495838 0
M  V30 243 O -2.822717 3.840550 3.607785 0
M  V30 244 C -1.406865 2.136013 7.597277 0
M  V30 245 C -1.371264 0.866687 7.033134 0
M  V30 246 C -1.588510 -0.170713 7.908833 0
M  V30 247 C -1.829015 -0.082632 9.234407 0
M  V30 248 O -2.051771 -1.094450 10.156362 0
M  V30 249 C -1.869869 1.173633 9.806275 0
M  V30 250 C -1.653607 2.245920 8.956788 0
M  V30 251 O -1.682127 3.528363 9.533468 0
M  V30 252 C -1.468168 4.638761 8.774096 0
M  V30 253 C -1.522981 5.828188 9.482597 0
M  V30 254 C -1.306935 7.029093 8.802129 0
M  V30 255 O -1.369993 8.206839 9.552109 0
M  V30 256 C -1.054133 6.948033 7.461437 0
M  V30 257 C -1.001302 5.771407 6.757534 0
M  V30 258 C -1.211282 4.574870 7.408550 0
M  V30 259 C -0.172370 -1.324419 -6.525859 0 CFG=1
M  V30 260 C 0.887117 -1.048482 -7.646818 0
M  V30 261 O -0.183506 -2.692827 -6.432206 0
M  V30 262 P -1.578579 -3.289701 -7.145904 0
M  V30 263 O -2.201738 -4.240781 -6.152521 0
M  V30 264 O -1.245233 -4.202563 -8.540817 0
M  V30 265 O -2.694782 -2.080268 -7.514352 0
M  V30 266 C -0.759547 13.884512 -4.385918 0 CFG=1
M  V30 267 C 0.599410 14.333498 -4.856542 0
M  V30 268 O -1.682541 14.703908 -5.034725 0
M  V30 269 C 4.973460 7.264462 5.876553 0 CFG=1
M  V30 270 C 5.720631 5.971306 5.971742 0
M  V30 271 O 5.335812 8.072113 4.830147 0
M  V30 272 C 2.633692 -0.565077 8.499869 0
M  V30 273 O 2.702038 -0.115426 7.288061 0
M  V30 274 N 1.821476 -1.699877 8.594912 0
M  V30 275 C 1.173520 -2.332307 7.478434 0
M  V30 276 C 0.256275 -3.403788 7.944546 0
M  V30 277 O 0.515749 -3.189364 9.184706 0
M  V30 278 N -0.644602 -4.402323 7.618225 0
M  V30 279 C -1.197669 -5.073311 8.772686 0 CFG=2
M  V30 280 C -0.968822 -6.588740 8.656512 0
M  V30 281 O -0.711409 -6.712556 7.436902 0
M  V30 282 N -1.089717 -7.422840 9.805076 0
M  V30 283 C -0.895023 -8.788495 9.368900 0
M  V30 284 C 0.362649 -9.106488 8.719390 0
M  V30 285 O 0.150225 -10.367149 8.449376 0
M  V30 286 N 1.648620 -8.661816 8.272464 0
M  V30 287 C 2.443620 -9.646168 7.579694 0 CFG=1
M  V30 288 C 2.696332 -8.999383 6.193319 0
M  V30 289 C 3.786210 -9.886808 8.189034 0
M  V30 290 O 3.955136 -8.997378 9.021155 0
M  V30 291 N 4.392144 -11.054756 7.586744 0
M  V30 292 C 3.912865 -12.021807 6.594983 0
M  V30 293 C 4.910014 -11.922581 5.456712 0
M  V30 294 C 6.208864 -11.769293 6.240283 0
M  V30 295 C 5.692510 -11.703765 7.693603 0 CFG=1
M  V30 296 C 6.681445 -10.985161 8.493494 0
M  V30 297 N 7.955106 -11.530248 8.765465 0
M  V30 298 O 6.419077 -9.833782 8.976852 0
M  V30 299 C -2.745514 -5.049574 8.643837 0
M  V30 300 C -3.318684 -3.683206 8.544112 0
M  V30 301 C -3.310952 -5.641228 9.941254 0
M  V30 302 H 6.802467 0.110753 11.417031 0
M  V30 303 H 5.669205 -1.010005 10.589506 0
M  V30 304 H 6.412801 0.428299 9.726449 0
M  V30 305 H 4.920058 1.055551 12.245898 0
M  V30 306 H 5.037157 1.895266 10.606584 0
M  V30 307 H 2.656965 0.956639 11.157167 0
M  V30 308 H 4.128683 -1.045673 12.244706 0
M  V30 309 H 3.823109 -1.786353 10.641414 0
M  V30 310 H 2.473202 -1.279574 11.696835 0
M  V30 311 H 4.563733 0.010407 8.989992 0
M  V30 312 H 3.784622 1.880162 7.616837 0
M  V30 313 H 3.887962 5.028101 9.362076 0
M  V30 314 H 1.921171 5.605382 10.100182 0
M  V30 315 H 1.213030 4.107622 9.514398 0
M  V30 316 H 1.322091 5.458718 8.357558 0
M  V30 317 H 3.643522 4.266400 6.479808 0
M  V30 318 H 3.209879 6.373094 4.955289 0
M  V30 319 H 2.609628 8.951437 6.605524 0
M  V30 320 H 2.053107 10.788068 4.550097 0
M  V30 321 H 0.091342 10.125632 5.816962 0
M  V30 322 H -0.358971 10.887110 4.290524 0
M  V30 323 H -0.330091 7.825645 4.610840 0
M  V30 324 H -0.763463 8.861661 3.150829 0
M  V30 325 H -3.550882 7.328448 3.761316 0
M  V30 326 H -3.827151 7.341132 4.888079 0
M  V30 327 H 0.860722 9.284344 2.056893 0
M  V30 328 H 3.460045 10.928667 0.186099 0
M  V30 329 H 2.563837 13.049311 1.487569 0
M  V30 330 H 2.981053 13.108424 -0.306469 0
M  V30 331 H 0.234568 13.152085 1.040182 0
M  V30 332 H 0.740506 13.730601 -0.640481 0
M  V30 333 H -0.411954 11.158272 0.170250 0
M  V30 334 H -0.181112 11.866346 -1.462253 0
M  V30 335 H 0.917625 8.531081 -3.160058 0
M  V30 336 H 3.209200 9.148507 -3.604692 0
M  V30 337 H 2.744961 10.766643 -4.109584 0
M  V30 338 H 1.735698 10.719370 -6.768662 0
M  V30 339 H 1.274147 9.457953 -8.731332 0
M  V30 340 H 1.417312 6.990387 -8.634541 0
M  V30 341 H 1.980591 5.920365 -6.541158 0
M  V30 342 H 2.410368 7.193747 -4.570511 0
M  V30 343 H -0.917068 10.144028 -3.199718 0
M  V30 344 H -1.115019 12.533776 -5.951022 0
M  V30 345 H -2.569819 11.887777 -3.468636 0
M  V30 346 H -5.691703 11.641204 -5.551160 0
M  V30 347 H -4.932693 14.084184 -3.889865 0
M  V30 348 H -6.580915 13.463574 -4.048605 0
M  V30 349 H -3.975276 15.416159 -6.218026 0
M  V30 350 H -7.321273 14.867464 -8.655911 0
M  V30 351 H -7.649968 13.456183 -6.516984 0
M  V30 352 H -4.212958 10.794589 -3.400590 0
M  V30 353 H -6.969767 10.019244 -1.011027 0
M  V30 354 H -5.069273 10.533004 0.624088 0
M  V30 355 H -4.195441 11.315214 -0.687955 0
M  V30 356 H -4.754262 13.326173 -1.630358 0
M  V30 357 H -5.726308 15.557140 -1.476899 0
M  V30 358 H -7.472065 16.004921 0.167553 0
M  V30 359 H -8.211164 14.163073 1.643764 0
M  V30 360 H -7.193672 11.866936 1.478806 0
M  V30 361 H -4.176362 9.355310 -2.002564 0
M  V30 362 H -3.827839 6.868893 -1.500973 0
M  V30 363 H -4.093092 8.141961 -3.619566 0
M  V30 364 H -5.365701 7.039570 -4.177359 0
M  V30 365 H -3.315764 6.431713 -5.168991 0
M  V30 366 H -3.693826 5.135165 -4.043698 0
M  V30 367 H -2.165275 6.977132 -2.436040 0
M  V30 368 H -1.699545 7.426689 -4.032356 0
M  V30 369 H -0.896802 5.443091 -4.779888 0
M  V30 370 H -1.525338 4.486248 -3.432298 0
M  V30 371 H 1.169617 5.894953 -2.959914 0
M  V30 372 H 0.091545 5.239107 0.537325 0
M  V30 373 H -0.196866 7.257657 1.371088 0
M  V30 374 H 0.411506 8.123557 -0.140141 0
M  V30 375 H -1.193559 7.331842 -0.084681 0
M  V30 376 H 2.224236 6.046843 -1.244849 0
M  V30 377 H 4.149671 4.877405 1.573087 0
M  V30 378 H 4.162725 7.927567 1.130660 0
M  V30 379 H 4.325056 6.887729 2.641410 0
M  V30 380 H 6.499275 5.973438 3.184887 0
M  V30 381 H 8.966555 5.997684 2.763109 0
M  V30 382 H 9.794822 6.964631 0.671446 0
M  V30 383 H 8.221555 7.910215 -0.976151 0
M  V30 384 H 5.890086 7.869835 -0.522211 0
M  V30 385 H 4.916914 5.554623 -1.264439 0
M  V30 386 H 4.265622 2.422042 -1.593001 0
M  V30 387 H 2.622587 4.127496 -3.554789 0
M  V30 388 H 3.297514 2.530124 -3.763061 0
M  V30 389 H 5.571227 3.218653 -3.555169 0
M  V30 390 H 5.157513 4.929818 -3.422484 0
M  V30 391 H 3.743132 4.889572 -5.352337 0
M  V30 392 H 4.130251 3.207624 -5.713276 0
M  V30 393 H 6.576314 3.869196 -5.838637 0
M  V30 394 H 6.013087 5.606005 -5.620756 0
M  V30 395 H 4.736049 5.378037 -7.644914 0
M  V30 396 H 5.365355 3.778569 -7.839156 0
M  V30 397 H 1.304084 2.786066 -1.630215 0
M  V30 398 H 0.200170 0.132030 -1.310215 0
M  V30 399 H 0.968231 1.014867 1.514921 0
M  V30 400 H 0.111799 2.135178 0.446915 0
M  V30 401 H -2.001309 0.673444 0.685303 0
M  V30 402 H -1.320413 1.225551 2.186980 0
M  V30 403 H -0.261844 -0.742451 2.774984 0
M  V30 404 H -0.649060 -1.632548 1.261626 0
M  V30 405 H -3.096448 -0.554967 2.431503 0
M  V30 406 H -1.659304 -4.300442 3.531329 0
M  V30 407 H -4.251411 -3.365734 4.014203 0
M  V30 408 H -3.952686 -1.995812 4.829280 0
M  V30 409 H 1.946864 -0.753627 1.030808 0
M  V30 410 H 1.842958 -3.184607 1.351217 0
M  V30 411 H 3.887811 -3.320570 -0.832190 0
M  V30 412 H 3.889064 -2.171797 0.625914 0
M  V30 413 H 4.028856 -5.288777 0.556252 0
M  V30 414 H 3.981521 -4.215938 2.048520 0
M  V30 415 H 6.114825 -4.035141 -0.126801 0
M  V30 416 H 5.997266 -3.211661 1.448591 0
M  V30 417 H 7.588247 -5.181292 1.544766 0
M  V30 418 H 6.243581 -5.312890 2.698939 0
M  V30 419 H 6.830351 -7.256234 1.388154 0
M  V30 420 H 6.377362 -6.490055 -0.031642 0
M  V30 421 H 1.356789 -5.225525 0.545898 0
M  V30 422 H 2.689672 -7.276885 -1.810580 0
M  V30 423 H 0.873442 -7.979812 -3.320305 0
M  V30 424 H -0.013544 -6.469113 -3.151913 0
M  V30 425 H 1.793789 -5.233074 -4.348647 0
M  V30 426 H 1.150195 -6.640502 -5.177219 0
M  V30 427 H 2.919673 -8.029827 -4.820228 0
M  V30 428 H 3.791149 -6.920289 -3.663646 0
M  V30 429 H 3.715822 -5.168326 -5.549670 0
M  V30 430 H 2.957178 -6.390956 -6.608407 0
M  V30 431 H 5.140378 -6.491285 -7.152346 0
M  V30 432 H 5.698490 -6.215919 -5.594130 0
M  V30 433 H 1.152588 -8.722610 -1.086015 0
M  V30 434 H -1.664613 -9.041695 0.561011 0
M  V30 435 H -1.222712 -8.190522 2.752018 0
M  V30 436 H -0.934679 -9.931242 2.669620 0
M  V30 437 H 1.545645 -9.633963 2.594967 0
M  V30 438 H 0.793115 -9.033142 4.074347 0
M  V30 439 H 1.792801 -7.369417 1.742835 0
M  V30 440 H 2.540219 -7.662459 3.341690 0
M  V30 441 H 0.864233 -6.638642 4.560183 0
M  V30 442 H -0.140093 -6.204959 3.125775 0
M  V30 443 H 1.138101 -4.328532 3.522172 0
M  V30 444 H 2.590015 -5.233492 3.817209 0
M  V30 445 H 1.045558 -10.489130 0.393817 0
M  V30 446 H 0.050881 -13.297207 0.415616 0
M  V30 447 H -0.052037 -12.165964 -2.430272 0
M  V30 448 H 1.412035 -12.647488 -1.385456 0
M  V30 449 H -0.036443 -14.475252 -2.982204 0
M  V30 450 H 1.065607 -14.883243 -1.556097 0
M  V30 451 H -0.693047 -15.142073 -0.123666 0
M  V30 452 H -1.661678 -15.419729 -1.602953 0
M  V30 453 H -4.729278 -14.503854 -0.467545 0
M  V30 454 H -3.525568 -14.482078 -3.309834 0
M  V30 455 H -5.213456 -14.977143 -2.981366 0
M  V30 456 H -3.902530 -15.866085 -2.199932 0
M  V30 457 H -6.414040 -13.037089 -1.356011 0
M  V30 458 H -6.651808 -10.011688 -1.422075 0
M  V30 459 H -7.915633 -11.498118 -3.055523 0
M  V30 460 H -6.695101 -11.008231 -4.304464 0
M  V30 461 H -7.232246 -8.683985 -4.108795 0
M  V30 462 H -8.318430 -8.938585 -2.719064 0
M  V30 463 H -9.850054 -10.303430 -4.109158 0
M  V30 464 H -9.674910 -8.590319 -4.682105 0
M  V30 465 H -9.732316 -10.232838 -6.515059 0
M  V30 466 H -8.144915 -9.391472 -6.523124 0
M  V30 467 H -8.778937 -12.212849 -5.785520 0
M  V30 468 H -7.372482 -11.520548 -6.587449 0
M  V30 469 H -5.007241 -9.548549 -3.889175 0
M  V30 470 H -2.881972 -7.560415 -2.531886 0
M  V30 471 H -3.830338 -5.570551 -1.812368 0
M  V30 472 H -3.171475 -5.404493 -3.453567 0
M  V30 473 H -5.283124 -4.151021 -3.267047 0
M  V30 474 H -5.570482 -5.475332 -4.398277 0
M  V30 475 H -6.679387 -6.825405 -2.825279 0
M  V30 476 H -6.376935 -5.623674 -1.426793 0
M  V30 477 H -7.668513 -4.323618 -3.802644 0
M  V30 478 H -8.117021 -6.563839 -0.984893 0
M  V30 479 H -10.873764 -4.101386 -2.821173 0
M  V30 480 H -10.857131 -4.913354 -3.615334 0
M  V30 481 H -4.356450 -7.470304 -5.179842 0
M  V30 482 H -2.740505 -10.415675 -5.948578 0
M  V30 483 H -0.502482 -9.993665 -5.471746 0
M  V30 484 H -0.530477 -8.359234 -6.186989 0
M  V30 485 H -1.218346 -9.340110 -8.370655 0
M  V30 486 H -1.208424 -10.973720 -7.688810 0
M  V30 487 H 1.293558 -10.753637 -7.171478 0
M  V30 488 H 0.878791 -10.584582 -8.923237 0
M  V30 489 H 1.410861 -8.322579 -6.850040 0
M  V30 490 H 1.000086 -8.009379 -8.550687 0
M  V30 491 H 3.247981 -8.285890 -8.799360 0
M  V30 492 H 3.046691 -9.945096 -8.456695 0
M  V30 493 H -2.805465 -7.723670 -6.962384 0
M  V30 494 H -5.574149 -7.513349 -8.838152 0
M  V30 495 H -4.152362 -6.243566 -7.465312 0
M  V30 496 H -4.246093 -5.632055 -9.080165 0
M  V30 497 H -4.615120 -6.842920 -10.956586 0
M  V30 498 H -4.948923 -8.602995 -10.800507 0
M  V30 499 H -2.903504 -8.065735 -12.053134 0
M  V30 500 H -2.503469 -9.068493 -10.642712 0
M  V30 501 H -1.830456 -6.825455 -9.452285 0
M  V30 502 H -2.171936 -6.006531 -11.000747 0
M  V30 503 H 0.240477 -6.667802 -10.820540 0
M  V30 504 H -0.330039 -8.366774 -10.633073 0
M  V30 505 H -0.320166 -6.754607 -13.092935 0
M  V30 506 H -0.394312 -8.474467 -12.809651 0
M  V30 507 H -6.360295 5.455773 -1.972268 0
M  V30 508 H -6.309395 2.625616 -2.212527 0
M  V30 509 H -4.917158 2.463850 0.570505 0
M  V30 510 H -5.969855 1.267216 -0.123109 0
M  V30 511 H -7.967888 2.568240 -0.069863 0
M  V30 512 H -7.651785 1.379010 1.815834 0
M  V30 513 H -7.701984 3.078102 2.497140 0
M  V30 514 H -6.153604 2.253885 2.253868 0
M  V30 515 H -7.809014 4.668023 1.442478 0
M  V30 516 H -7.898656 4.801596 -0.299805 0
M  V30 517 H -6.308283 5.048802 0.617036 0
M  V30 518 H -4.529159 0.955752 -1.233233 0
M  V30 519 H -3.880746 -0.668452 -3.507958 0
M  V30 520 H -3.850621 -0.899176 -1.171127 0
M  V30 521 H -2.011668 -0.764577 -1.105256 0
M  V30 522 H -1.855817 -2.837685 -1.923767 0
M  V30 523 H -3.588022 -2.816155 -2.360323 0
M  V30 524 H -1.468760 -2.507461 -4.111070 0
M  V30 525 H -3.186007 -1.942098 -4.429168 0
M  V30 526 H 0.519869 0.512976 -5.857399 0
M  V30 527 H 1.908336 -1.785593 -5.467424 0
M  V30 528 H 4.757776 -0.368278 -4.633908 0
M  V30 529 H 5.406001 -2.719872 -4.416781 0
M  V30 530 H 3.792897 -3.193723 -3.885310 0
M  V30 531 H 4.521897 -1.954971 -6.349511 0
M  V30 532 H 4.170213 -1.208503 -1.799460 0
M  V30 533 H 6.288484 1.652671 -0.903794 0
M  V30 534 H 8.337489 0.718988 -0.187744 0
M  V30 535 H 8.136215 0.844037 -1.962253 0
M  V30 536 H 7.827947 -1.694243 -0.267090 0
M  V30 537 H 7.525517 -1.539065 -2.098673 0
M  V30 538 H 9.950742 -3.851313 -1.519959 0
M  V30 539 H 9.860655 -3.535251 -2.316539 0
M  V30 540 H 6.070431 -0.814448 0.727101 0
M  V30 541 H 5.760449 1.083066 3.516115 0
M  V30 542 H 4.655838 -0.814729 4.526353 0
M  V30 543 H 4.495354 -1.588908 2.873294 0
M  V30 544 H 6.946498 -0.508654 4.324286 0
M  V30 545 H 7.102846 -1.135214 2.695615 0
M  V30 546 H 8.686085 -4.224692 4.627058 0
M  V30 547 H 9.046933 -2.468645 5.016476 0
M  V30 548 H 8.879094 -2.974661 3.275593 0
M  V30 549 H 3.076017 0.975588 2.590731 0
M  V30 550 H 2.057296 2.918407 2.436341 0
M  V30 551 H -0.249083 3.572018 2.306909 0
M  V30 552 H 1.730373 2.482962 6.594859 0
M  V30 553 H -1.191160 0.675387 5.995849 0
M  V30 554 H -1.561007 -1.152756 7.480648 0
M  V30 555 H -2.897207 -1.095406 10.701527 0
M  V30 556 H -2.050495 1.350097 10.852023 0
M  V30 557 H -1.745409 5.858389 10.566338 0
M  V30 558 H -1.852187 8.285770 10.407969 0
M  V30 559 H -0.882874 7.916165 7.050023 0
M  V30 560 H -0.814902 5.761796 5.691943 0
M  V30 561 H -1.069809 -0.864899 -6.918128 0
M  V30 562 H 0.418383 -1.179045 -8.645113 0
M  V30 563 H 1.681737 -1.798799 -7.575349 0
M  V30 564 H 1.234481 -0.020806 -7.580047 0
M  V30 565 H -0.237981 -4.227717 -8.600148 0
M  V30 566 H -3.117454 -2.308905 -8.368310 0
M  V30 567 H -0.853029 13.984076 -3.305009 0
M  V30 568 H 0.854968 14.017849 -5.870429 0
M  V30 569 H 1.411456 14.167056 -4.116924 0
M  V30 570 H 0.581715 15.472705 -4.946997 0
M  V30 571 H -1.463761 14.819796 -5.994915 0
M  V30 572 H 5.132547 7.822468 6.830801 0
M  V30 573 H 5.356551 5.268450 5.173884 0
M  V30 574 H 6.791197 6.192478 5.824641 0
M  V30 575 H 5.618090 5.516482 6.977201 0
M  V30 576 H 4.791703 8.903174 4.895243 0
M  V30 577 H 1.784796 -1.969328 9.596533 0
M  V30 578 H 1.970403 -2.851586 6.870662 0
M  V30 579 H 0.614163 -1.635048 6.841720 0
M  V30 580 H -0.621116 -4.327843 6.584138 0
M  V30 581 H -0.873467 -4.749326 9.727320 0
M  V30 582 H -1.281260 -7.014183 10.720497 0
M  V30 583 H -1.785390 -9.062702 8.708719 0
M  V30 584 H -1.032879 -9.438078 10.284211 0
M  V30 585 H 1.646252 -7.684371 8.603908 0
M  V30 586 H 1.926243 -10.587522 7.370577 0
M  V30 587 H 3.668458 -8.441542 6.234692 0
M  V30 588 H 2.633481 -9.724265 5.371417 0
M  V30 589 H 1.943744 -8.195658 5.985404 0
M  V30 590 H 3.978440 -13.047114 7.032189 0
M  V30 591 H 2.914871 -11.871395 6.227339 0
M  V30 592 H 4.756644 -11.003901 4.864246 0
M  V30 593 H 4.987615 -12.848010 4.888416 0
M  V30 594 H 6.709252 -10.816482 6.040506 0
M  V30 595 H 6.859908 -12.636475 6.177472 0
M  V30 596 H 5.535460 -12.722266 8.073374 0
M  V30 597 H 8.498839 -12.131838 9.444735 0
M  V30 598 H 8.693412 -11.280271 8.045580 0
M  V30 599 H -3.045741 -5.658241 7.785137 0
M  V30 600 H -2.749493 -3.078045 7.826544 0
M  V30 601 H -4.334957 -3.817747 8.044917 0
M  V30 602 H -3.557933 -3.228493 9.505835 0
M  V30 603 H -3.429262 -6.716156 9.892716 0
M  V30 604 H -4.368171 -5.223846 10.020505 0
M  V30 605 H -2.780652 -5.207087 10.778035 0
M  V30 END ATOM
M  V30 BEGIN BOND
M  V30 1 1 1 2
M  V30 2 1 2 3
M  V30 3 1 3 4
M  V30 4 1 3 5
M  V30 5 1 5 6
M  V30 6 1 6 7
M  V30 7 2 7 8
M  V30 8 1 7 9
M  V30 9 1 9 10
M  V30 10 1 9 11
M  V30 11 1 11 12
M  V30 12 2 12 13
M  V30 13 1 12 14
M  V30 14 1 14 15
M  V30 15 1 15 16
M  V30 16 2 16 17
M  V30 17 1 16 18
M  V30 18 1 18 19
M  V30 19 1 19 20
M  V30 20 1 20 21
M  V30 21 1 21 22
M  V30 22 2 21 23
M  V30 23 1 18 24
M  V30 24 1 24 25
M  V30 25 2 25 26
M  V30 26 1 25 27
M  V30 27 1 27 28
M  V30 28 1 28 29
M  V30 29 1 29 30
M  V30 30 1 30 31
M  V30 31 1 31 32
M  V30 32 2 32 33
M  V30 33 1 32 34
M  V30 34 1 34 35
M  V30 35 1 35 36
M  V30 36 2 36 37
M  V30 37 1 37 38
M  V30 38 2 38 39
M  V30 39 1 39 40
M  V30 40 2 40 41
M  V30 41 1 34 42
M  V30 42 1 42 43
M  V30 43 2 43 44
M  V30 44 1 43 45
M  V30 45 1 45 46
M  V30 46 1 46 47
M  V30 47 2 47 48
M  V30 48 1 47 49
M  V30 49 1 49 50
M  V30 50 1 50 51
M  V30 51 2 51 52
M  V30 52 1 52 53
M  V30 53 2 53 54
M  V30 54 1 54 55
M  V30 55 1 49 56
M  V30 56 1 56 57
M  V30 57 2 57 58
M  V30 58 1 57 59
M  V30 59 1 59 60
M  V30 60 1 60 61
M  V30 61 2 61 62
M  V30 62 1 62 63
M  V30 63 2 63 64
M  V30 64 1 64 65
M  V30 65 2 65 66
M  V30 66 1 59 67
M  V30 67 1 67 68
M  V30 68 2 68 69
M  V30 69 1 68 70
M  V30 70 1 70 71
M  V30 71 1 71 72
M  V30 72 1 72 73
M  V30 73 1 73 74
M  V30 74 1 74 75
M  V30 75 1 75 76
M  V30 76 2 76 77
M  V30 77 1 76 78
M  V30 78 1 78 79
M  V30 79 1 78 80
M  V30 80 1 80 81
M  V30 81 2 81 82
M  V30 82 1 81 83
M  V30 83 1 83 84
M  V30 84 1 84 85
M  V30 85 2 85 86
M  V30 86 1 86 87
M  V30 87 2 87 88
M  V30 88 1 88 89
M  V30 89 2 89 90
M  V30 90 1 83 91
M  V30 91 1 91 92
M  V30 92 2 92 93
M  V30 93 1 92 94
M  V30 94 1 94 95
M  V30 95 1 95 96
M  V30 96 1 96 97
M  V30 97 1 97 98
M  V30 98 1 98 99
M  V30 99 1 94 100
M  V30 100 1 100 101
M  V30 101 2 101 102
M  V30 102 1 101 103
M  V30 103 1 103 104
M  V30 104 1 104 105
M  V30 105 1 105 106
M  V30 106 1 106 107
M  V30 107 1 107 108
M  V30 108 2 108 109 CFG=2
M  V30 109 1 108 110
M  V30 110 1 103 111
M  V30 111 1 111 112
M  V30 112 2 112 113
M  V30 113 1 112 114
M  V30 114 1 114 115
M  V30 115 1 115 116
M  V30 116 1 116 117
M  V30 117 1 117 118
M  V30 118 1 118 119
M  V30 119 1 114 120
M  V30 120 1 120 121
M  V30 121 2 121 122
M  V30 122 1 121 123
M  V30 123 1 123 124
M  V30 124 1 124 125
M  V30 125 1 125 126
M  V30 126 1 126 127
M  V30 127 1 127 128
M  V30 128 1 123 129
M  V30 129 1 129 130
M  V30 130 2 130 131
M  V30 131 1 130 132
M  V30 132 1 132 133
M  V30 133 1 133 134
M  V30 134 1 134 135
M  V30 135 1 135 136
M  V30 136 1 136 137
M  V30 137 1 132 138
M  V30 138 1 138 139
M  V30 139 2 139 140
M  V30 140 1 139 141
M  V30 141 1 141 142
M  V30 142 1 142 143
M  V30 143 1 143 144
M  V30 144 1 144 145
M  V30 145 1 145 146
M  V30 146 2 146 147
M  V30 147 1 146 148
M  V30 148 1 148 149
M  V30 149 1 148 150
M  V30 150 1 150 151
M  V30 151 2 151 152
M  V30 152 1 151 153
M  V30 153 1 153 154
M  V30 154 1 154 155
M  V30 155 1 155 156
M  V30 156 1 156 157
M  V30 157 1 157 158
M  V30 158 1 153 159
M  V30 159 1 159 160
M  V30 160 2 160 161
M  V30 161 1 160 162
M  V30 162 1 162 163
M  V30 163 1 163 164
M  V30 164 1 164 165
M  V30 165 1 165 166
M  V30 166 1 166 167
M  V30 167 2 167 168 CFG=2
M  V30 168 1 167 169
M  V30 169 1 162 170
M  V30 170 1 170 171
M  V30 171 2 171 172
M  V30 172 1 171 173
M  V30 173 1 173 174
M  V30 174 1 174 175
M  V30 175 1 175 176
M  V30 176 1 176 177
M  V30 177 1 177 178
M  V30 178 1 173 179
M  V30 179 1 179 180
M  V30 180 2 180 181
M  V30 181 1 180 182
M  V30 182 1 182 183
M  V30 183 1 182 184
M  V30 184 1 184 185
M  V30 185 1 185 186
M  V30 186 1 186 187
M  V30 187 1 187 188
M  V30 188 1 70 189
M  V30 189 1 189 190
M  V30 190 2 190 191
M  V30 191 1 190 192
M  V30 192 1 192 193
M  V30 193 1 193 194
M  V30 194 1 194 195
M  V30 195 1 194 196
M  V30 196 1 192 197
M  V30 197 1 197 198
M  V30 198 2 198 199
M  V30 199 1 198 200
M  V30 200 1 200 201
M  V30 201 1 201 202
M  V30 202 1 202 203
M  V30 203 1 203 204
M  V30 204 1 204 205
M  V30 205 2 205 206
M  V30 206 1 205 207
M  V30 207 1 207 208
M  V30 208 1 208 209
M  V30 209 2 209 210
M  V30 210 1 209 211
M  V30 211 1 211 212
M  V30 212 1 212 213
M  V30 213 1 211 214
M  V30 214 1 214 215
M  V30 215 2 215 216
M  V30 216 1 215 217
M  V30 217 1 217 218
M  V30 218 1 218 219
M  V30 219 1 219 220
M  V30 220 1 220 221
M  V30 221 2 220 222
M  V30 222 1 217 223
M  V30 223 1 223 224
M  V30 224 2 224 225
M  V30 225 1 224 226
M  V30 226 1 226 227
M  V30 227 1 227 228
M  V30 228 1 228 229
M  V30 229 1 229 230
M  V30 230 1 226 231
M  V30 231 1 231 232
M  V30 232 2 232 233
M  V30 233 1 232 234
M  V30 234 2 234 235
M  V30 235 1 235 236
M  V30 236 2 236 237
M  V30 237 1 237 238
M  V30 238 2 238 239
M  V30 239 1 238 240
M  V30 240 1 240 241
M  V30 241 1 241 242
M  V30 242 2 242 243
M  V30 243 1 240 244
M  V30 244 2 244 245
M  V30 245 1 245 246
M  V30 246 2 246 247
M  V30 247 1 247 248
M  V30 248 1 247 249
M  V30 249 2 249 250
M  V30 250 1 250 251
M  V30 251 1 251 252
M  V30 252 2 252 253
M  V30 253 1 253 254
M  V30 254 1 254 255
M  V30 255 2 254 256
M  V30 256 1 256 257
M  V30 257 2 257 258
M  V30 258 1 207 259
M  V30 259 1 259 260
M  V30 260 1 259 261
M  V30 261 1 261 262
M  V30 262 2 262 263
M  V30 263 1 262 264
M  V30 264 1 262 265
M  V30 265 1 45 266
M  V30 266 1 266 267
M  V30 267 1 266 268
M  V30 268 1 14 269
M  V30 269 1 269 270
M  V30 270 1 269 271
M  V30 271 1 5 272
M  V30 272 2 272 273
M  V30 273 1 272 274
M  V30 274 1 274 275
M  V30 275 1 275 276
M  V30 276 2 276 277
M  V30 277 1 276 278
M  V30 278 1 278 279
M  V30 279 1 279 280
M  V30 280 2 280 281
M  V30 281 1 280 282
M  V30 282 1 282 283
M  V30 283 1 283 284
M  V30 284 2 284 285
M  V30 285 1 284 286
M  V30 286 1 286 287
M  V30 287 1 287 288
M  V30 288 1 287 289
M  V30 289 2 289 290
M  V30 290 1 289 291
M  V30 291 1 291 292
M  V30 292 1 292 293
M  V30 293 1 293 294
M  V30 294 1 294 295
M  V30 295 1 295 296
M  V30 296 1 296 297
M  V30 297 2 296 298
M  V30 298 1 279 299
M  V30 299 1 299 300
M  V30 300 1 299 301
M  V30 301 1 31 27
M  V30 302 1 41 36
M  V30 303 1 55 51
M  V30 304 1 66 61
M  V30 305 1 90 85
M  V30 306 1 145 141
M  V30 307 1 204 200
M  V30 308 1 239 234
M  V30 309 1 258 240
M  V30 310 1 295 291
M  V30 311 1 242 237
M  V30 312 1 250 244
M  V30 313 1 258 252
M  V30 314 1 1 302
M  V30 315 1 1 303
M  V30 316 1 1 304
M  V30 317 1 2 305
M  V30 318 1 2 306
M  V30 319 1 3 307 CFG=1
M  V30 320 1 4 308
M  V30 321 1 4 309
M  V30 322 1 4 310
M  V30 323 1 5 311 CFG=3
M  V30 324 1 6 312
M  V30 325 1 9 313 CFG=1
M  V30 326 1 10 314
M  V30 327 1 10 315
M  V30 328 1 10 316
M  V30 329 1 11 317
M  V30 330 1 14 318 CFG=3
M  V30 331 1 15 319
M  V30 332 1 18 320 CFG=3
M  V30 333 1 19 321
M  V30 334 1 19 322
M  V30 335 1 20 323
M  V30 336 1 20 324
M  V30 337 1 22 325
M  V30 338 1 22 326
M  V30 339 1 24 327
M  V30 340 1 27 328 CFG=3
M  V30 341 1 28 329
M  V30 342 1 28 330
M  V30 343 1 29 331
M  V30 344 1 29 332
M  V30 345 1 30 333
M  V30 346 1 30 334
M  V30 347 1 34 335 CFG=1
M  V30 348 1 35 336
M  V30 349 1 35 337
M  V30 350 1 37 338
M  V30 351 1 38 339
M  V30 352 1 39 340
M  V30 353 1 40 341
M  V30 354 1 41 342
M  V30 355 1 42 343
M  V30 356 1 45 344 CFG=3
M  V30 357 1 46 345
M  V30 358 1 49 346 CFG=3
M  V30 359 1 50 347
M  V30 360 1 50 348
M  V30 361 1 52 349
M  V30 362 1 54 350
M  V30 363 1 55 351
M  V30 364 1 56 352
M  V30 365 1 59 353 CFG=1
M  V30 366 1 60 354
M  V30 367 1 60 355
M  V30 368 1 62 356
M  V30 369 1 63 357
M  V30 370 1 64 358
M  V30 371 1 65 359
M  V30 372 1 66 360
M  V30 373 1 67 361
M  V30 374 1 70 362 CFG=1
M  V30 375 1 71 363
M  V30 376 1 71 364
M  V30 377 1 72 365
M  V30 378 1 72 366
M  V30 379 1 73 367
M  V30 380 1 73 368
M  V30 381 1 74 369
M  V30 382 1 74 370
M  V30 383 1 75 371
M  V30 384 1 78 372 CFG=1
M  V30 385 1 79 373
M  V30 386 1 79 374
M  V30 387 1 79 375
M  V30 388 1 80 376
M  V30 389 1 83 377 CFG=1
M  V30 390 1 84 378
M  V30 391 1 84 379
M  V30 392 1 86 380
M  V30 393 1 87 381
M  V30 394 1 88 382
M  V30 395 1 89 383
M  V30 396 1 90 384
M  V30 397 1 91 385
M  V30 398 1 94 386 CFG=3
M  V30 399 1 95 387
M  V30 400 1 95 388
M  V30 401 1 96 389
M  V30 402 1 96 390
M  V30 403 1 97 391
M  V30 404 1 97 392
M  V30 405 1 98 393
M  V30 406 1 98 394
M  V30 407 1 99 395
M  V30 408 1 99 396
M  V30 409 1 100 397
M  V30 410 1 103 398 CFG=3
M  V30 411 1 104 399
M  V30 412 1 104 400
M  V30 413 1 105 401
M  V30 414 1 105 402
M  V30 415 1 106 403
M  V30 416 1 106 404
M  V30 417 1 107 405
M  V30 418 1 109 406
M  V30 419 1 110 407
M  V30 420 1 110 408
M  V30 421 1 111 409
M  V30 422 1 114 410 CFG=1
M  V30 423 1 115 411
M  V30 424 1 115 412
M  V30 425 1 116 413
M  V30 426 1 116 414
M  V30 427 1 117 415
M  V30 428 1 117 416
M  V30 429 1 118 417
M  V30 430 1 118 418
M  V30 431 1 119 419
M  V30 432 1 119 420
M  V30 433 1 120 421
M  V30 434 1 123 422 CFG=3
M  V30 435 1 124 423
M  V30 436 1 124 424
M  V30 437 1 125 425
M  V30 438 1 125 426
M  V30 439 1 126 427
M  V30 440 1 126 428
M  V30 441 1 127 429
M  V30 442 1 127 430
M  V30 443 1 128 431
M  V30 444 1 128 432
M  V30 445 1 129 433
M  V30 446 1 132 434 CFG=1
M  V30 447 1 133 435
M  V30 448 1 133 436
M  V30 449 1 134 437
M  V30 450 1 134 438
M  V30 451 1 135 439
M  V30 452 1 135 440
M  V30 453 1 136 441
M  V30 454 1 136 442
M  V30 455 1 137 443
M  V30 456 1 137 444
M  V30 457 1 138 445
M  V30 458 1 141 446 CFG=1
M  V30 459 1 142 447
M  V30 460 1 142 448
M  V30 461 1 143 449
M  V30 462 1 143 450
M  V30 463 1 144 451
M  V30 464 1 144 452
M  V30 465 1 148 453 CFG=1
M  V30 466 1 149 454
M  V30 467 1 149 455
M  V30 468 1 149 456
M  V30 469 1 150 457
M  V30 470 1 153 458 CFG=1
M  V30 471 1 154 459
M  V30 472 1 154 460
M  V30 473 1 155 461
M  V30 474 1 155 462
M  V30 475 1 156 463
M  V30 476 1 156 464
M  V30 477 1 157 465
M  V30 478 1 157 466
M  V30 479 1 158 467
M  V30 480 1 158 468
M  V30 481 1 159 469
M  V30 482 1 162 470 CFG=1
M  V30 483 1 163 471
M  V30 484 1 163 472
M  V30 485 1 164 473
M  V30 486 1 164 474
M  V30 487 1 165 475
M  V30 488 1 165 476
M  V30 489 1 166 477
M  V30 490 1 168 478
M  V30 491 1 169 479
M  V30 492 1 169 480
M  V30 493 1 170 481
M  V30 494 1 173 482 CFG=1
M  V30 495 1 174 483
M  V30 496 1 174 484
M  V30 497 1 175 485
M  V30 498 1 175 486
M  V30 499 1 176 487
M  V30 500 1 176 488
M  V30 501 1 177 489
M  V30 502 1 177 490
M  V30 503 1 178 491
M  V30 504 1 178 492
M  V30 505 1 179 493
M  V30 506 1 182 494 CFG=3
M  V30 507 1 183 495
M  V30 508 1 183 496
M  V30 509 1 184 497
M  V30 510 1 184 498
M  V30 511 1 185 499
M  V30 512 1 185 500
M  V30 513 1 186 501
M  V30 514 1 186 502
M  V30 515 1 187 503
M  V30 516 1 187 504
M  V30 517 1 188 505
M  V30 518 1 188 506
M  V30 519 1 189 507
M  V30 520 1 192 508 CFG=3
M  V30 521 1 193 509
M  V30 522 1 193 510
M  V30 523 1 194 511
M  V30 524 1 195 512
M  V30 525 1 195 513
M  V30 526 1 195 514
M  V30 527 1 196 515
M  V30 528 1 196 516
M  V30 529 1 196 517
M  V30 530 1 197 518
M  V30 531 1 200 519 CFG=3
M  V30 532 1 201 520
M  V30 533 1 201 521
M  V30 534 1 202 522
M  V30 535 1 202 523
M  V30 536 1 203 524
M  V30 537 1 203 525
M  V30 538 1 207 526 CFG=3
M  V30 539 1 208 527
M  V30 540 1 211 528 CFG=3
M  V30 541 1 212 529
M  V30 542 1 212 530
M  V30 543 1 213 531
M  V30 544 1 214 532
M  V30 545 1 217 533 CFG=1
M  V30 546 1 218 534
M  V30 547 1 218 535
M  V30 548 1 219 536
M  V30 549 1 219 537
M  V30 550 1 221 538
M  V30 551 1 221 539
M  V30 552 1 223 540
M  V30 553 1 226 541 CFG=1
M  V30 554 1 227 542
M  V30 555 1 227 543
M  V30 556 1 228 544
M  V30 557 1 228 545
M  V30 558 1 230 546
M  V30 559 1 230 547
M  V30 560 1 230 548
M  V30 561 1 231 549
M  V30 562 1 235 550
M  V30 563 1 236 551
M  V30 564 1 239 552
M  V30 565 1 245 553
M  V30 566 1 246 554
M  V30 567 1 248 555
M  V30 568 1 249 556
M  V30 569 1 253 557
M  V30 570 1 255 558
M  V30 571 1 256 559
M  V30 572 1 257 560
M  V30 573 1 259 561 CFG=3
M  V30 574 1 260 562
M  V30 575 1 260 563
M  V30 576 1 260 564
M  V30 577 1 264 565
M  V30 578 1 265 566
M  V30 579 1 266 567 CFG=1
M  V30 580 1 267 568
M  V30 581 1 267 569
M  V30 582 1 267 570
M  V30 583 1 268 571
M  V30 584 1 269 572 CFG=1
M  V30 585 1 270 573
M  V30 586 1 270 574
M  V30 587 1 270 575
M  V30 588 1 271 576
M  V30 589 1 274 577
M  V30 590 1 275 578
M  V30 591 1 275 579
M  V30 592 1 278 580
M  V30 593 1 279 581 CFG=1
M  V30 594 1 282 582
M  V30 595 1 283 583
M  V30 596 1 283 584
M  V30 597 1 286 585
M  V30 598 1 287 586 CFG=3
M  V30 599 1 288 587
M  V30 600 1 288 588
M  V30 601 1 288 589
M  V30 602 1 292 590
M  V30 603 1 292 591
M  V30 604 1 293 592
M  V30 605 1 293 593
M  V30 606 1 294 594
M  V30 607 1 294 595
M  V30 608 1 295 596 CFG=1
M  V30 609 1 297 597
M  V30 610 1 297 598
M  V30 611 1 299 599
M  V30 612 1 300 600
M  V30 613 1 300 601
M  V30 614 1 300 602
M  V30 615 1 301 603
M  V30 616 1 301 604
M  V30 617 1 301 605
M  V30 END BOND
M  V30 END CTAB
M  END
>  <Dataset>  (961) 
ChEMBL_Kinases

>  <Ligand_Instance>  (961) 
nan

>  <PDB_ID>  (961) 
nan

>  <Standardized_SMILES>  (961) 
CC[C@H](C)[C@H](NC(=O)[C@H](C)NC(=O)[C@@H](NC(=O)[C@H](CCC(N)=O)NC(=O)[C@@H]1CCCN1C(=O)[C@H](Cc1ccccc1)NC(=O)[C@@H](NC(=O)[C@H](Cc1cnc[nH]1)NC(=O)[C@H](Cc1ccccc1)NC(=O)[C@H](CCCCNC(=O)[C@H](C)NC(=O)[C@H](Cc1ccccc1)NC(=O)[C@H](CCCCN)NC(=O)[C@H](CCCNC(=N)N)NC(=O)[C@H](CCCCN)NC(=O)[C@H](CCCCN)NC(=O)[C@H](CCCCN)NC(=O)[C@@H]1CCCN1C(=O)[C@H](C)NC(=O)[C@H](CCCCN)NC(=O)[C@H](CCCNC(=N)N)NC(=O)[C@H](CCCCN)NC(=O)[C@@H](N)CCCCN)NC(=O)[C@H](CC(C)C)NC(=O)[C@@H]1CCCN1C(=O)[C@@H](NC(=O)[C@H](CO)NC(=O)[C@H](CCC(N)=O)NC(=O)[C@H](CCSC)NC(=O)c1ccc2c(c1)C1(OC2=O)c2ccc(O)cc2Oc2cc(O)ccc21)[C@@H](C)OP(=O)(O)O)[C@@H](C)O)[C@@H](C)O)C(=O)NCC(=O)N[C@H](C(=O)NCC(=O)N[C@@H](C)C(=O)N1CCC[C@H]1C(N)=O)C(C)C

>  <Name>  (961) 
nan

>  <Pocket>  (961) 
nan

>  <ATP_Site>  (961) 
nan

>  <Peripheral>  (961) 
nan

>  <Num_H_Atoms_ProtBoundConf>  (961) 
nan

>  <Num_Resolved_Atoms>  (961) 
nan

>  <Num_Not_Resolved_Atoms>  (961) 
nan

$$$$
CHEMBL1809231
     RDKit          3D

  0  0  0  0  0  0  0  0  0  0999 V3000
M  V30 BEGIN CTAB
M  V30 COUNTS 449 455 0 0 0
M  V30 BEGIN ATOM
M  V30 1 C -5.013552 3.126724 11.080493 0
M  V30 2 C -3.949021 2.039922 11.162689 0
M  V30 3 C -2.573321 2.583129 11.149645 0 CFG=2
M  V30 4 C -2.285910 3.541195 12.274793 0
M  V30 5 C -2.176444 3.210776 9.793605 0 CFG=2
M  V30 6 N -2.253836 2.201993 8.751521 0
M  V30 7 C -3.282125 1.806766 7.826120 0
M  V30 8 O -4.374197 2.427263 7.919394 0
M  V30 9 C -3.035552 0.716990 6.801284 0 CFG=2
M  V30 10 C -3.703684 -0.480198 7.318696 0
M  V30 11 C -3.596721 -1.737742 6.499113 0
M  V30 12 C -4.162472 -1.668770 5.129861 0
M  V30 13 C -5.649867 -1.377909 5.105958 0
M  V30 14 N -6.299604 -2.451732 5.830071 0
M  V30 15 N -1.604025 0.670812 6.675790 0
M  V30 16 C -1.024481 1.185446 5.446166 0
M  V30 17 O -1.581961 1.648719 4.427212 0
M  V30 18 C 0.436228 1.123798 5.459620 0 CFG=2
M  V30 19 C 0.822270 2.253028 6.491470 0
M  V30 20 C 0.281189 3.553596 6.001281 0
M  V30 21 N -1.059730 3.992237 6.347884 0
M  V30 22 O 0.900534 4.390850 5.256755 0
M  V30 23 N 1.180256 1.541043 4.304507 0
M  V30 24 C 1.967014 0.551961 3.691625 0
M  V30 25 O 2.422445 -0.589618 3.540641 0
M  V30 26 C 2.818677 0.993456 2.550249 0 CFG=2
M  V30 27 C 2.412561 2.238217 1.867899 0
M  V30 28 C 1.069025 2.349192 1.233573 0
M  V30 29 C 0.958617 3.794249 0.703270 0
M  V30 30 N -0.301092 4.113997 0.133728 0
M  V30 31 C -1.490239 4.206351 0.951214 0
M  V30 32 N -1.696220 3.323640 1.853754 0
M  V30 33 N -2.469741 5.243141 0.808916 0
M  V30 34 N 3.336414 -0.103608 1.810494 0
M  V30 35 C 4.709789 -0.314673 1.581706 0
M  V30 36 O 5.463309 0.588896 2.079655 0
M  V30 37 C 5.548022 -1.281723 0.921542 0 CFG=2
M  V30 38 C 6.229549 -0.626208 -0.303711 0
M  V30 39 C 7.079299 0.514776 0.142657 0
M  V30 40 C 6.830379 1.875282 0.170656 0
M  V30 41 C 7.872548 2.658078 0.674693 0
M  V30 42 C 9.064559 2.147159 1.118226 0
M  V30 43 C 9.325339 0.780158 1.096332 0
M  V30 44 C 8.296061 0.007130 0.594568 0
M  V30 45 N 4.956915 -2.507414 0.492811 0
M  V30 46 C 5.842310 -3.544385 0.014193 0
M  V30 47 O 7.118567 -3.489689 -0.111661 0
M  V30 48 C 5.193119 -4.886382 -0.402107 0 CFG=2
M  V30 49 C 4.909646 -4.797107 -1.865028 0
M  V30 50 C 4.333224 -6.023008 -2.432289 0
M  V30 51 C 3.009910 -6.505395 -1.987679 0
M  V30 52 C 1.876980 -5.523853 -2.287538 0
M  V30 53 N 0.597134 -6.066572 -1.894050 0
M  V30 54 N 3.953639 -4.959348 0.364762 0
M  V30 55 C 4.065123 -5.899965 1.480741 0
M  V30 56 O 5.144512 -6.579301 1.620689 0
M  V30 57 C 3.261479 -6.355811 2.623449 0 CFG=2
M  V30 58 C 2.892184 -7.772416 2.716943 0
M  V30 59 C 2.065821 -8.494963 1.772069 0
M  V30 60 C 0.647552 -8.057207 1.545002 0
M  V30 61 N -0.146932 -8.040957 2.766213 0
M  V30 62 C -1.512734 -7.656020 2.818169 0
M  V30 63 N -2.075631 -7.160801 1.759641 0
M  V30 64 N -2.388621 -7.758504 3.949979 0
M  V30 65 N 2.112293 -5.448317 2.805361 0
M  V30 66 C 1.822365 -4.674824 3.961289 0
M  V30 67 O 2.749662 -4.899618 4.744888 0
M  V30 68 C 0.597455 -3.867466 3.953359 0 CFG=2
M  V30 69 C -0.378066 -4.386298 5.013757 0
M  V30 70 C 0.305280 -4.262800 6.351475 0
M  V30 71 C 0.707219 -2.840726 6.679870 0
M  V30 72 C -0.519974 -4.863786 7.470170 0
M  V30 73 N -0.055559 -3.888484 2.658734 0
M  V30 74 C -0.918341 -2.919097 1.971750 0
M  V30 75 O -0.888883 -2.105256 2.938123 0
M  V30 76 C -1.308287 -3.485006 0.573562 0 CFG=2
M  V30 77 C -0.175835 -3.115206 -0.372377 0
M  V30 78 C -0.048716 -1.621236 -0.489996 0
M  V30 79 C 1.082022 -1.207961 -1.352359 0
M  V30 80 N 1.077692 -1.656933 -2.709307 0
M  V30 81 C 2.089629 -1.132324 -3.597389 0
M  V30 82 N 2.335704 0.159014 -3.472648 0
M  V30 83 N 2.829816 -1.845184 -4.586210 0
M  V30 84 N -2.550107 -2.933849 0.155097 0
M  V30 85 C -3.706071 -2.172259 0.495388 0
M  V30 86 O -3.654416 -1.734627 1.691556 0
M  V30 87 C -4.767624 -1.953071 -0.441023 0 CFG=2
M  V30 88 C -4.869747 -0.435227 -0.915444 0
M  V30 89 C -5.130116 0.399642 0.287997 0
M  V30 90 C -5.424490 1.817629 -0.058949 0
M  V30 91 C -4.370643 2.513511 -0.822261 0
M  V30 92 N -4.819773 3.883275 -1.089837 0
M  V30 93 N -6.113576 -2.045367 0.182934 0
M  V30 94 C -7.021454 -2.588451 -0.756067 0
M  V30 95 O -6.892208 -3.008359 -1.956014 0
M  V30 96 C -8.426696 -2.943555 -0.952348 0 CFG=2
M  V30 97 C -9.118569 -3.818974 -0.015365 0
M  V30 98 C -9.187284 -3.349307 1.407191 0
M  V30 99 C -9.804180 -2.004035 1.567718 0
M  V30 100 N -11.126326 -1.863921 1.088672 0
M  V30 101 C -11.704611 -0.529852 1.196525 0
M  V30 102 N -11.161692 0.267061 2.086860 0
M  V30 103 N -12.799753 -0.141922 0.361713 0
M  V30 104 N -8.546266 -3.521209 -2.300229 0
M  V30 105 C -8.580525 -2.647937 -3.411530 0
M  V30 106 O -8.501650 -1.405927 -3.511336 0
M  V30 107 C -8.711890 -2.601491 -4.890705 0 CFG=2
M  V30 108 C -7.840351 -3.613642 -5.537581 0
M  V30 109 C -7.902464 -3.700120 -7.026667 0
M  V30 110 C -9.294954 -4.044946 -7.543118 0
M  V30 111 C -7.325128 -2.528579 -7.771051 0
M  V30 112 N -8.296507 -1.254248 -5.343770 0
M  V30 113 C -8.947312 -0.067572 -5.782154 0
M  V30 114 O -10.177334 -0.312024 -5.725083 0
M  V30 115 C -8.079666 1.057529 -6.186086 0
M  V30 116 N -6.651046 0.808095 -6.022406 0
M  V30 117 C -5.607303 0.651737 -5.026250 0
M  V30 118 O -6.143800 0.831464 -3.888973 0
M  V30 119 C -4.250569 0.357369 -5.546060 0 CFG=2
M  V30 120 C -4.046524 -1.146761 -5.357766 0
M  V30 121 C -2.719330 -1.629053 -5.800645 0
M  V30 122 C -2.700398 -3.144934 -5.520393 0
M  V30 123 C -2.361635 -1.464199 -7.229964 0
M  V30 124 N -3.185234 1.019216 -4.826365 0
M  V30 125 C -2.787736 2.341887 -5.023939 0
M  V30 126 O -3.508030 2.946039 -5.864616 0
M  V30 127 C -1.747881 3.175751 -4.513849 0 CFG=2
M  V30 128 C -0.880476 2.665289 -3.396096 0
M  V30 129 C 0.287585 3.651324 -3.624513 0
M  V30 130 C -0.375967 4.831088 -4.314302 0
M  V30 131 N -1.841200 4.555862 -4.273189 0
M  V30 132 C -2.863590 5.572580 -4.071982 0
M  V30 133 O -3.961388 4.953804 -3.893290 0
M  V30 134 C -2.351181 6.970808 -4.128893 0 CFG=1
M  V30 135 N -1.342314 7.096664 -5.192940 0
M  V30 136 C -2.020028 6.571671 -6.370006 0
M  V30 137 O -3.223801 6.220919 -6.093216 0
M  V30 138 C -1.663222 6.343180 -7.773181 0 CFG=2
M  V30 139 C -2.284346 5.004019 -8.192424 0
M  V30 140 O -3.664541 5.142418 -7.898890 0
M  V30 141 N -0.254504 6.383158 -8.035346 0
M  V30 142 C 0.215089 5.451939 -8.999207 0
M  V30 143 O -0.101774 4.546642 -9.769249 0
M  V30 144 C 1.500862 5.106098 -9.607322 0 CFG=2
M  V30 145 C 1.908343 6.055470 -10.686504 0
M  V30 146 C 0.976369 6.127758 -11.841892 0
M  V30 147 C -0.341836 6.617609 -11.532704 0
M  V30 148 N -1.456939 6.337725 -12.359746 0
M  V30 149 O -1.173787 7.230762 -10.848684 0
M  V30 150 N 1.399478 3.768841 -10.255388 0
M  V30 151 C 2.251921 2.687085 -9.879750 0
M  V30 152 O 3.172683 2.425599 -9.081341 0
M  V30 153 C 2.298803 1.341463 -10.414025 0 CFG=2
M  V30 154 C 0.957858 0.583141 -10.231729 0
M  V30 155 C 0.986630 -0.768668 -10.865371 0
M  V30 156 S -0.500709 -1.744571 -10.600062 0
M  V30 157 C -0.267599 -3.371334 -11.364376 0
M  V30 158 N 3.348949 0.515158 -9.788965 0
M  V30 159 C 3.387021 -0.543245 -8.826224 0
M  V30 160 O 2.201416 -0.761494 -8.419293 0
M  V30 161 C 4.409909 -1.364988 -8.252880 0
M  V30 162 C 3.854198 -2.502258 -7.648260 0
M  V30 163 C 4.685627 -3.433323 -7.013552 0
M  V30 164 C 6.034706 -3.142213 -7.032619 0
M  V30 165 C 6.694661 -2.057941 -7.596382 0
M  V30 166 C 5.767487 -1.239804 -8.176715 0
M  V30 167 C 8.112777 -2.218965 -7.361882 0
M  V30 168 O 8.225464 -3.381112 -6.511299 0
M  V30 169 C 7.024563 -3.963210 -6.356715 0
M  V30 170 O 6.927867 -5.022614 -5.717822 0
M  V30 171 C 8.938876 -2.608808 -8.551278 0
M  V30 172 C 8.310366 -3.671991 -9.209506 0
M  V30 173 C 9.045544 -4.119048 -10.310236 0
M  V30 174 C 10.240429 -3.546444 -10.657499 0
M  V30 175 O 11.003819 -3.979157 -11.744934 0
M  V30 176 C 10.858694 -2.494000 -10.006371 0
M  V30 177 C 10.118063 -2.047108 -8.898397 0
M  V30 178 O 10.636091 -0.999952 -8.163861 0
M  V30 179 C 10.008053 -0.476420 -7.057522 0
M  V30 180 C 10.529711 0.577837 -6.331394 0
M  V30 181 C 9.884904 1.080304 -5.251119 0
M  V30 182 O 10.370223 2.140925 -4.489063 0
M  V30 183 C 8.664228 0.575393 -4.803655 0
M  V30 184 C 8.205101 -0.490227 -5.592055 0
M  V30 185 C 8.795237 -1.066653 -6.707793 0
M  V30 186 C -3.244864 8.082523 -3.905144 0 CFG=1
M  V30 187 C -4.069267 8.625790 -5.016130 0
M  V30 188 O -4.145541 7.812292 -2.841524 0
M  V30 189 P -3.880164 8.871205 -1.565525 0
M  V30 190 O -4.476269 10.262649 -1.856466 0
M  V30 191 O -4.510959 8.199088 -0.166995 0
M  V30 192 O -2.215666 9.068547 -1.360196 0
M  V30 193 C -0.848613 3.764872 10.025012 0
M  V30 194 O -0.819560 4.996752 10.378754 0
M  V30 195 N 0.440760 3.184914 9.931166 0
M  V30 196 C 1.624712 3.946153 10.159296 0 CFG=1
M  V30 197 C 1.855176 4.118061 11.663959 0
M  V30 198 C 3.090311 4.917990 11.977597 0
M  V30 199 C 3.081908 6.287753 11.402561 0
M  V30 200 C 1.968081 7.167864 11.868482 0
M  V30 201 N 2.136909 8.449881 11.183089 0
M  V30 202 C 2.851871 3.400023 9.605813 0
M  V30 203 O 4.016174 3.923035 9.606286 0
M  V30 204 N 3.019280 2.124211 8.944185 0
M  V30 205 C 4.013164 1.361951 8.309464 0 CFG=1
M  V30 206 C 5.157195 2.034464 7.638221 0
M  V30 207 C 4.989942 2.899545 6.471623 0
M  V30 208 C 4.170499 4.100992 6.456558 0
M  V30 209 O 3.392119 4.978493 6.932203 0
M  V30 210 O 4.175713 4.756684 5.216076 0
M  V30 211 C 4.504890 0.211492 9.103442 0
M  V30 212 O 3.754297 0.618732 10.084858 0
M  V30 213 N 5.405855 -0.902512 8.952265 0
M  V30 214 C 5.499835 -1.713885 10.139904 0 CFG=1
M  V30 215 C 4.843882 -3.046241 10.066811 0
M  V30 216 C 5.302500 -4.040387 9.070881 0
M  V30 217 C 5.207389 -3.567052 7.642981 0
M  V30 218 C 5.655950 -4.742941 6.772118 0
M  V30 219 N 7.013073 -5.143311 7.061732 0
M  V30 220 C 6.913754 -1.811643 10.665073 0
M  V30 221 N 7.838417 -1.169695 9.744005 0
M  V30 222 O 8.045844 -1.962299 11.209200 0
M  V30 223 H -6.022089 2.678912 10.830234 0
M  V30 224 H -5.136191 3.562064 12.108164 0
M  V30 225 H -4.841753 3.895378 10.309820 0
M  V30 226 H -4.153399 1.506410 12.137798 0
M  V30 227 H -4.157459 1.285627 10.389647 0
M  V30 228 H -1.871468 1.707812 11.326339 0
M  V30 229 H -1.185106 3.702242 12.290985 0
M  V30 230 H -2.681495 3.211112 13.243486 0
M  V30 231 H -2.722808 4.541921 11.964767 0
M  V30 232 H -2.926449 3.973663 9.584999 0
M  V30 233 H -1.374515 1.661864 8.729555 0
M  V30 234 H -3.465392 1.090608 5.847388 0
M  V30 235 H -3.430884 -0.709199 8.377236 0
M  V30 236 H -4.803002 -0.267615 7.383052 0
M  V30 237 H -2.564577 -2.074630 6.451117 0
M  V30 238 H -4.179912 -2.508365 7.079518 0
M  V30 239 H -3.577948 -1.038996 4.419882 0
M  V30 240 H -4.089885 -2.699673 4.638009 0
M  V30 241 H -5.969680 -1.456532 4.050407 0
M  V30 242 H -5.844149 -0.395540 5.571115 0
M  V30 243 H -5.890886 -3.379178 5.556048 0
M  V30 244 H -7.322518 -2.502132 5.629519 0
M  V30 245 H -1.021438 0.265660 7.460910 0
M  V30 246 H 0.780611 0.200903 5.906593 0
M  V30 247 H 1.918461 2.265302 6.450348 0
M  V30 248 H 0.454906 1.897080 7.415426 0
M  V30 249 H -1.170033 5.032227 6.473599 0
M  V30 250 H -2.070044 3.998797 6.579977 0
M  V30 251 H 1.157113 2.498238 3.928790 0
M  V30 252 H 3.791903 1.431717 3.148552 0
M  V30 253 H 2.533644 3.149174 2.557018 0
M  V30 254 H 3.168189 2.503711 1.042197 0
M  V30 255 H 0.234993 2.049325 1.863716 0
M  V30 256 H 0.999592 1.703017 0.306310 0
M  V30 257 H 1.723643 3.832070 -0.135341 0
M  V30 258 H 1.310078 4.504371 1.460117 0
M  V30 259 H -0.610430 4.349964 -0.857115 0
M  V30 260 H -2.537479 3.356945 2.464247 0
M  V30 261 H -2.907964 5.601637 1.707692 0
M  V30 262 H -2.622350 5.499787 -0.169103 0
M  V30 263 H 2.823905 -0.888850 1.342365 0
M  V30 264 H 6.496679 -1.571957 1.499304 0
M  V30 265 H 6.770067 -1.369758 -0.894213 0
M  V30 266 H 5.422817 -0.200702 -0.923689 0
M  V30 267 H 5.856510 2.099912 -0.207513 0
M  V30 268 H 7.612997 3.712774 0.663183 0
M  V30 269 H 9.789320 2.877135 1.490449 0
M  V30 270 H 10.262262 0.450207 1.466806 0
M  V30 271 H 8.647450 -1.047864 0.610181 0
M  V30 272 H 3.935325 -2.727903 0.495863 0
M  V30 273 H 5.880807 -5.648698 -0.094595 0
M  V30 274 H 4.112972 -3.982400 -1.969175 0
M  V30 275 H 5.802303 -4.453637 -2.446977 0
M  V30 276 H 4.316938 -5.857424 -3.558808 0
M  V30 277 H 5.045927 -6.911040 -2.340458 0
M  V30 278 H 2.934037 -6.880464 -0.957334 0
M  V30 279 H 2.745688 -7.395767 -2.643951 0
M  V30 280 H 1.870774 -5.393305 -3.379047 0
M  V30 281 H 2.054822 -4.595378 -1.737254 0
M  V30 282 H -0.149445 -5.916087 -2.576740 0
M  V30 283 H 0.396324 -5.807576 -0.910835 0
M  V30 284 H 2.965692 -4.599932 0.473040 0
M  V30 285 H 3.894784 -6.159239 3.556813 0
M  V30 286 H 3.854269 -8.334275 2.915231 0
M  V30 287 H 2.370036 -7.881464 3.736561 0
M  V30 288 H 2.531034 -8.531889 0.761882 0
M  V30 289 H 1.953876 -9.552604 2.186492 0
M  V30 290 H 0.134629 -8.898349 0.929748 0
M  V30 291 H 0.453863 -7.178012 0.968067 0
M  V30 292 H 0.310162 -8.313777 3.653204 0
M  V30 293 H -1.605324 -7.011472 0.853929 0
M  V30 294 H -2.719356 -8.405781 4.743006 0
M  V30 295 H -3.020020 -6.936077 4.228021 0
M  V30 296 H 1.698856 -5.593149 1.873010 0
M  V30 297 H 0.781912 -2.843871 4.246793 0
M  V30 298 H -1.221425 -3.711147 4.992057 0
M  V30 299 H -0.601743 -5.450183 4.848671 0
M  V30 300 H 1.250851 -4.850405 6.390734 0
M  V30 301 H 1.001165 -2.815286 7.749179 0
M  V30 302 H 1.613379 -2.639447 6.066334 0
M  V30 303 H -0.100940 -2.119281 6.464060 0
M  V30 304 H -1.306763 -4.187886 7.845478 0
M  V30 305 H 0.171663 -5.058092 8.316156 0
M  V30 306 H -0.866277 -5.854705 7.130482 0
M  V30 307 H 0.167717 -4.850219 2.219320 0
M  V30 308 H -1.393012 -4.531853 0.741209 0
M  V30 309 H -0.381119 -3.517512 -1.383573 0
M  V30 310 H 0.802247 -3.474542 -0.055253 0
M  V30 311 H -0.975364 -1.174873 -0.939491 0
M  V30 312 H 0.176451 -1.225201 0.534271 0
M  V30 313 H 2.074433 -1.467629 -0.877707 0
M  V30 314 H 1.096071 -0.087967 -1.391056 0
M  V30 315 H 0.460841 -2.334233 -3.245650 0
M  V30 316 H 3.028121 0.688754 -4.034572 0
M  V30 317 H 2.574850 -2.760353 -5.019060 0
M  V30 318 H 3.720538 -1.467344 -4.934071 0
M  V30 319 H -2.585225 -3.279296 -0.872339 0
M  V30 320 H -4.724861 -2.466908 -1.385696 0
M  V30 321 H -3.975040 -0.192920 -1.488942 0
M  V30 322 H -5.741247 -0.465177 -1.591860 0
M  V30 323 H -5.852845 -0.040666 0.992229 0
M  V30 324 H -4.157102 0.380037 0.884212 0
M  V30 325 H -5.645004 2.443757 0.837353 0
M  V30 326 H -6.390924 1.887275 -0.659686 0
M  V30 327 H -3.430615 2.548185 -0.261820 0
M  V30 328 H -4.257951 2.034349 -1.811069 0
M  V30 329 H -5.538508 3.788755 -1.880843 0
M  V30 330 H -5.385919 4.219843 -0.226590 0
M  V30 331 H -6.728357 -1.896871 0.989974 0
M  V30 332 H -9.011558 -1.964988 -1.049650 0
M  V30 333 H -10.123783 -4.118948 -0.445627 0
M  V30 334 H -8.587811 -4.816638 0.018386 0
M  V30 335 H -8.197535 -3.487757 1.870443 0
M  V30 336 H -9.846449 -4.106527 1.938115 0
M  V30 337 H -9.149549 -1.199696 1.142543 0
M  V30 338 H -9.798357 -1.736727 2.682727 0
M  V30 339 H -11.759760 -2.585765 0.664038 0
M  V30 340 H -11.499797 1.246118 2.248100 0
M  V30 341 H -13.561741 0.049349 1.084569 0
M  V30 342 H -12.589566 -0.135550 -0.673260 0
M  V30 343 H -8.627207 -4.451806 -2.826478 0
M  V30 344 H -9.774861 -2.783150 -5.171729 0
M  V30 345 H -6.789687 -3.332678 -5.288015 0
M  V30 346 H -8.012745 -4.642776 -5.148989 0
M  V30 347 H -7.271503 -4.581210 -7.353614 0
M  V30 348 H -10.075517 -3.407384 -7.081516 0
M  V30 349 H -9.277100 -3.773012 -8.640888 0
M  V30 350 H -9.422548 -5.110439 -7.447911 0
M  V30 351 H -6.393917 -2.159785 -7.341817 0
M  V30 352 H -7.044135 -2.843071 -8.833280 0
M  V30 353 H -8.112146 -1.762206 -7.934153 0
M  V30 354 H -7.233945 -1.227689 -5.304528 0
M  V30 355 H -8.297420 1.454813 -7.168903 0
M  V30 356 H -8.356280 1.914446 -5.462146 0
M  V30 357 H -6.280028 0.696257 -7.005032 0
M  V30 358 H -4.200726 0.720695 -6.561059 0
M  V30 359 H -4.076232 -1.311406 -4.244112 0
M  V30 360 H -4.838583 -1.758911 -5.759313 0
M  V30 361 H -1.921304 -1.228346 -5.102560 0
M  V30 362 H -2.907498 -3.326545 -4.425832 0
M  V30 363 H -1.699709 -3.573421 -5.679354 0
M  V30 364 H -3.502738 -3.688245 -6.038881 0
M  V30 365 H -1.659571 -0.583110 -7.305319 0
M  V30 366 H -1.806138 -2.314814 -7.662832 0
M  V30 367 H -3.212766 -1.239310 -7.881046 0
M  V30 368 H -2.595208 0.530660 -4.073808 0
M  V30 369 H -0.969563 3.170901 -5.457019 0
M  V30 370 H -1.315653 2.767126 -2.408436 0
M  V30 371 H -0.516428 1.613855 -3.598571 0
M  V30 372 H 1.036793 3.170887 -4.285964 0
M  V30 373 H 0.746358 3.837562 -2.666739 0
M  V30 374 H -0.082411 4.750240 -5.365482 0
M  V30 375 H -0.123147 5.763496 -3.797222 0
M  V30 376 H -1.635607 6.938370 -3.194376 0
M  V30 377 H -0.385410 7.377067 -5.513225 0
M  V30 378 H -2.205029 7.041473 -8.453592 0
M  V30 379 H -1.908053 4.153852 -7.660900 0
M  V30 380 H -2.276497 4.939385 -9.313602 0
M  V30 381 H -4.043358 5.974160 -8.270771 0
M  V30 382 H 0.566340 6.926717 -7.712752 0
M  V30 383 H 2.358857 5.008371 -8.913272 0
M  V30 384 H 2.931370 5.748652 -11.006359 0
M  V30 385 H 1.997133 7.076128 -10.171207 0
M  V30 386 H 1.428271 6.805866 -12.619617 0
M  V30 387 H 0.885554 5.089874 -12.292919 0
M  V30 388 H -2.158546 6.643247 -13.091328 0
M  V30 389 H -1.950793 5.383659 -12.389304 0
M  V30 390 H 0.771995 3.416324 -10.994164 0
M  V30 391 H 2.460070 1.313490 -11.493671 0
M  V30 392 H 0.618211 0.609833 -9.187279 0
M  V30 393 H 0.228238 1.199483 -10.839424 0
M  V30 394 H 1.874772 -1.383310 -10.759908 0
M  V30 395 H 0.983009 -0.609851 -12.033971 0
M  V30 396 H -0.848646 -4.159012 -10.848616 0
M  V30 397 H -0.520357 -3.349336 -12.449442 0
M  V30 398 H 0.808949 -3.658065 -11.301916 0
M  V30 399 H 4.344758 0.727186 -10.093220 0
M  V30 400 H 2.797746 -2.825346 -7.588440 0
M  V30 401 H 4.299814 -4.325561 -6.550293 0
M  V30 402 H 6.153927 -0.327336 -8.623853 0
M  V30 403 H 7.415690 -4.225298 -9.058293 0
M  V30 404 H 8.727068 -4.922979 -10.974790 0
M  V30 405 H 11.907318 -4.426362 -11.604738 0
M  V30 406 H 11.784383 -2.026255 -10.237334 0
M  V30 407 H 11.484234 1.004594 -6.654726 0
M  V30 408 H 10.638561 1.886137 -3.531903 0
M  V30 409 H 8.085821 0.928947 -3.976920 0
M  V30 410 H 7.267544 -0.907145 -5.271621 0
M  V30 411 H -2.675001 8.996412 -3.496220 0
M  V30 412 H -3.517436 8.898901 -5.938347 0
M  V30 413 H -4.468936 9.628610 -4.658831 0
M  V30 414 H -5.021200 8.066365 -5.216350 0
M  V30 415 H -5.100767 8.871910 0.269180 0
M  V30 416 H -1.932954 8.807412 -0.436404 0
M  V30 417 H 0.376159 2.173684 9.708021 0
M  V30 418 H 1.408372 5.010275 9.843729 0
M  V30 419 H 1.009000 4.544147 12.211429 0
M  V30 420 H 2.006486 3.089507 12.090024 0
M  V30 421 H 3.031690 5.075518 13.109160 0
M  V30 422 H 4.030742 4.419858 11.820700 0
M  V30 423 H 4.051298 6.765689 11.721381 0
M  V30 424 H 3.118259 6.336752 10.283634 0
M  V30 425 H 2.139809 7.388735 12.958852 0
M  V30 426 H 0.960945 6.749526 11.787597 0
M  V30 427 H 3.024737 8.482405 10.631639 0
M  V30 428 H 1.288163 8.677838 10.604344 0
M  V30 429 H 2.089869 1.586934 8.994126 0
M  V30 430 H 3.489798 0.877708 7.390803 0
M  V30 431 H 5.956131 1.267865 7.358204 0
M  V30 432 H 5.690437 2.606074 8.466574 0
M  V30 433 H 4.702671 2.253266 5.559822 0
M  V30 434 H 6.086876 3.154650 6.163012 0
M  V30 435 H 4.308454 5.736555 5.061170 0
M  V30 436 H 5.650663 -0.651220 7.977977 0
M  V30 437 H 4.969023 -1.187028 10.997730 0
M  V30 438 H 4.764644 -3.518439 11.108778 0
M  V30 439 H 3.747429 -2.791727 9.852111 0
M  V30 440 H 4.724409 -5.002474 9.197699 0
M  V30 441 H 6.385302 -4.311855 9.214657 0
M  V30 442 H 5.976987 -2.748008 7.559790 0
M  V30 443 H 4.223071 -3.224483 7.347425 0
M  V30 444 H 4.954764 -5.578829 6.988726 0
M  V30 445 H 5.578613 -4.394818 5.728784 0
M  V30 446 H 7.364442 -5.832892 6.370957 0
M  V30 447 H 7.612308 -4.313230 7.145233 0
M  V30 448 H 8.582606 -0.782907 9.073285 0
M  V30 449 H 7.568340 -0.186271 9.446857 0
M  V30 END ATOM
M  V30 BEGIN BOND
M  V30 1 1 1 2
M  V30 2 1 2 3
M  V30 3 1 3 4
M  V30 4 1 3 5
M  V30 5 1 5 6
M  V30 6 1 6 7
M  V30 7 2 7 8
M  V30 8 1 7 9
M  V30 9 1 9 10
M  V30 10 1 10 11
M  V30 11 1 11 12
M  V30 12 1 12 13
M  V30 13 1 13 14
M  V30 14 1 9 15
M  V30 15 1 15 16
M  V30 16 2 16 17
M  V30 17 1 16 18
M  V30 18 1 18 19
M  V30 19 1 19 20
M  V30 20 1 20 21
M  V30 21 2 20 22
M  V30 22 1 18 23
M  V30 23 1 23 24
M  V30 24 2 24 25
M  V30 25 1 24 26
M  V30 26 1 26 27
M  V30 27 1 27 28
M  V30 28 1 28 29
M  V30 29 1 29 30
M  V30 30 1 30 31
M  V30 31 2 31 32 CFG=2
M  V30 32 1 31 33
M  V30 33 1 26 34
M  V30 34 1 34 35
M  V30 35 2 35 36
M  V30 36 1 35 37
M  V30 37 1 37 38
M  V30 38 1 38 39
M  V30 39 2 39 40
M  V30 40 1 40 41
M  V30 41 2 41 42
M  V30 42 1 42 43
M  V30 43 2 43 44
M  V30 44 1 37 45
M  V30 45 1 45 46
M  V30 46 2 46 47
M  V30 47 1 46 48
M  V30 48 1 48 49
M  V30 49 1 49 50
M  V30 50 1 50 51
M  V30 51 1 51 52
M  V30 52 1 52 53
M  V30 53 1 48 54
M  V30 54 1 54 55
M  V30 55 2 55 56
M  V30 56 1 55 57
M  V30 57 1 57 58
M  V30 58 1 58 59
M  V30 59 1 59 60
M  V30 60 1 60 61
M  V30 61 1 61 62
M  V30 62 2 62 63 CFG=2
M  V30 63 1 62 64
M  V30 64 1 57 65
M  V30 65 1 65 66
M  V30 66 2 66 67
M  V30 67 1 66 68
M  V30 68 1 68 69
M  V30 69 1 69 70
M  V30 70 1 70 71
M  V30 71 1 70 72
M  V30 72 1 68 73
M  V30 73 1 73 74
M  V30 74 2 74 75
M  V30 75 1 74 76
M  V30 76 1 76 77
M  V30 77 1 77 78
M  V30 78 1 78 79
M  V30 79 1 79 80
M  V30 80 1 80 81
M  V30 81 2 81 82 CFG=2
M  V30 82 1 81 83
M  V30 83 1 76 84
M  V30 84 1 84 85
M  V30 85 2 85 86
M  V30 86 1 85 87
M  V30 87 1 87 88
M  V30 88 1 88 89
M  V30 89 1 89 90
M  V30 90 1 90 91
M  V30 91 1 91 92
M  V30 92 1 87 93
M  V30 93 1 93 94
M  V30 94 2 94 95
M  V30 95 1 94 96
M  V30 96 1 96 97
M  V30 97 1 97 98
M  V30 98 1 98 99
M  V30 99 1 99 100
M  V30 100 1 100 101
M  V30 101 2 101 102 CFG=2
M  V30 102 1 101 103
M  V30 103 1 96 104
M  V30 104 1 104 105
M  V30 105 2 105 106
M  V30 106 1 105 107
M  V30 107 1 107 108
M  V30 108 1 108 109
M  V30 109 1 109 110
M  V30 110 1 109 111
M  V30 111 1 107 112
M  V30 112 1 112 113
M  V30 113 2 113 114
M  V30 114 1 113 115
M  V30 115 1 115 116
M  V30 116 1 116 117
M  V30 117 2 117 118
M  V30 118 1 117 119
M  V30 119 1 119 120
M  V30 120 1 120 121
M  V30 121 1 121 122
M  V30 122 1 121 123
M  V30 123 1 119 124
M  V30 124 1 124 125
M  V30 125 2 125 126
M  V30 126 1 125 127
M  V30 127 1 127 128
M  V30 128 1 128 129
M  V30 129 1 129 130
M  V30 130 1 130 131
M  V30 131 1 131 132
M  V30 132 2 132 133
M  V30 133 1 132 134
M  V30 134 1 134 135
M  V30 135 1 135 136
M  V30 136 2 136 137
M  V30 137 1 136 138
M  V30 138 1 138 139
M  V30 139 1 139 140
M  V30 140 1 138 141
M  V30 141 1 141 142
M  V30 142 2 142 143
M  V30 143 1 142 144
M  V30 144 1 144 145
M  V30 145 1 145 146
M  V30 146 1 146 147
M  V30 147 1 147 148
M  V30 148 2 147 149
M  V30 149 1 144 150
M  V30 150 1 150 151
M  V30 151 2 151 152
M  V30 152 1 151 153
M  V30 153 1 153 154
M  V30 154 1 154 155
M  V30 155 1 155 156
M  V30 156 1 156 157
M  V30 157 1 153 158
M  V30 158 1 158 159
M  V30 159 2 159 160
M  V30 160 1 159 161
M  V30 161 2 161 162
M  V30 162 1 162 163
M  V30 163 2 163 164
M  V30 164 1 164 165
M  V30 165 2 165 166
M  V30 166 1 165 167
M  V30 167 1 167 168
M  V30 168 1 168 169
M  V30 169 2 169 170
M  V30 170 1 167 171
M  V30 171 2 171 172
M  V30 172 1 172 173
M  V30 173 2 173 174
M  V30 174 1 174 175
M  V30 175 1 174 176
M  V30 176 2 176 177
M  V30 177 1 177 178
M  V30 178 1 178 179
M  V30 179 2 179 180
M  V30 180 1 180 181
M  V30 181 1 181 182
M  V30 182 2 181 183
M  V30 183 1 183 184
M  V30 184 2 184 185
M  V30 185 1 134 186
M  V30 186 1 186 187
M  V30 187 1 186 188
M  V30 188 1 188 189
M  V30 189 2 189 190
M  V30 190 1 189 191
M  V30 191 1 189 192
M  V30 192 1 5 193
M  V30 193 2 193 194
M  V30 194 1 193 195
M  V30 195 1 195 196
M  V30 196 1 196 197
M  V30 197 1 197 198
M  V30 198 1 198 199
M  V30 199 1 199 200
M  V30 200 1 200 201
M  V30 201 1 196 202
M  V30 202 2 202 203
M  V30 203 1 202 204
M  V30 204 1 204 205
M  V30 205 1 205 206
M  V30 206 1 206 207
M  V30 207 1 207 208
M  V30 208 2 208 209
M  V30 209 1 208 210
M  V30 210 1 205 211
M  V30 211 2 211 212
M  V30 212 1 211 213
M  V30 213 1 213 214
M  V30 214 1 214 215
M  V30 215 1 215 216
M  V30 216 1 216 217
M  V30 217 1 217 218
M  V30 218 1 218 219
M  V30 219 1 214 220
M  V30 220 1 220 221
M  V30 221 2 220 222
M  V30 222 1 44 39
M  V30 223 1 131 127
M  V30 224 1 166 161
M  V30 225 1 185 167
M  V30 226 1 169 164
M  V30 227 1 177 171
M  V30 228 1 185 179
M  V30 229 1 1 223
M  V30 230 1 1 224
M  V30 231 1 1 225
M  V30 232 1 2 226
M  V30 233 1 2 227
M  V30 234 1 3 228 CFG=1
M  V30 235 1 4 229
M  V30 236 1 4 230
M  V30 237 1 4 231
M  V30 238 1 5 232 CFG=3
M  V30 239 1 6 233
M  V30 240 1 9 234 CFG=3
M  V30 241 1 10 235
M  V30 242 1 10 236
M  V30 243 1 11 237
M  V30 244 1 11 238
M  V30 245 1 12 239
M  V30 246 1 12 240
M  V30 247 1 13 241
M  V30 248 1 13 242
M  V30 249 1 14 243
M  V30 250 1 14 244
M  V30 251 1 15 245
M  V30 252 1 18 246 CFG=1
M  V30 253 1 19 247
M  V30 254 1 19 248
M  V30 255 1 21 249
M  V30 256 1 21 250
M  V30 257 1 23 251
M  V30 258 1 26 252 CFG=1
M  V30 259 1 27 253
M  V30 260 1 27 254
M  V30 261 1 28 255
M  V30 262 1 28 256
M  V30 263 1 29 257
M  V30 264 1 29 258
M  V30 265 1 30 259
M  V30 266 1 32 260
M  V30 267 1 33 261
M  V30 268 1 33 262
M  V30 269 1 34 263
M  V30 270 1 37 264 CFG=1
M  V30 271 1 38 265
M  V30 272 1 38 266
M  V30 273 1 40 267
M  V30 274 1 41 268
M  V30 275 1 42 269
M  V30 276 1 43 270
M  V30 277 1 44 271
M  V30 278 1 45 272
M  V30 279 1 48 273 CFG=3
M  V30 280 1 49 274
M  V30 281 1 49 275
M  V30 282 1 50 276
M  V30 283 1 50 277
M  V30 284 1 51 278
M  V30 285 1 51 279
M  V30 286 1 52 280
M  V30 287 1 52 281
M  V30 288 1 53 282
M  V30 289 1 53 283
M  V30 290 1 54 284
M  V30 291 1 57 285 CFG=1
M  V30 292 1 58 286
M  V30 293 1 58 287
M  V30 294 1 59 288
M  V30 295 1 59 289
M  V30 296 1 60 290
M  V30 297 1 60 291
M  V30 298 1 61 292
M  V30 299 1 63 293
M  V30 300 1 64 294
M  V30 301 1 64 295
M  V30 302 1 65 296
M  V30 303 1 68 297 CFG=1
M  V30 304 1 69 298
M  V30 305 1 69 299
M  V30 306 1 70 300
M  V30 307 1 71 301
M  V30 308 1 71 302
M  V30 309 1 71 303
M  V30 310 1 72 304
M  V30 311 1 72 305
M  V30 312 1 72 306
M  V30 313 1 73 307
M  V30 314 1 76 308 CFG=1
M  V30 315 1 77 309
M  V30 316 1 77 310
M  V30 317 1 78 311
M  V30 318 1 78 312
M  V30 319 1 79 313
M  V30 320 1 79 314
M  V30 321 1 80 315
M  V30 322 1 82 316
M  V30 323 1 83 317
M  V30 324 1 83 318
M  V30 325 1 84 319
M  V30 326 1 87 320 CFG=3
M  V30 327 1 88 321
M  V30 328 1 88 322
M  V30 329 1 89 323
M  V30 330 1 89 324
M  V30 331 1 90 325
M  V30 332 1 90 326
M  V30 333 1 91 327
M  V30 334 1 91 328
M  V30 335 1 92 329
M  V30 336 1 92 330
M  V30 337 1 93 331
M  V30 338 1 96 332 CFG=3
M  V30 339 1 97 333
M  V30 340 1 97 334
M  V30 341 1 98 335
M  V30 342 1 98 336
M  V30 343 1 99 337
M  V30 344 1 99 338
M  V30 345 1 100 339
M  V30 346 1 102 340
M  V30 347 1 103 341
M  V30 348 1 103 342
M  V30 349 1 104 343
M  V30 350 1 107 344 CFG=1
M  V30 351 1 108 345
M  V30 352 1 108 346
M  V30 353 1 109 347
M  V30 354 1 110 348
M  V30 355 1 110 349
M  V30 356 1 110 350
M  V30 357 1 111 351
M  V30 358 1 111 352
M  V30 359 1 111 353
M  V30 360 1 112 354
M  V30 361 1 115 355
M  V30 362 1 115 356
M  V30 363 1 116 357
M  V30 364 1 119 358 CFG=3
M  V30 365 1 120 359
M  V30 366 1 120 360
M  V30 367 1 121 361
M  V30 368 1 122 362
M  V30 369 1 122 363
M  V30 370 1 122 364
M  V30 371 1 123 365
M  V30 372 1 123 366
M  V30 373 1 123 367
M  V30 374 1 124 368
M  V30 375 1 127 369 CFG=3
M  V30 376 1 128 370
M  V30 377 1 128 371
M  V30 378 1 129 372
M  V30 379 1 129 373
M  V30 380 1 130 374
M  V30 381 1 130 375
M  V30 382 1 134 376 CFG=1
M  V30 383 1 135 377
M  V30 384 1 138 378 CFG=3
M  V30 385 1 139 379
M  V30 386 1 139 380
M  V30 387 1 140 381
M  V30 388 1 141 382
M  V30 389 1 144 383 CFG=1
M  V30 390 1 145 384
M  V30 391 1 145 385
M  V30 392 1 146 386
M  V30 393 1 146 387
M  V30 394 1 148 388
M  V30 395 1 148 389
M  V30 396 1 150 390
M  V30 397 1 153 391 CFG=3
M  V30 398 1 154 392
M  V30 399 1 154 393
M  V30 400 1 155 394
M  V30 401 1 155 395
M  V30 402 1 157 396
M  V30 403 1 157 397
M  V30 404 1 157 398
M  V30 405 1 158 399
M  V30 406 1 162 400
M  V30 407 1 163 401
M  V30 408 1 166 402
M  V30 409 1 172 403
M  V30 410 1 173 404
M  V30 411 1 175 405
M  V30 412 1 176 406
M  V30 413 1 180 407
M  V30 414 1 182 408
M  V30 415 1 183 409
M  V30 416 1 184 410
M  V30 417 1 186 411 CFG=1
M  V30 418 1 187 412
M  V30 419 1 187 413
M  V30 420 1 187 414
M  V30 421 1 191 415
M  V30 422 1 192 416
M  V30 423 1 195 417
M  V30 424 1 196 418 CFG=3
M  V30 425 1 197 419
M  V30 426 1 197 420
M  V30 427 1 198 421
M  V30 428 1 198 422
M  V30 429 1 199 423
M  V30 430 1 199 424
M  V30 431 1 200 425
M  V30 432 1 200 426
M  V30 433 1 201 427
M  V30 434 1 201 428
M  V30 435 1 204 429
M  V30 436 1 205 430 CFG=3
M  V30 437 1 206 431
M  V30 438 1 206 432
M  V30 439 1 207 433
M  V30 440 1 207 434
M  V30 441 1 210 435
M  V30 442 1 213 436
M  V30 443 1 214 437 CFG=1
M  V30 444 1 215 438
M  V30 445 1 215 439
M  V30 446 1 216 440
M  V30 447 1 216 441
M  V30 448 1 217 442
M  V30 449 1 217 443
M  V30 450 1 218 444
M  V30 451 1 218 445
M  V30 452 1 219 446
M  V30 453 1 219 447
M  V30 454 1 221 448
M  V30 455 1 221 449
M  V30 END BOND
M  V30 END CTAB
M  END
>  <Dataset>  (962) 
ChEMBL_Kinases

>  <Ligand_Instance>  (962) 
nan

>  <PDB_ID>  (962) 
nan

>  <Standardized_SMILES>  (962) 
CC[C@H](C)[C@H](NC(=O)[C@H](CCCCN)NC(=O)[C@H](CC(N)=O)NC(=O)[C@H](CCCNC(=N)N)NC(=O)[C@H](Cc1ccccc1)NC(=O)[C@H](CCCCN)NC(=O)[C@H](CCCNC(=N)N)NC(=O)[C@H](CC(C)C)NC(=O)[C@H](CCCNC(=N)N)NC(=O)[C@H](CCCCN)NC(=O)[C@H](CCCNC(=N)N)NC(=O)[C@H](CC(C)C)NC(=O)CNC(=O)[C@H](CC(C)C)NC(=O)[C@@H]1CCCN1C(=O)[C@@H](NC(=O)[C@H](CO)NC(=O)[C@H](CCC(N)=O)NC(=O)[C@H](CCSC)NC(=O)c1ccc2c(c1)C1(OC2=O)c2ccc(O)cc2Oc2cc(O)ccc21)[C@@H](C)OP(=O)(O)O)C(=O)N[C@@H](CCCCN)C(=O)N[C@@H](CCC(=O)O)C(=O)N[C@@H](CCCCN)C(N)=O

>  <Name>  (962) 
nan

>  <Pocket>  (962) 
nan

>  <ATP_Site>  (962) 
nan

>  <Peripheral>  (962) 
nan

>  <Num_H_Atoms_ProtBoundConf>  (962) 
nan

>  <Num_Resolved_Atoms>  (962) 
nan

>  <Num_Not_Resolved_Atoms>  (962) 
nan

$$$$
CHEMBL1809230
     RDKit          3D

  0  0  0  0  0  0  0  0  0  0999 V3000
M  V30 BEGIN CTAB
M  V30 COUNTS 137 142 0 0 0
M  V30 BEGIN ATOM
M  V30 1 C -3.901251 3.301082 -4.958001 0
M  V30 2 S -4.259928 2.034619 -6.206833 0
M  V30 3 C -5.104242 0.629954 -5.571131 0
M  V30 4 C -4.485209 -0.472688 -4.872937 0
M  V30 5 C -3.578818 -0.225093 -3.724905 0 CFG=2
M  V30 6 N -2.297418 0.319857 -3.963240 0
M  V30 7 C -1.093017 0.956688 -4.306345 0
M  V30 8 O -1.245067 1.760722 -5.178369 0
M  V30 9 C 0.289802 0.869974 -3.847447 0
M  V30 10 C 0.577474 2.163996 -3.333974 0
M  V30 11 C 1.853432 2.429909 -2.782640 0
M  V30 12 C 2.724945 1.377898 -2.795724 0
M  V30 13 C 2.486262 0.122176 -3.286616 0
M  V30 14 C 1.246415 -0.117135 -3.813493 0
M  V30 15 C 3.729329 -0.650971 -3.177591 0
M  V30 16 O 4.598721 0.079229 -2.274600 0
M  V30 17 C 4.060313 1.344545 -2.165193 0
M  V30 18 O 4.662470 2.285307 -1.600986 0
M  V30 19 C 4.549149 -0.655244 -4.439830 0
M  V30 20 C 4.729062 0.638812 -4.945235 0
M  V30 21 C 5.513844 0.777166 -6.098989 0
M  V30 22 C 6.047896 -0.361073 -6.650429 0
M  V30 23 O 6.857053 -0.273593 -7.821465 0
M  V30 24 C 5.887248 -1.649596 -6.178039 0
M  V30 25 C 5.100690 -1.762981 -5.027178 0
M  V30 26 O 4.885437 -3.020097 -4.489849 0
M  V30 27 C 4.094800 -3.120552 -3.339967 0
M  V30 28 C 3.941406 -4.428981 -2.911142 0
M  V30 29 C 3.155074 -4.558601 -1.785854 0
M  V30 30 O 2.927238 -5.829027 -1.255019 0
M  V30 31 C 2.523008 -3.562638 -1.061876 0
M  V30 32 C 2.767282 -2.293258 -1.609077 0
M  V30 33 C 3.528665 -2.017791 -2.719506 0
M  V30 34 C -3.725533 -1.187868 -2.641205 0
M  V30 35 O -4.997982 -1.329085 -2.611750 0
M  V30 36 N -3.044665 -1.961242 -1.688323 0
M  V30 37 C -3.897208 -2.798167 -0.831591 0 CFG=1
M  V30 38 C -3.470794 -4.237282 -0.994386 0
M  V30 39 C -4.320347 -5.162352 -0.170263 0
M  V30 40 C -5.728344 -4.987444 -0.673070 0
M  V30 41 N -6.925719 -5.504654 -0.136964 0
M  V30 42 O -6.399647 -4.438220 -1.585749 0
M  V30 43 C -3.564896 -2.369955 0.571419 0
M  V30 44 O -4.236698 -2.751777 1.590134 0
M  V30 45 N -2.486728 -1.502342 0.989376 0
M  V30 46 C -2.283904 -1.154992 2.378064 0 CFG=1
M  V30 47 C -1.059179 -1.899078 2.911267 0
M  V30 48 O -0.910278 -1.521106 4.253083 0
M  V30 49 C -2.025376 0.273123 2.578306 0
M  V30 50 O -1.846574 0.770678 3.748485 0
M  V30 51 N -1.930239 1.276857 1.597589 0
M  V30 52 C -1.708914 2.689048 1.417796 0 CFG=2
M  V30 53 C -0.379831 3.165218 1.764920 0
M  V30 54 O -0.257684 4.391016 1.535832 0
M  V30 55 N 0.930447 2.909224 2.263834 0
M  V30 56 C 1.813890 4.084432 2.220734 0
M  V30 57 C 3.203218 3.527824 2.201056 0
M  V30 58 C 3.071470 2.015312 2.256564 0
M  V30 59 C 1.667465 1.773339 2.815037 0 CFG=1
M  V30 60 C 1.684991 1.714476 4.277402 0
M  V30 61 O 1.297932 0.637453 4.849111 0
M  V30 62 N 2.066619 2.665319 5.223277 0
M  V30 63 C 2.120122 2.738894 6.658770 0 CFG=1
M  V30 64 C 3.583492 2.575281 7.101178 0
M  V30 65 C 4.177638 1.271518 6.684987 0
M  V30 66 C 5.636952 1.239455 7.177016 0
M  V30 67 C 3.509142 0.059072 7.280366 0
M  V30 68 C 1.626692 4.027942 7.177392 0
M  V30 69 O 1.678236 4.140603 8.440414 0
M  V30 70 O 1.136798 5.089446 6.450661 0
M  V30 71 C -2.819612 3.486516 2.090264 0 CFG=1
M  V30 72 C -4.169599 2.976942 1.556826 0
M  V30 73 O -2.838800 3.211418 3.447980 0
M  V30 74 P -2.950597 4.641825 4.355656 0
M  V30 75 O -2.817267 5.879516 3.507669 0
M  V30 76 O -4.461943 4.685468 5.113873 0
M  V30 77 O -1.740524 4.715519 5.518381 0
M  V30 78 H -3.359466 2.840614 -4.122729 0
M  V30 79 H -3.306977 4.121814 -5.370160 0
M  V30 80 H -4.877971 3.651983 -4.535656 0
M  V30 81 H -5.829573 0.188508 -6.390036 0
M  V30 82 H -5.961195 1.097359 -4.903481 0
M  V30 83 H -5.341277 -1.087759 -4.415040 0
M  V30 84 H -4.047128 -1.263147 -5.573281 0
M  V30 85 H -4.125685 0.766307 -3.297843 0
M  V30 86 H -1.796656 -0.300947 -3.222663 0
M  V30 87 H -0.059708 3.054395 -3.292773 0
M  V30 88 H 2.114879 3.416955 -2.372861 0
M  V30 89 H 0.908742 -1.027037 -4.230111 0
M  V30 90 H 4.366108 1.565513 -4.586680 0
M  V30 91 H 5.732469 1.721922 -6.583253 0
M  V30 92 H 7.815430 0.093454 -7.655761 0
M  V30 93 H 6.302691 -2.545406 -6.604740 0
M  V30 94 H 4.384375 -5.277749 -3.391346 0
M  V30 95 H 2.413517 -6.531042 -1.817138 0
M  V30 96 H 1.905241 -3.695239 -0.186390 0
M  V30 97 H 2.315951 -1.417338 -1.110345 0
M  V30 98 H -2.067344 -1.729960 -1.847557 0
M  V30 99 H -4.968115 -2.701234 -1.027037 0
M  V30 100 H -3.497970 -4.498625 -2.071689 0
M  V30 101 H -2.406194 -4.394439 -0.687397 0
M  V30 102 H -4.250662 -4.877587 0.884999 0
M  V30 103 H -4.018519 -6.219238 -0.293012 0
M  V30 104 H -7.715137 -5.460391 0.550278 0
M  V30 105 H -7.610576 -6.264672 -0.238899 0
M  V30 106 H -1.902951 -1.184452 0.174993 0
M  V30 107 H -3.142424 -1.485074 2.997009 0
M  V30 108 H -1.288709 -2.979861 2.812898 0
M  V30 109 H -0.169266 -1.613330 2.318353 0
M  V30 110 H -1.812856 -1.540268 4.662366 0
M  V30 111 H -2.078988 0.768378 0.669322 0
M  V30 112 H -1.847256 2.939442 0.316959 0
M  V30 113 H 1.695395 4.660358 1.269456 0
M  V30 114 H 1.565159 4.749239 3.037208 0
M  V30 115 H 3.761461 3.767933 1.255660 0
M  V30 116 H 3.842387 3.940698 3.000175 0
M  V30 117 H 3.788812 1.537363 2.909881 0
M  V30 118 H 3.160700 1.575180 1.242957 0
M  V30 119 H 1.274212 0.834008 2.387916 0
M  V30 120 H 2.419620 3.581450 4.859690 0
M  V30 121 H 1.546273 1.885531 7.080288 0
M  V30 122 H 3.565735 2.642870 8.219103 0
M  V30 123 H 4.171127 3.434315 6.731438 0
M  V30 124 H 4.175941 1.155147 5.593418 0
M  V30 125 H 5.612873 1.288105 8.265118 0
M  V30 126 H 6.017943 0.222941 6.907795 0
M  V30 127 H 6.214319 2.013999 6.664515 0
M  V30 128 H 2.435084 0.180852 7.486406 0
M  V30 129 H 3.659377 -0.804963 6.582775 0
M  V30 130 H 4.036011 -0.229167 8.234193 0
M  V30 131 H 1.206642 6.022623 6.870762 0
M  V30 132 H -2.785840 4.555468 1.888815 0
M  V30 133 H -4.592809 2.193212 2.199594 0
M  V30 134 H -3.971276 2.571220 0.556972 0
M  V30 135 H -4.901454 3.835998 1.518331 0
M  V30 136 H -4.902328 5.579794 4.933026 0
M  V30 137 H -1.910389 5.540910 6.049070 0
M  V30 END ATOM
M  V30 BEGIN BOND
M  V30 1 1 1 2
M  V30 2 1 2 3
M  V30 3 1 3 4
M  V30 4 1 4 5
M  V30 5 1 5 6
M  V30 6 1 6 7
M  V30 7 2 7 8
M  V30 8 1 7 9
M  V30 9 2 9 10
M  V30 10 1 10 11
M  V30 11 2 11 12
M  V30 12 1 12 13
M  V30 13 2 13 14
M  V30 14 1 13 15
M  V30 15 1 15 16
M  V30 16 1 16 17
M  V30 17 2 17 18
M  V30 18 1 15 19
M  V30 19 2 19 20
M  V30 20 1 20 21
M  V30 21 2 21 22
M  V30 22 1 22 23
M  V30 23 1 22 24
M  V30 24 2 24 25
M  V30 25 1 25 26
M  V30 26 1 26 27
M  V30 27 2 27 28
M  V30 28 1 28 29
M  V30 29 1 29 30
M  V30 30 2 29 31
M  V30 31 1 31 32
M  V30 32 2 32 33
M  V30 33 1 5 34
M  V30 34 2 34 35
M  V30 35 1 34 36
M  V30 36 1 36 37
M  V30 37 1 37 38
M  V30 38 1 38 39
M  V30 39 1 39 40
M  V30 40 1 40 41
M  V30 41 2 40 42
M  V30 42 1 37 43
M  V30 43 2 43 44
M  V30 44 1 43 45
M  V30 45 1 45 46
M  V30 46 1 46 47
M  V30 47 1 47 48
M  V30 48 1 46 49
M  V30 49 2 49 50
M  V30 50 1 49 51
M  V30 51 1 51 52
M  V30 52 1 52 53
M  V30 53 2 53 54
M  V30 54 1 53 55
M  V30 55 1 55 56
M  V30 56 1 56 57
M  V30 57 1 57 58
M  V30 58 1 58 59
M  V30 59 1 59 60
M  V30 60 2 60 61
M  V30 61 1 60 62
M  V30 62 1 62 63
M  V30 63 1 63 64
M  V30 64 1 64 65
M  V30 65 1 65 66
M  V30 66 1 65 67
M  V30 67 1 63 68
M  V30 68 2 68 69
M  V30 69 1 68 70
M  V30 70 1 52 71
M  V30 71 1 71 72
M  V30 72 1 71 73
M  V30 73 1 73 74
M  V30 74 2 74 75
M  V30 75 1 74 76
M  V30 76 1 74 77
M  V30 77 1 14 9
M  V30 78 1 33 15
M  V30 79 1 59 55
M  V30 80 1 17 12
M  V30 81 1 25 19
M  V30 82 1 33 27
M  V30 83 1 1 78
M  V30 84 1 1 79
M  V30 85 1 1 80
M  V30 86 1 3 81
M  V30 87 1 3 82
M  V30 88 1 4 83
M  V30 89 1 4 84
M  V30 90 1 5 85 CFG=1
M  V30 91 1 6 86
M  V30 92 1 10 87
M  V30 93 1 11 88
M  V30 94 1 14 89
M  V30 95 1 20 90
M  V30 96 1 21 91
M  V30 97 1 23 92
M  V30 98 1 24 93
M  V30 99 1 28 94
M  V30 100 1 30 95
M  V30 101 1 31 96
M  V30 102 1 32 97
M  V30 103 1 36 98
M  V30 104 1 37 99 CFG=3
M  V30 105 1 38 100
M  V30 106 1 38 101
M  V30 107 1 39 102
M  V30 108 1 39 103
M  V30 109 1 41 104
M  V30 110 1 41 105
M  V30 111 1 45 106
M  V30 112 1 46 107 CFG=1
M  V30 113 1 47 108
M  V30 114 1 47 109
M  V30 115 1 48 110
M  V30 116 1 51 111
M  V30 117 1 52 112 CFG=3
M  V30 118 1 56 113
M  V30 119 1 56 114
M  V30 120 1 57 115
M  V30 121 1 57 116
M  V30 122 1 58 117
M  V30 123 1 58 118
M  V30 124 1 59 119 CFG=3
M  V30 125 1 62 120
M  V30 126 1 63 121 CFG=1
M  V30 127 1 64 122
M  V30 128 1 64 123
M  V30 129 1 65 124
M  V30 130 1 66 125
M  V30 131 1 66 126
M  V30 132 1 66 127
M  V30 133 1 67 128
M  V30 134 1 67 129
M  V30 135 1 67 130
M  V30 136 1 70 131
M  V30 137 1 71 132 CFG=1
M  V30 138 1 72 133
M  V30 139 1 72 134
M  V30 140 1 72 135
M  V30 141 1 76 136
M  V30 142 1 77 137
M  V30 END BOND
M  V30 END CTAB
M  END
>  <Dataset>  (963) 
ChEMBL_Kinases

>  <Ligand_Instance>  (963) 
nan

>  <PDB_ID>  (963) 
nan

>  <Standardized_SMILES>  (963) 
CSCC[C@H](NC(=O)c1ccc2c(c1)C1(OC2=O)c2ccc(O)cc2Oc2cc(O)ccc21)C(=O)N[C@@H](CCC(N)=O)C(=O)N[C@@H](CO)C(=O)N[C@H](C(=O)N1CCC[C@H]1C(=O)N[C@@H](CC(C)C)C(=O)O)[C@@H](C)OP(=O)(O)O

>  <Name>  (963) 
nan

>  <Pocket>  (963) 
nan

>  <ATP_Site>  (963) 
nan

>  <Peripheral>  (963) 
nan

>  <Num_H_Atoms_ProtBoundConf>  (963) 
nan

>  <Num_Resolved_Atoms>  (963) 
nan

>  <Num_Not_Resolved_Atoms>  (963) 
nan

$$$$
CHEMBL1809122
     RDKit          3D

  0  0  0  0  0  0  0  0  0  0999 V3000
M  V30 BEGIN CTAB
M  V30 COUNTS 39 43 0 0 0
M  V30 BEGIN ATOM
M  V30 1 O 0.436598 -2.851792 4.657756 0
M  V30 2 C 0.873436 -2.210551 3.667136 0
M  V30 3 N 2.124645 -1.730553 3.665420 0
M  V30 4 C 2.763084 -1.034219 2.721023 0
M  V30 5 C 2.039203 -0.767483 1.584051 0
M  V30 6 C 2.511458 -0.027720 0.415895 0
M  V30 7 C 3.119902 -0.726184 -0.605327 0
M  V30 8 C 3.548526 0.034618 -1.691756 0
M  V30 9 C 3.366908 1.402993 -1.726711 0
M  V30 10 C 2.745728 2.063421 -0.668686 0
M  V30 11 C 2.573074 3.440127 -0.724133 0
M  V30 12 C 1.943883 4.016477 0.374676 0
M  V30 13 C 1.509719 3.286994 1.463089 0
M  V30 14 N 1.696214 1.945748 1.480261 0
M  V30 15 C 2.302048 1.332419 0.439346 0
M  V30 16 C 0.710613 -1.247985 1.524878 0
M  V30 17 S -0.562136 -1.116498 0.231232 0
M  V30 18 C -1.815021 -2.031746 1.141342 0
M  V30 19 C -3.113127 -2.271657 0.603661 0
M  V30 20 C -3.411415 -1.785009 -0.652404 0
M  V30 21 C -4.696918 -2.052804 -1.121674 0
M  V30 22 N -5.581297 -2.754278 -0.363284 0
M  V30 23 C -5.272524 -3.221930 0.861468 0
M  V30 24 C -3.999618 -2.970650 1.355176 0
M  V30 25 C -1.200659 -2.351588 2.301662 0
M  V30 26 C 0.091732 -1.979083 2.557596 0
M  V30 27 H 2.692806 -1.933468 4.544339 0
M  V30 28 H 3.769764 -0.666594 2.758449 0
M  V30 29 H 3.246087 -1.796903 -0.545893 0
M  V30 30 H 4.031861 -0.477412 -2.515537 0
M  V30 31 H 3.701841 1.993066 -2.574382 0
M  V30 32 H 2.905013 4.040292 -1.568709 0
M  V30 33 H 1.773056 5.091914 0.403809 0
M  V30 34 H 1.023933 3.686721 2.324715 0
M  V30 35 H -2.731657 -1.234202 -1.259644 0
M  V30 36 H -4.957689 -1.683025 -2.103408 0
M  V30 37 H -6.003905 -3.781659 1.446046 0
M  V30 38 H -3.758981 -3.353874 2.348885 0
M  V30 39 H -1.809218 -2.916728 2.995750 0
M  V30 END ATOM
M  V30 BEGIN BOND
M  V30 1 2 1 2
M  V30 2 1 2 3
M  V30 3 1 3 4
M  V30 4 2 4 5
M  V30 5 1 5 6
M  V30 6 2 6 7
M  V30 7 1 7 8
M  V30 8 2 8 9
M  V30 9 1 9 10
M  V30 10 2 10 11
M  V30 11 1 11 12
M  V30 12 2 12 13
M  V30 13 1 13 14
M  V30 14 2 14 15
M  V30 15 1 5 16
M  V30 16 1 16 17
M  V30 17 1 17 18
M  V30 18 1 18 19
M  V30 19 2 19 20
M  V30 20 1 20 21
M  V30 21 2 21 22
M  V30 22 1 22 23
M  V30 23 2 23 24
M  V30 24 2 18 25
M  V30 25 1 25 26
M  V30 26 1 26 2
M  V30 27 1 15 6
M  V30 28 2 26 16
M  V30 29 1 15 10
M  V30 30 1 24 19
M  V30 31 1 3 27
M  V30 32 1 4 28
M  V30 33 1 7 29
M  V30 34 1 8 30
M  V30 35 1 9 31
M  V30 36 1 11 32
M  V30 37 1 12 33
M  V30 38 1 13 34
M  V30 39 1 20 35
M  V30 40 1 21 36
M  V30 41 1 23 37
M  V30 42 1 24 38
M  V30 43 1 25 39
M  V30 END BOND
M  V30 END CTAB
M  END
>  <Dataset>  (964) 
ChEMBL_Kinases

>  <Ligand_Instance>  (964) 
nan

>  <PDB_ID>  (964) 
nan

>  <Standardized_SMILES>  (964) 
O=c1[nH]cc(-c2cccc3cccnc23)c2sc(-c3ccncc3)cc12

>  <Name>  (964) 
nan

>  <Pocket>  (964) 
nan

>  <ATP_Site>  (964) 
nan

>  <Peripheral>  (964) 
nan

>  <Num_H_Atoms_ProtBoundConf>  (964) 
nan

>  <Num_Resolved_Atoms>  (964) 
nan

>  <Num_Not_Resolved_Atoms>  (964) 
nan

$$$$
CHEMBL1809121
     RDKit          3D

  0  0  0  0  0  0  0  0  0  0999 V3000
M  V30 BEGIN CTAB
M  V30 COUNTS 44 47 0 0 0
M  V30 BEGIN ATOM
M  V30 1 C 1.812800 0.644588 4.340899 0
M  V30 2 N 1.891842 -0.196815 3.162007 0
M  V30 3 C 1.305336 -1.517213 3.050108 0
M  V30 4 C 2.635035 0.542395 2.210072 0
M  V30 5 O 2.991124 1.668840 2.658552 0
M  V30 6 C 3.136095 0.440079 0.864674 0
M  V30 7 C 4.393989 -0.102314 0.703570 0
M  V30 8 C 4.920679 -0.222861 -0.563717 0
M  V30 9 C 4.174245 0.203299 -1.642596 0
M  V30 10 C 2.917260 0.745935 -1.488779 0
M  V30 11 C 2.374429 0.872691 -0.210971 0
M  V30 12 C 1.044359 1.444675 -0.023659 0
M  V30 13 C 0.807491 2.775606 0.165840 0
M  V30 14 N -0.496222 3.093421 0.318604 0
M  V30 15 C -1.547358 2.289590 0.307105 0
M  V30 16 O -2.716044 2.783119 0.470554 0
M  V30 17 C -1.365317 0.934985 0.119326 0
M  V30 18 C -2.275279 -0.082105 0.068553 0
M  V30 19 C -1.907522 -1.342048 -0.123222 0
M  V30 20 C -2.611127 -2.598254 -0.222184 0
M  V30 21 C -1.887224 -3.754520 -0.431526 0
M  V30 22 C -2.657444 -4.910119 -0.511969 0
M  V30 23 N -4.001799 -4.915159 -0.396707 0
M  V30 24 C -4.666716 -3.752257 -0.191604 0
M  V30 25 C -3.961226 -2.552197 -0.099931 0
M  V30 26 S -0.117183 -1.238014 -0.264341 0
M  V30 27 C -0.043340 0.546470 -0.043996 0
M  V30 28 H 2.843121 0.834978 4.753318 0
M  V30 29 H 1.294586 1.600282 4.095904 0
M  V30 30 H 1.252478 0.135981 5.131776 0
M  V30 31 H 1.897075 -2.113475 2.299417 0
M  V30 32 H 0.231693 -1.482156 2.812152 0
M  V30 33 H 1.412386 -2.078424 4.009341 0
M  V30 34 H 4.973791 -0.436458 1.576728 0
M  V30 35 H 5.919681 -0.655709 -0.668153 0
M  V30 36 H 4.651202 0.076987 -2.597128 0
M  V30 37 H 2.352305 1.071543 -2.339811 0
M  V30 38 H 1.622647 3.461781 0.182740 0
M  V30 39 H -0.687282 4.133697 0.467226 0
M  V30 40 H -3.358433 0.074951 0.181881 0
M  V30 41 H -0.810512 -3.784018 -0.528101 0
M  V30 42 H -2.078149 -5.832474 -0.679121 0
M  V30 43 H -5.743389 -3.836892 -0.109529 0
M  V30 44 H -4.526197 -1.643230 0.064287 0
M  V30 END ATOM
M  V30 BEGIN BOND
M  V30 1 1 1 2
M  V30 2 1 2 3
M  V30 3 1 2 4
M  V30 4 2 4 5
M  V30 5 1 4 6
M  V30 6 2 6 7
M  V30 7 1 7 8
M  V30 8 2 8 9
M  V30 9 1 9 10
M  V30 10 2 10 11
M  V30 11 1 11 12
M  V30 12 2 12 13
M  V30 13 1 13 14
M  V30 14 1 14 15
M  V30 15 2 15 16
M  V30 16 1 15 17
M  V30 17 1 17 18
M  V30 18 2 18 19
M  V30 19 1 19 20
M  V30 20 2 20 21
M  V30 21 1 21 22
M  V30 22 2 22 23
M  V30 23 1 23 24
M  V30 24 2 24 25
M  V30 25 1 19 26
M  V30 26 1 26 27
M  V30 27 1 11 6
M  V30 28 1 27 12
M  V30 29 2 27 17
M  V30 30 1 25 20
M  V30 31 1 1 28
M  V30 32 1 1 29
M  V30 33 1 1 30
M  V30 34 1 3 31
M  V30 35 1 3 32
M  V30 36 1 3 33
M  V30 37 1 7 34
M  V30 38 1 8 35
M  V30 39 1 9 36
M  V30 40 1 10 37
M  V30 41 1 13 38
M  V30 42 1 14 39
M  V30 43 1 18 40
M  V30 44 1 21 41
M  V30 45 1 22 42
M  V30 46 1 24 43
M  V30 47 1 25 44
M  V30 END BOND
M  V30 END CTAB
M  END
>  <Dataset>  (965) 
ChEMBL_Kinases

>  <Ligand_Instance>  (965) 
nan

>  <PDB_ID>  (965) 
nan

>  <Standardized_SMILES>  (965) 
CN(C)C(=O)c1ccccc1-c1c[nH]c(=O)c2cc(-c3ccncc3)sc12

>  <Name>  (965) 
nan

>  <Pocket>  (965) 
nan

>  <ATP_Site>  (965) 
nan

>  <Peripheral>  (965) 
nan

>  <Num_H_Atoms_ProtBoundConf>  (965) 
nan

>  <Num_Resolved_Atoms>  (965) 
nan

>  <Num_Not_Resolved_Atoms>  (965) 
nan

$$$$
CHEMBL1809120
     RDKit          3D

  0  0  0  0  0  0  0  0  0  0999 V3000
M  V30 BEGIN CTAB
M  V30 COUNTS 38 41 0 0 0
M  V30 BEGIN ATOM
M  V30 1 C 0.211356 -3.372068 -2.540152 0
M  V30 2 O 0.411342 -2.054456 -2.018505 0
M  V30 3 C 1.706073 -1.762394 -1.586095 0
M  V30 4 C 2.751348 -2.662520 -1.643031 0
M  V30 5 C 3.997384 -2.280190 -1.190691 0
M  V30 6 F 5.014311 -3.197053 -1.260791 0
M  V30 7 C 4.213845 -1.009546 -0.681660 0
M  V30 8 C 3.147315 -0.129857 -0.637415 0
M  V30 9 C 1.876548 -0.485196 -1.086372 0
M  V30 10 C 0.816270 0.516497 -0.996917 0
M  V30 11 C 0.470023 1.444744 -1.953482 0
M  V30 12 N -0.543530 2.263337 -1.640101 0
M  V30 13 C -1.248546 2.284724 -0.523444 0
M  V30 14 O -2.186834 3.141644 -0.395873 0
M  V30 15 C -0.972346 1.391858 0.489527 0
M  V30 16 C -1.553561 1.221151 1.718949 0
M  V30 17 C -1.121365 0.276884 2.561373 0
M  V30 18 C -1.525342 -0.127026 3.883665 0
M  V30 19 C -0.853670 -1.167402 4.492454 0
M  V30 20 C -1.320429 -1.483874 5.773927 0
M  V30 21 N -2.332435 -0.860394 6.404759 0
M  V30 22 C -2.937632 0.144137 5.746156 0
M  V30 23 C -2.569728 0.560153 4.462938 0
M  V30 24 S 0.202291 -0.521423 1.708132 0
M  V30 25 C 0.075909 0.526866 0.195545 0
M  V30 26 H -0.861761 -3.509225 -2.779306 0
M  V30 27 H 0.835354 -3.470141 -3.459375 0
M  V30 28 H 0.503517 -4.151382 -1.809542 0
M  V30 29 H 2.571522 -3.644198 -2.039492 0
M  V30 30 H 5.207935 -0.763368 -0.341816 0
M  V30 31 H 3.344000 0.842238 -0.240110 0
M  V30 32 H 1.052144 1.417860 -2.860362 0
M  V30 33 H -0.795821 2.972965 -2.391634 0
M  V30 34 H -2.380166 1.831530 2.068357 0
M  V30 35 H -0.038683 -1.718885 4.065420 0
M  V30 36 H -0.853515 -2.286778 6.327815 0
M  V30 37 H -3.757866 0.639319 6.274088 0
M  V30 38 H -3.080538 1.360337 3.985242 0
M  V30 END ATOM
M  V30 BEGIN BOND
M  V30 1 1 1 2
M  V30 2 1 2 3
M  V30 3 2 3 4
M  V30 4 1 4 5
M  V30 5 1 5 6
M  V30 6 2 5 7
M  V30 7 1 7 8
M  V30 8 2 8 9
M  V30 9 1 9 10
M  V30 10 2 10 11
M  V30 11 1 11 12
M  V30 12 1 12 13
M  V30 13 2 13 14
M  V30 14 1 13 15
M  V30 15 1 15 16
M  V30 16 2 16 17
M  V30 17 1 17 18
M  V30 18 2 18 19
M  V30 19 1 19 20
M  V30 20 2 20 21
M  V30 21 1 21 22
M  V30 22 2 22 23
M  V30 23 1 17 24
M  V30 24 1 24 25
M  V30 25 1 9 3
M  V30 26 1 25 10
M  V30 27 2 25 15
M  V30 28 1 23 18
M  V30 29 1 1 26
M  V30 30 1 1 27
M  V30 31 1 1 28
M  V30 32 1 4 29
M  V30 33 1 7 30
M  V30 34 1 8 31
M  V30 35 1 11 32
M  V30 36 1 12 33
M  V30 37 1 16 34
M  V30 38 1 19 35
M  V30 39 1 20 36
M  V30 40 1 22 37
M  V30 41 1 23 38
M  V30 END BOND
M  V30 END CTAB
M  END
>  <Dataset>  (966) 
ChEMBL_Kinases

>  <Ligand_Instance>  (966) 
nan

>  <PDB_ID>  (966) 
nan

>  <Standardized_SMILES>  (966) 
COc1cc(F)ccc1-c1c[nH]c(=O)c2cc(-c3ccncc3)sc12

>  <Name>  (966) 
nan

>  <Pocket>  (966) 
nan

>  <ATP_Site>  (966) 
nan

>  <Peripheral>  (966) 
nan

>  <Num_H_Atoms_ProtBoundConf>  (966) 
nan

>  <Num_Resolved_Atoms>  (966) 
nan

>  <Num_Not_Resolved_Atoms>  (966) 
nan

$$$$
CHEMBL1809119
     RDKit          3D

  0  0  0  0  0  0  0  0  0  0999 V3000
M  V30 BEGIN CTAB
M  V30 COUNTS 40 43 0 0 0
M  V30 BEGIN ATOM
M  V30 1 C 0.554556 -6.564719 -0.186828 0
M  V30 2 C 1.992667 -6.378966 0.188510 0
M  V30 3 O 2.166779 -5.145084 0.863295 0
M  V30 4 C 1.857510 -3.925923 0.276578 0
M  V30 5 C 2.110924 -2.847489 1.130067 0
M  V30 6 C 1.861478 -1.549745 0.713246 0
M  V30 7 C 1.356953 -1.330677 -0.561441 0
M  V30 8 C 1.085845 0.027181 -1.023879 0
M  V30 9 C 1.468622 0.448148 -2.282570 0
M  V30 10 N 1.131606 1.727213 -2.523151 0
M  V30 11 C 0.503306 2.578686 -1.718212 0
M  V30 12 O 0.282598 3.759332 -2.156206 0
M  V30 13 C 0.118246 2.149205 -0.447099 0
M  V30 14 C -0.529069 2.929946 0.461095 0
M  V30 15 C -0.831744 2.333540 1.671848 0
M  V30 16 C -1.497535 2.760692 2.913222 0
M  V30 17 C -1.626748 1.869830 3.950008 0
M  V30 18 C -2.270099 2.416173 5.040394 0
M  V30 19 N -2.729571 3.678238 5.106549 0
M  V30 20 C -2.565394 4.492160 4.049121 0
M  V30 21 C -1.928151 4.062246 2.878168 0
M  V30 22 S -0.161073 0.586904 1.497561 0
M  V30 23 C 0.425532 0.875183 -0.139615 0
M  V30 24 C 1.124463 -2.436325 -1.365322 0
M  V30 25 N 1.368255 -3.694206 -0.956075 0
M  V30 26 H 0.081613 -5.590073 -0.310080 0
M  V30 27 H 0.464572 -7.166185 -1.113752 0
M  V30 28 H -0.014733 -7.128150 0.592190 0
M  V30 29 H 2.657922 -6.350116 -0.703792 0
M  V30 30 H 2.349009 -7.195000 0.819148 0
M  V30 31 H 2.503271 -2.926502 2.137747 0
M  V30 32 H 2.050203 -0.700742 1.357104 0
M  V30 33 H 1.979935 -0.200698 -2.973672 0
M  V30 34 H 1.419717 2.071037 -3.492628 0
M  V30 35 H -0.852793 3.957584 0.394337 0
M  V30 36 H -1.262378 0.853428 3.910280 0
M  V30 37 H -2.433281 1.800065 5.933763 0
M  V30 38 H -2.943542 5.508559 4.121797 0
M  V30 39 H -1.795222 4.714527 2.027515 0
M  V30 40 H 0.729228 -2.317721 -2.373393 0
M  V30 END ATOM
M  V30 BEGIN BOND
M  V30 1 1 1 2
M  V30 2 1 2 3
M  V30 3 1 3 4
M  V30 4 2 4 5
M  V30 5 1 5 6
M  V30 6 2 6 7
M  V30 7 1 7 8
M  V30 8 2 8 9
M  V30 9 1 9 10
M  V30 10 1 10 11
M  V30 11 2 11 12
M  V30 12 1 11 13
M  V30 13 1 13 14
M  V30 14 2 14 15
M  V30 15 1 15 16
M  V30 16 2 16 17
M  V30 17 1 17 18
M  V30 18 2 18 19
M  V30 19 1 19 20
M  V30 20 2 20 21
M  V30 21 1 15 22
M  V30 22 1 22 23
M  V30 23 1 7 24
M  V30 24 2 24 25
M  V30 25 1 25 4
M  V30 26 1 23 8
M  V30 27 2 23 13
M  V30 28 1 21 16
M  V30 29 1 1 26
M  V30 30 1 1 27
M  V30 31 1 1 28
M  V30 32 1 2 29
M  V30 33 1 2 30
M  V30 34 1 5 31
M  V30 35 1 6 32
M  V30 36 1 9 33
M  V30 37 1 10 34
M  V30 38 1 14 35
M  V30 39 1 17 36
M  V30 40 1 18 37
M  V30 41 1 20 38
M  V30 42 1 21 39
M  V30 43 1 24 40
M  V30 END BOND
M  V30 END CTAB
M  END
>  <Dataset>  (967) 
ChEMBL_Kinases

>  <Ligand_Instance>  (967) 
nan

>  <PDB_ID>  (967) 
nan

>  <Standardized_SMILES>  (967) 
CCOc1ccc(-c2c[nH]c(=O)c3cc(-c4ccncc4)sc23)cn1

>  <Name>  (967) 
nan

>  <Pocket>  (967) 
nan

>  <ATP_Site>  (967) 
nan

>  <Peripheral>  (967) 
nan

>  <Num_H_Atoms_ProtBoundConf>  (967) 
nan

>  <Num_Resolved_Atoms>  (967) 
nan

>  <Num_Not_Resolved_Atoms>  (967) 
nan

$$$$
CHEMBL1809118
     RDKit          3D

  0  0  0  0  0  0  0  0  0  0999 V3000
M  V30 BEGIN CTAB
M  V30 COUNTS 41 44 0 0 0
M  V30 BEGIN ATOM
M  V30 1 C 2.913828 -3.989096 0.082994 0
M  V30 2 O 2.418337 -3.113609 -0.881074 0
M  V30 3 C 1.069227 -2.877906 -0.742357 0
M  V30 4 C 0.519318 -1.955538 -1.747979 0
M  V30 5 C -0.238778 -2.282038 -2.846011 0
M  V30 6 C -0.709674 -1.338202 -3.734957 0
M  V30 7 C -0.386209 -0.006186 -3.481785 0
M  V30 8 C 0.375110 0.369640 -2.387749 0
M  V30 9 C 0.824436 -0.613028 -1.524607 0
M  V30 10 C 1.625474 -0.151834 -0.384766 0
M  V30 11 C 3.000137 -0.035252 -0.451511 0
M  V30 12 N 3.536174 0.406810 0.711903 0
M  V30 13 C 2.895556 0.718841 1.841344 0
M  V30 14 O 3.608504 1.116001 2.816694 0
M  V30 15 C 1.521508 0.596802 1.891594 0
M  V30 16 C 0.762196 0.887854 2.994818 0
M  V30 17 C -0.600683 0.708722 2.870532 0
M  V30 18 C -1.747393 0.889087 3.759622 0
M  V30 19 C -2.996925 0.613505 3.308880 0
M  V30 20 C -4.034541 0.796461 4.173106 0
M  V30 21 N -3.790020 1.235942 5.421238 0
M  V30 22 C -2.536430 1.507278 5.857731 0
M  V30 23 C -1.437861 1.334586 5.005741 0
M  V30 24 S -0.794393 0.107539 1.125742 0
M  V30 25 C 0.913339 0.159525 0.764436 0
M  V30 26 H 2.431669 -4.979552 0.055959 0
M  V30 27 H 3.989364 -4.162641 -0.138734 0
M  V30 28 H 2.805121 -3.573356 1.106444 0
M  V30 29 H 0.885481 -2.488730 0.296465 0
M  V30 30 H 0.530061 -3.851926 -0.772321 0
M  V30 31 H -0.449197 -3.354729 -2.973938 0
M  V30 32 H -1.306314 -1.624367 -4.593733 0
M  V30 33 H -0.762643 0.737586 -4.190544 0
M  V30 34 H 0.569704 1.416144 -2.279920 0
M  V30 35 H 3.532007 -0.275944 -1.335232 0
M  V30 36 H 4.596425 0.503707 0.681035 0
M  V30 37 H 1.058042 1.242649 3.969288 0
M  V30 38 H -3.161930 0.257182 2.286920 0
M  V30 39 H -5.037184 0.569913 3.795229 0
M  V30 40 H -2.403515 1.858635 6.874258 0
M  V30 41 H -0.434495 1.543473 5.330327 0
M  V30 END ATOM
M  V30 BEGIN BOND
M  V30 1 1 1 2
M  V30 2 1 2 3
M  V30 3 1 3 4
M  V30 4 2 4 5
M  V30 5 1 5 6
M  V30 6 2 6 7
M  V30 7 1 7 8
M  V30 8 2 8 9
M  V30 9 1 9 10
M  V30 10 2 10 11
M  V30 11 1 11 12
M  V30 12 1 12 13
M  V30 13 2 13 14
M  V30 14 1 13 15
M  V30 15 1 15 16
M  V30 16 2 16 17
M  V30 17 1 17 18
M  V30 18 2 18 19
M  V30 19 1 19 20
M  V30 20 2 20 21
M  V30 21 1 21 22
M  V30 22 2 22 23
M  V30 23 1 17 24
M  V30 24 1 24 25
M  V30 25 1 9 4
M  V30 26 1 25 10
M  V30 27 2 25 15
M  V30 28 1 23 18
M  V30 29 1 1 26
M  V30 30 1 1 27
M  V30 31 1 1 28
M  V30 32 1 3 29
M  V30 33 1 3 30
M  V30 34 1 5 31
M  V30 35 1 6 32
M  V30 36 1 7 33
M  V30 37 1 8 34
M  V30 38 1 11 35
M  V30 39 1 12 36
M  V30 40 1 16 37
M  V30 41 1 19 38
M  V30 42 1 20 39
M  V30 43 1 22 40
M  V30 44 1 23 41
M  V30 END BOND
M  V30 END CTAB
M  END
>  <Dataset>  (968) 
ChEMBL_Kinases

>  <Ligand_Instance>  (968) 
nan

>  <PDB_ID>  (968) 
nan

>  <Standardized_SMILES>  (968) 
COCc1ccccc1-c1c[nH]c(=O)c2cc(-c3ccncc3)sc12

>  <Name>  (968) 
nan

>  <Pocket>  (968) 
nan

>  <ATP_Site>  (968) 
nan

>  <Peripheral>  (968) 
nan

>  <Num_H_Atoms_ProtBoundConf>  (968) 
nan

>  <Num_Resolved_Atoms>  (968) 
nan

>  <Num_Not_Resolved_Atoms>  (968) 
nan

$$$$
CHEMBL1822488
     RDKit          3D

  0  0  0  0  0  0  0  0  0  0999 V3000
M  V30 BEGIN CTAB
M  V30 COUNTS 67 72 0 0 0
M  V30 BEGIN ATOM
M  V30 1 C 2.651698 -0.119683 5.714687 0
M  V30 2 C 2.917748 -0.898904 4.460135 0
M  V30 3 C 3.670437 -0.353401 3.427408 0
M  V30 4 C 3.691299 -1.351288 2.471774 0
M  V30 5 N 4.350788 -1.243257 1.228280 0
M  V30 6 C 3.652903 -0.730359 0.114017 0
M  V30 7 N 3.715166 0.616731 -0.076440 0
M  V30 8 C 3.040338 1.102986 -1.151972 0
M  V30 9 S 2.992783 2.856310 -1.585514 0
M  V30 10 C 1.590962 3.633173 -0.754348 0
M  V30 11 C 1.685213 4.199531 0.503214 0
M  V30 12 C 0.564852 4.776119 1.073236 0
M  V30 13 C -0.608147 4.756418 0.346448 0
M  V30 14 N -1.789221 5.350535 0.918243 0
M  V30 15 C -2.469618 4.343373 1.648152 0
M  V30 16 O -1.941518 3.179569 1.659124 0
M  V30 17 C -3.738809 4.445858 2.421569 0
M  V30 18 C -4.604687 3.230623 2.495143 0
M  V30 19 C -3.853941 3.689401 3.720175 0
M  V30 20 C -0.754382 4.203498 -0.912959 0
M  V30 21 C 0.401423 3.632082 -1.451323 0
M  V30 22 N 2.334537 0.305157 -2.004961 0
M  V30 23 N 2.264132 -1.012104 -1.832443 0
M  V30 24 C 1.651197 -2.001082 -2.511462 0
M  V30 25 C 1.950986 -3.176783 -1.833875 0
M  V30 26 N 1.474010 -4.474504 -2.252283 0
M  V30 27 C 0.221856 -4.695149 -1.604695 0
M  V30 28 O -0.102747 -3.705778 -0.863372 0
M  V30 29 C -0.592327 -5.949591 -1.792381 0
M  V30 30 N -1.784761 -5.763525 -0.958660 0
M  V30 31 C -2.665205 -6.910229 -1.046634 0
M  V30 32 C -3.815583 -6.473429 -1.951579 0
M  V30 33 C -3.953849 -5.022111 -1.581627 0
M  V30 34 C -2.509851 -4.610437 -1.389089 0
M  V30 35 C 2.751607 -2.894430 -0.736770 0
M  V30 36 C 2.927637 -1.518368 -0.769115 0
M  V30 37 N 2.991922 -2.389662 2.944942 0
M  V30 38 N 2.511901 -2.146951 4.144028 0
M  V30 39 H 1.988774 -0.689942 6.392523 0
M  V30 40 H 2.077831 0.779200 5.367912 0
M  V30 41 H 3.596496 0.169066 6.219089 0
M  V30 42 H 4.141511 0.616690 3.356428 0
M  V30 43 H 5.356649 -1.541633 1.126234 0
M  V30 44 H 2.639428 4.175553 1.009527 0
M  V30 45 H 0.618197 5.223258 2.053819 0
M  V30 46 H -2.282955 6.277363 0.955900 0
M  V30 47 H -4.186570 5.454637 2.405666 0
M  V30 48 H -5.713022 3.398867 2.495364 0
M  V30 49 H -4.236098 2.355759 1.915504 0
M  V30 50 H -4.467194 4.066990 4.546355 0
M  V30 51 H -2.960912 3.115102 4.044592 0
M  V30 52 H -1.703130 4.217512 -1.437135 0
M  V30 53 H 0.296460 3.196886 -2.436696 0
M  V30 54 H 1.041965 -1.902521 -3.411468 0
M  V30 55 H 1.837552 -5.231548 -2.890406 0
M  V30 56 H -0.035273 -6.845813 -1.445071 0
M  V30 57 H -0.846966 -6.120713 -2.856000 0
M  V30 58 H -3.107522 -7.046280 -0.034395 0
M  V30 59 H -2.163460 -7.819042 -1.394787 0
M  V30 60 H -3.517995 -6.516356 -3.035196 0
M  V30 61 H -4.751279 -6.991685 -1.752260 0
M  V30 62 H -4.384794 -4.387640 -2.365238 0
M  V30 63 H -4.566448 -4.869910 -0.671265 0
M  V30 64 H -2.132052 -4.309192 -2.386196 0
M  V30 65 H -2.427999 -3.794126 -0.644460 0
M  V30 66 H 3.147035 -3.603118 -0.018331 0
M  V30 67 H 1.931781 -2.757914 4.765696 0
M  V30 END ATOM
M  V30 BEGIN BOND
M  V30 1 1 1 2
M  V30 2 2 2 3
M  V30 3 1 3 4
M  V30 4 1 4 5
M  V30 5 1 5 6
M  V30 6 2 6 7
M  V30 7 1 7 8
M  V30 8 1 8 9
M  V30 9 1 9 10
M  V30 10 2 10 11
M  V30 11 1 11 12
M  V30 12 2 12 13
M  V30 13 1 13 14
M  V30 14 1 14 15
M  V30 15 2 15 16
M  V30 16 1 15 17
M  V30 17 1 17 18
M  V30 18 1 18 19
M  V30 19 1 13 20
M  V30 20 2 20 21
M  V30 21 2 8 22
M  V30 22 1 22 23
M  V30 23 1 23 24
M  V30 24 2 24 25
M  V30 25 1 25 26
M  V30 26 1 26 27
M  V30 27 2 27 28
M  V30 28 1 27 29
M  V30 29 1 29 30
M  V30 30 1 30 31
M  V30 31 1 31 32
M  V30 32 1 32 33
M  V30 33 1 33 34
M  V30 34 1 25 35
M  V30 35 2 35 36
M  V30 36 2 4 37
M  V30 37 1 37 38
M  V30 38 1 38 2
M  V30 39 1 36 6
M  V30 40 1 21 10
M  V30 41 1 36 23
M  V30 42 1 19 17
M  V30 43 1 34 30
M  V30 44 1 1 39
M  V30 45 1 1 40
M  V30 46 1 1 41
M  V30 47 1 3 42
M  V30 48 1 5 43
M  V30 49 1 11 44
M  V30 50 1 12 45
M  V30 51 1 14 46
M  V30 52 1 17 47
M  V30 53 1 18 48
M  V30 54 1 18 49
M  V30 55 1 19 50
M  V30 56 1 19 51
M  V30 57 1 20 52
M  V30 58 1 21 53
M  V30 59 1 24 54
M  V30 60 1 26 55
M  V30 61 1 29 56
M  V30 62 1 29 57
M  V30 63 1 31 58
M  V30 64 1 31 59
M  V30 65 1 32 60
M  V30 66 1 32 61
M  V30 67 1 33 62
M  V30 68 1 33 63
M  V30 69 1 34 64
M  V30 70 1 34 65
M  V30 71 1 35 66
M  V30 72 1 38 67
M  V30 END BOND
M  V30 END CTAB
M  END
>  <Dataset>  (969) 
ChEMBL_Kinases

>  <Ligand_Instance>  (969) 
nan

>  <PDB_ID>  (969) 
nan

>  <Standardized_SMILES>  (969) 
Cc1cc(Nc2nc(Sc3ccc(NC(=O)C4CC4)cc3)nn3cc(NC(=O)CN4CCCC4)cc23)n[nH]1

>  <Name>  (969) 
nan

>  <Pocket>  (969) 
nan

>  <ATP_Site>  (969) 
nan

>  <Peripheral>  (969) 
nan

>  <Num_H_Atoms_ProtBoundConf>  (969) 
nan

>  <Num_Resolved_Atoms>  (969) 
nan

>  <Num_Not_Resolved_Atoms>  (969) 
nan

$$$$
CHEMBL1807591
     RDKit          3D

  0  0  0  0  0  0  0  0  0  0999 V3000
M  V30 BEGIN CTAB
M  V30 COUNTS 52 56 0 0 0
M  V30 BEGIN ATOM
M  V30 1 C 0.459093 -2.572921 2.972002 0
M  V30 2 C 1.349927 -1.606964 2.326668 0
M  V30 3 C 2.648085 -1.584739 2.848585 0
M  V30 4 C 3.650587 -0.765993 2.386873 0
M  V30 5 C 3.378290 0.094175 1.344170 0
M  V30 6 C 4.311963 1.031196 0.725512 0
M  V30 7 O 4.024622 1.804848 -0.230601 0
M  V30 8 N 5.640503 1.131380 1.176407 0
M  V30 9 C 6.573442 2.066572 0.558984 0
M  V30 10 C 7.944515 1.426808 0.306863 0
M  V30 11 C 7.769261 2.501472 1.284343 0
M  V30 12 C 2.104949 0.076952 0.827755 0
M  V30 13 C 1.066300 -0.746065 1.279519 0
M  V30 14 N -0.257172 -0.793065 0.760021 0
M  V30 15 C -1.356400 -0.454805 1.573407 0
M  V30 16 N -1.073424 -0.061554 2.813849 0
M  V30 17 C -2.093367 0.267730 3.625199 0
M  V30 18 N -3.377594 0.196027 3.176314 0
M  V30 19 N -3.634612 -0.198202 1.937246 0
M  V30 20 C -4.807648 -0.340170 1.296697 0
M  V30 21 C -4.581789 -0.786115 -0.011809 0
M  V30 22 C -5.645648 -1.052283 -0.969070 0
M  V30 23 O -6.512632 -0.118957 -1.017419 0
M  V30 24 C -5.814378 -2.214592 -1.832170 0
M  V30 25 C -6.875325 -2.295927 -2.707665 0
M  V30 26 C -6.721666 -3.514293 -3.354569 0
M  V30 27 C -5.594053 -4.118519 -2.858643 0
M  V30 28 O -5.116678 -3.290467 -1.966909 0
M  V30 29 C -3.210198 -0.900827 -0.113337 0
M  V30 30 C -2.490872 -1.329033 -1.315958 0
M  V30 31 C -2.646903 -0.537179 1.089949 0
M  V30 32 H 1.026414 -3.518785 3.116422 0
M  V30 33 H -0.447870 -2.725487 2.352406 0
M  V30 34 H 0.128825 -2.278662 3.980522 0
M  V30 35 H 2.971562 -2.229027 3.679981 0
M  V30 36 H 4.645229 -0.742220 2.779456 0
M  V30 37 H 5.997687 0.544088 1.960888 0
M  V30 38 H 6.185004 2.686110 -0.275120 0
M  V30 39 H 8.138710 0.404318 0.648604 0
M  V30 40 H 8.426050 1.644930 -0.671163 0
M  V30 41 H 7.851011 2.230762 2.355223 0
M  V30 42 H 8.241453 3.475054 1.054234 0
M  V30 43 H 1.783164 0.713894 0.005243 0
M  V30 44 H -0.010781 -1.107700 -0.198873 0
M  V30 45 H -1.947610 0.592344 4.633461 0
M  V30 46 H -5.802266 -0.146048 1.704503 0
M  V30 47 H -7.695695 -1.615495 -2.916822 0
M  V30 48 H -7.318724 -3.994306 -4.120422 0
M  V30 49 H -5.087432 -5.039673 -3.044455 0
M  V30 50 H -1.864733 -2.221669 -1.202918 0
M  V30 51 H -3.160054 -1.412080 -2.200458 0
M  V30 52 H -1.806779 -0.471380 -1.589239 0
M  V30 END ATOM
M  V30 BEGIN BOND
M  V30 1 1 1 2
M  V30 2 2 2 3
M  V30 3 1 3 4
M  V30 4 2 4 5
M  V30 5 1 5 6
M  V30 6 2 6 7
M  V30 7 1 6 8
M  V30 8 1 8 9
M  V30 9 1 9 10
M  V30 10 1 10 11
M  V30 11 1 5 12
M  V30 12 2 12 13
M  V30 13 1 13 14
M  V30 14 1 14 15
M  V30 15 2 15 16
M  V30 16 1 16 17
M  V30 17 2 17 18
M  V30 18 1 18 19
M  V30 19 1 19 20
M  V30 20 2 20 21
M  V30 21 1 21 22
M  V30 22 2 22 23
M  V30 23 1 22 24
M  V30 24 2 24 25
M  V30 25 1 25 26
M  V30 26 2 26 27
M  V30 27 1 27 28
M  V30 28 1 21 29
M  V30 29 1 29 30
M  V30 30 2 29 31
M  V30 31 1 13 2
M  V30 32 1 31 15
M  V30 33 1 11 9
M  V30 34 1 31 19
M  V30 35 1 28 24
M  V30 36 1 1 32
M  V30 37 1 1 33
M  V30 38 1 1 34
M  V30 39 1 3 35
M  V30 40 1 4 36
M  V30 41 1 8 37
M  V30 42 1 9 38
M  V30 43 1 10 39
M  V30 44 1 10 40
M  V30 45 1 11 41
M  V30 46 1 11 42
M  V30 47 1 12 43
M  V30 48 1 14 44
M  V30 49 1 17 45
M  V30 50 1 20 46
M  V30 51 1 25 47
M  V30 52 1 26 48
M  V30 53 1 27 49
M  V30 54 1 30 50
M  V30 55 1 30 51
M  V30 56 1 30 52
M  V30 END BOND
M  V30 END CTAB
M  END
>  <Dataset>  (970) 
ChEMBL_Kinases

>  <Ligand_Instance>  (970) 
nan

>  <PDB_ID>  (970) 
nan

>  <Standardized_SMILES>  (970) 
Cc1ccc(C(=O)NC2CC2)cc1Nc1ncnn2cc(C(=O)c3ccco3)c(C)c12

>  <Name>  (970) 
nan

>  <Pocket>  (970) 
nan

>  <ATP_Site>  (970) 
nan

>  <Peripheral>  (970) 
nan

>  <Num_H_Atoms_ProtBoundConf>  (970) 
nan

>  <Num_Resolved_Atoms>  (970) 
nan

>  <Num_Not_Resolved_Atoms>  (970) 
nan

$$$$
CHEMBL1807592
     RDKit          3D

  0  0  0  0  0  0  0  0  0  0999 V3000
M  V30 BEGIN CTAB
M  V30 COUNTS 59 64 0 0 0
M  V30 BEGIN ATOM
M  V30 1 C 0.496876 -0.867094 4.251752 0
M  V30 2 C 1.694951 -0.184050 3.715482 0
M  V30 3 C 2.666784 0.080091 4.688053 0
M  V30 4 C 3.859338 0.714168 4.427972 0
M  V30 5 C 4.091412 1.104065 3.127094 0
M  V30 6 C 5.337800 1.778078 2.801042 0
M  V30 7 O 6.157875 1.973115 3.742304 0
M  V30 8 N 5.687879 2.226696 1.502688 0
M  V30 9 C 6.913042 2.896837 1.145945 0
M  V30 10 C 7.507369 2.743277 -0.199505 0
M  V30 11 C 6.784018 4.028016 0.187155 0
M  V30 12 C 3.153560 0.857271 2.149375 0
M  V30 13 C 1.956263 0.222238 2.401715 0
M  V30 14 N 0.918519 -0.078637 1.477818 0
M  V30 15 C 0.549954 -1.422474 1.232612 0
M  V30 16 N 1.270595 -2.340370 1.890859 0
M  V30 17 C 1.018872 -3.653213 1.736497 0
M  V30 18 N 0.022583 -3.996630 0.900991 0
M  V30 19 N -0.683887 -3.082651 0.255023 0
M  V30 20 C -1.701571 -3.195639 -0.611813 0
M  V30 21 C -2.168133 -2.002201 -1.066632 0
M  V30 22 C -3.207036 -1.564814 -1.984753 0
M  V30 23 O -2.781804 -0.680779 -2.815410 0
M  V30 24 C -4.611139 -1.880303 -2.188896 0
M  V30 25 C -5.557541 -0.843969 -2.251542 0
M  V30 26 N -6.784566 -1.345915 -2.403396 0
M  V30 27 C -6.733796 -2.685661 -2.449865 0
M  V30 28 C -7.618012 -3.735363 -2.590820 0
M  V30 29 C -7.202178 -5.050398 -2.602396 0
M  V30 30 C -5.859626 -5.337164 -2.469539 0
M  V30 31 C -4.977527 -4.289162 -2.328701 0
M  V30 32 C -5.401170 -2.999515 -2.318281 0
M  V30 33 C -1.354616 -1.061444 -0.412787 0
M  V30 34 C -1.385604 0.413279 -0.493065 0
M  V30 35 C -0.472778 -1.760902 0.374496 0
M  V30 36 H 0.779656 -1.869554 4.589649 0
M  V30 37 H -0.367023 -0.829782 3.556605 0
M  V30 38 H 0.191243 -0.261824 5.152909 0
M  V30 39 H 2.545601 -0.202473 5.739537 0
M  V30 40 H 4.595696 0.908255 5.193394 0
M  V30 41 H 5.033486 2.077945 0.719208 0
M  V30 42 H 7.634789 3.065291 1.981844 0
M  V30 43 H 8.583609 2.873806 -0.336555 0
M  V30 44 H 6.978631 2.039195 -0.872799 0
M  V30 45 H 7.371592 4.942521 0.374398 0
M  V30 46 H 5.848181 4.203089 -0.378726 0
M  V30 47 H 3.276459 1.136853 1.117175 0
M  V30 48 H 0.694180 0.895768 1.208522 0
M  V30 49 H 1.599824 -4.401184 2.267581 0
M  V30 50 H -2.100037 -4.147828 -0.910708 0
M  V30 51 H -5.410826 0.225974 -2.194861 0
M  V30 52 H -7.696371 -0.843975 -2.482159 0
M  V30 53 H -8.670271 -3.442718 -2.692028 0
M  V30 54 H -7.990262 -5.805019 -2.720118 0
M  V30 55 H -5.585392 -6.368278 -2.484330 0
M  V30 56 H -3.941218 -4.560640 -2.237458 0
M  V30 57 H -2.265347 0.745367 -1.102549 0
M  V30 58 H -1.565327 0.759221 0.568784 0
M  V30 59 H -0.458712 0.866275 -0.869240 0
M  V30 END ATOM
M  V30 BEGIN BOND
M  V30 1 1 1 2
M  V30 2 2 2 3
M  V30 3 1 3 4
M  V30 4 2 4 5
M  V30 5 1 5 6
M  V30 6 2 6 7
M  V30 7 1 6 8
M  V30 8 1 8 9
M  V30 9 1 9 10
M  V30 10 1 10 11
M  V30 11 1 5 12
M  V30 12 2 12 13
M  V30 13 1 13 14
M  V30 14 1 14 15
M  V30 15 2 15 16
M  V30 16 1 16 17
M  V30 17 2 17 18
M  V30 18 1 18 19
M  V30 19 1 19 20
M  V30 20 2 20 21
M  V30 21 1 21 22
M  V30 22 2 22 23
M  V30 23 1 22 24
M  V30 24 2 24 25
M  V30 25 1 25 26
M  V30 26 1 26 27
M  V30 27 2 27 28
M  V30 28 1 28 29
M  V30 29 2 29 30
M  V30 30 1 30 31
M  V30 31 2 31 32
M  V30 32 1 21 33
M  V30 33 1 33 34
M  V30 34 2 33 35
M  V30 35 1 13 2
M  V30 36 1 35 15
M  V30 37 1 11 9
M  V30 38 1 35 19
M  V30 39 1 32 24
M  V30 40 1 32 27
M  V30 41 1 1 36
M  V30 42 1 1 37
M  V30 43 1 1 38
M  V30 44 1 3 39
M  V30 45 1 4 40
M  V30 46 1 8 41
M  V30 47 1 9 42
M  V30 48 1 10 43
M  V30 49 1 10 44
M  V30 50 1 11 45
M  V30 51 1 11 46
M  V30 52 1 12 47
M  V30 53 1 14 48
M  V30 54 1 17 49
M  V30 55 1 20 50
M  V30 56 1 25 51
M  V30 57 1 26 52
M  V30 58 1 28 53
M  V30 59 1 29 54
M  V30 60 1 30 55
M  V30 61 1 31 56
M  V30 62 1 34 57
M  V30 63 1 34 58
M  V30 64 1 34 59
M  V30 END BOND
M  V30 END CTAB
M  END
>  <Dataset>  (971) 
ChEMBL_Kinases

>  <Ligand_Instance>  (971) 
nan

>  <PDB_ID>  (971) 
nan

>  <Standardized_SMILES>  (971) 
Cc1ccc(C(=O)NC2CC2)cc1Nc1ncnn2cc(C(=O)c3c[nH]c4ccccc34)c(C)c12

>  <Name>  (971) 
nan

>  <Pocket>  (971) 
nan

>  <ATP_Site>  (971) 
nan

>  <Peripheral>  (971) 
nan

>  <Num_H_Atoms_ProtBoundConf>  (971) 
nan

>  <Num_Resolved_Atoms>  (971) 
nan

>  <Num_Not_Resolved_Atoms>  (971) 
nan

$$$$
CHEMBL1807593
     RDKit          3D

  0  0  0  0  0  0  0  0  0  0999 V3000
M  V30 BEGIN CTAB
M  V30 COUNTS 62 67 0 0 0
M  V30 BEGIN ATOM
M  V30 1 C 1.774444 1.192002 5.897849 0
M  V30 2 C 2.210777 1.183849 4.497136 0
M  V30 3 C 3.555069 0.940767 4.220904 0
M  V30 4 C 4.043012 0.917074 2.919937 0
M  V30 5 C 3.185382 1.138530 1.858693 0
M  V30 6 C 3.772926 1.100050 0.523946 0
M  V30 7 O 4.996450 0.894512 0.409923 0
M  V30 8 N 2.986930 1.291217 -0.659335 0
M  V30 9 C 3.514731 1.263825 -1.989354 0
M  V30 10 C 2.703418 0.531348 -3.044589 0
M  V30 11 C 2.954947 2.029987 -3.104146 0
M  V30 12 C 1.854446 1.380797 2.102093 0
M  V30 13 C 1.407381 1.397144 3.397359 0
M  V30 14 N 0.010430 1.656092 3.645107 0
M  V30 15 C -0.815306 1.878893 2.506592 0
M  V30 16 N -0.874912 3.177487 2.099030 0
M  V30 17 C -1.649652 3.442892 1.016257 0
M  V30 18 N -2.319332 2.461967 0.387276 0
M  V30 19 N -2.239380 1.214260 0.808751 0
M  V30 20 C -2.798439 0.073437 0.367298 0
M  V30 21 C -2.432189 -1.035156 1.129750 0
M  V30 22 C -2.834864 -2.417764 0.980711 0
M  V30 23 O -3.196565 -2.860155 2.112032 0
M  V30 24 C -2.887182 -3.298601 -0.149515 0
M  V30 25 C -3.437218 -4.555391 -0.020833 0
M  V30 26 C -3.326702 -5.150454 -1.281210 0
M  V30 27 C -3.696670 -6.385585 -1.764792 0
M  V30 28 C -3.482095 -6.754261 -3.068035 0
M  V30 29 C -2.876056 -5.859217 -3.922364 0
M  V30 30 C -2.478026 -4.590462 -3.489342 0
M  V30 31 C -2.724489 -4.286852 -2.167717 0
M  V30 32 N -2.479823 -3.178415 -1.423571 0
M  V30 33 C -1.833397 -2.007226 -1.979131 0
M  V30 34 C -1.590525 -0.477558 2.090497 0
M  V30 35 C -0.891956 -1.160723 3.177960 0
M  V30 36 C -1.503681 0.880729 1.857720 0
M  V30 37 H 2.423028 0.491798 6.494731 0
M  V30 38 H 0.751885 0.843166 6.074413 0
M  V30 39 H 1.905089 2.193026 6.395769 0
M  V30 40 H 4.237689 0.766496 5.028714 0
M  V30 41 H 5.112672 0.718633 2.794387 0
M  V30 42 H 1.962607 1.463957 -0.595220 0
M  V30 43 H 4.632387 1.101236 -2.023768 0
M  V30 44 H 3.236936 -0.142566 -3.745575 0
M  V30 45 H 1.727830 0.143740 -2.720922 0
M  V30 46 H 2.097220 2.729215 -3.003781 0
M  V30 47 H 3.630741 2.356026 -3.931523 0
M  V30 48 H 1.192018 1.551581 1.288059 0
M  V30 49 H -0.386484 1.681574 4.604831 0
M  V30 50 H -1.823441 4.414523 0.541854 0
M  V30 51 H -3.458680 0.062156 -0.488870 0
M  V30 52 H -3.891913 -5.101887 0.803569 0
M  V30 53 H -4.169566 -7.112683 -1.140580 0
M  V30 54 H -3.753156 -7.709472 -3.496562 0
M  V30 55 H -2.682072 -6.099584 -4.964130 0
M  V30 56 H -2.003524 -3.893474 -4.163247 0
M  V30 57 H -1.106577 -1.604594 -1.237277 0
M  V30 58 H -2.593252 -1.255215 -2.264888 0
M  V30 59 H -1.270806 -2.274493 -2.926765 0
M  V30 60 H -1.377904 -2.139127 3.358812 0
M  V30 61 H -0.967616 -0.615086 4.134797 0
M  V30 62 H 0.171822 -1.420224 2.923992 0
M  V30 END ATOM
M  V30 BEGIN BOND
M  V30 1 1 1 2
M  V30 2 2 2 3
M  V30 3 1 3 4
M  V30 4 2 4 5
M  V30 5 1 5 6
M  V30 6 2 6 7
M  V30 7 1 6 8
M  V30 8 1 8 9
M  V30 9 1 9 10
M  V30 10 1 10 11
M  V30 11 1 5 12
M  V30 12 2 12 13
M  V30 13 1 13 14
M  V30 14 1 14 15
M  V30 15 2 15 16
M  V30 16 1 16 17
M  V30 17 2 17 18
M  V30 18 1 18 19
M  V30 19 1 19 20
M  V30 20 2 20 21
M  V30 21 1 21 22
M  V30 22 2 22 23
M  V30 23 1 22 24
M  V30 24 2 24 25
M  V30 25 1 25 26
M  V30 26 2 26 27
M  V30 27 1 27 28
M  V30 28 2 28 29
M  V30 29 1 29 30
M  V30 30 2 30 31
M  V30 31 1 31 32
M  V30 32 1 32 33
M  V30 33 1 21 34
M  V30 34 1 34 35
M  V30 35 2 34 36
M  V30 36 1 13 2
M  V30 37 1 36 15
M  V30 38 1 11 9
M  V30 39 1 36 19
M  V30 40 1 32 24
M  V30 41 1 31 26
M  V30 42 1 1 37
M  V30 43 1 1 38
M  V30 44 1 1 39
M  V30 45 1 3 40
M  V30 46 1 4 41
M  V30 47 1 8 42
M  V30 48 1 9 43
M  V30 49 1 10 44
M  V30 50 1 10 45
M  V30 51 1 11 46
M  V30 52 1 11 47
M  V30 53 1 12 48
M  V30 54 1 14 49
M  V30 55 1 17 50
M  V30 56 1 20 51
M  V30 57 1 25 52
M  V30 58 1 27 53
M  V30 59 1 28 54
M  V30 60 1 29 55
M  V30 61 1 30 56
M  V30 62 1 33 57
M  V30 63 1 33 58
M  V30 64 1 33 59
M  V30 65 1 35 60
M  V30 66 1 35 61
M  V30 67 1 35 62
M  V30 END BOND
M  V30 END CTAB
M  END
>  <Dataset>  (972) 
ChEMBL_Kinases

>  <Ligand_Instance>  (972) 
nan

>  <PDB_ID>  (972) 
nan

>  <Standardized_SMILES>  (972) 
Cc1ccc(C(=O)NC2CC2)cc1Nc1ncnn2cc(C(=O)c3cc4ccccc4n3C)c(C)c12

>  <Name>  (972) 
nan

>  <Pocket>  (972) 
nan

>  <ATP_Site>  (972) 
nan

>  <Peripheral>  (972) 
nan

>  <Num_H_Atoms_ProtBoundConf>  (972) 
nan

>  <Num_Resolved_Atoms>  (972) 
nan

>  <Num_Not_Resolved_Atoms>  (972) 
nan

$$$$
CHEMBL1807594
     RDKit          3D

  0  0  0  0  0  0  0  0  0  0999 V3000
M  V30 BEGIN CTAB
M  V30 COUNTS 62 67 0 0 0
M  V30 BEGIN ATOM
M  V30 1 C 1.461590 0.830275 6.005113 0
M  V30 2 C 2.015142 0.656718 4.645335 0
M  V30 3 C 3.293629 0.178050 4.461687 0
M  V30 4 C 3.847581 0.001913 3.191938 0
M  V30 5 C 3.122719 0.305255 2.078476 0
M  V30 6 C 3.703559 0.120482 0.769043 0
M  V30 7 O 4.892435 -0.326118 0.745753 0
M  V30 8 N 3.073536 0.389058 -0.456899 0
M  V30 9 C 3.637241 0.210719 -1.760311 0
M  V30 10 C 2.835868 -0.051548 -2.961278 0
M  V30 11 C 3.383686 1.361328 -2.722085 0
M  V30 12 C 1.845461 0.782829 2.285089 0
M  V30 13 C 1.284090 0.962830 3.515481 0
M  V30 14 N -0.042570 1.461798 3.629431 0
M  V30 15 C -0.778188 1.770540 2.451123 0
M  V30 16 N -0.654826 3.033259 1.979366 0
M  V30 17 C -1.334382 3.366118 0.867040 0
M  V30 18 N -2.129912 2.486363 0.211251 0
M  V30 19 N -2.260869 1.251216 0.658425 0
M  V30 20 C -2.961898 0.160699 0.241429 0
M  V30 21 C -2.741289 -0.905561 1.090632 0
M  V30 22 C -3.348979 -2.221499 0.918496 0
M  V30 23 O -3.878445 -2.921100 1.818545 0
M  V30 24 C -3.390847 -2.864084 -0.390094 0
M  V30 25 C -4.423654 -3.526493 -1.039639 0
M  V30 26 N -4.005760 -3.959938 -2.238288 0
M  V30 27 C -4.790669 -4.702037 -3.229247 0
M  V30 28 C -2.704966 -3.578280 -2.363146 0
M  V30 29 C -1.800002 -3.762888 -3.387651 0
M  V30 30 C -0.503118 -3.290856 -3.321281 0
M  V30 31 C -0.081235 -2.600334 -2.181056 0
M  V30 32 C -0.999713 -2.422081 -1.160247 0
M  V30 33 C -2.299002 -2.897623 -1.232195 0
M  V30 34 C -1.874093 -0.442075 2.057559 0
M  V30 35 C -1.359599 -1.241423 3.178273 0
M  V30 36 C -1.588806 0.878354 1.780693 0
M  V30 37 H 1.942013 0.042147 6.652260 0
M  V30 38 H 0.383612 0.661155 6.056512 0
M  V30 39 H 1.772528 1.799522 6.458054 0
M  V30 40 H 3.860749 -0.059749 5.353489 0
M  V30 41 H 4.876080 -0.386652 3.180674 0
M  V30 42 H 2.078989 0.762431 -0.431542 0
M  V30 43 H 4.664917 -0.174631 -1.762594 0
M  V30 44 H 3.299227 -0.619734 -3.791394 0
M  V30 45 H 1.742721 -0.082999 -2.992086 0
M  V30 46 H 2.669455 2.161340 -2.435741 0
M  V30 47 H 4.187471 1.699002 -3.402613 0
M  V30 48 H 1.230431 1.038284 1.414662 0
M  V30 49 H -0.535142 1.625396 4.510860 0
M  V30 50 H -1.224778 4.389183 0.498218 0
M  V30 51 H -3.611753 0.122880 -0.640825 0
M  V30 52 H -5.392975 -3.642390 -0.595589 0
M  V30 53 H -5.855711 -4.447159 -3.042862 0
M  V30 54 H -4.587090 -5.780195 -3.095110 0
M  V30 55 H -4.429883 -4.333110 -4.211125 0
M  V30 56 H -2.093590 -4.298946 -4.296692 0
M  V30 57 H 0.246805 -3.407337 -4.094266 0
M  V30 58 H 0.923027 -2.219175 -2.097093 0
M  V30 59 H -0.682117 -1.895663 -0.288332 0
M  V30 60 H -1.341838 -0.597744 4.104781 0
M  V30 61 H -0.312298 -1.586752 3.058161 0
M  V30 62 H -2.055746 -2.085212 3.437139 0
M  V30 END ATOM
M  V30 BEGIN BOND
M  V30 1 1 1 2
M  V30 2 2 2 3
M  V30 3 1 3 4
M  V30 4 2 4 5
M  V30 5 1 5 6
M  V30 6 2 6 7
M  V30 7 1 6 8
M  V30 8 1 8 9
M  V30 9 1 9 10
M  V30 10 1 10 11
M  V30 11 1 5 12
M  V30 12 2 12 13
M  V30 13 1 13 14
M  V30 14 1 14 15
M  V30 15 2 15 16
M  V30 16 1 16 17
M  V30 17 2 17 18
M  V30 18 1 18 19
M  V30 19 1 19 20
M  V30 20 2 20 21
M  V30 21 1 21 22
M  V30 22 2 22 23
M  V30 23 1 22 24
M  V30 24 2 24 25
M  V30 25 1 25 26
M  V30 26 1 26 27
M  V30 27 1 26 28
M  V30 28 2 28 29
M  V30 29 1 29 30
M  V30 30 2 30 31
M  V30 31 1 31 32
M  V30 32 2 32 33
M  V30 33 1 21 34
M  V30 34 1 34 35
M  V30 35 2 34 36
M  V30 36 1 13 2
M  V30 37 1 36 15
M  V30 38 1 11 9
M  V30 39 1 36 19
M  V30 40 1 33 24
M  V30 41 1 33 28
M  V30 42 1 1 37
M  V30 43 1 1 38
M  V30 44 1 1 39
M  V30 45 1 3 40
M  V30 46 1 4 41
M  V30 47 1 8 42
M  V30 48 1 9 43
M  V30 49 1 10 44
M  V30 50 1 10 45
M  V30 51 1 11 46
M  V30 52 1 11 47
M  V30 53 1 12 48
M  V30 54 1 14 49
M  V30 55 1 17 50
M  V30 56 1 20 51
M  V30 57 1 25 52
M  V30 58 1 27 53
M  V30 59 1 27 54
M  V30 60 1 27 55
M  V30 61 1 29 56
M  V30 62 1 30 57
M  V30 63 1 31 58
M  V30 64 1 32 59
M  V30 65 1 35 60
M  V30 66 1 35 61
M  V30 67 1 35 62
M  V30 END BOND
M  V30 END CTAB
M  END
>  <Dataset>  (973) 
ChEMBL_Kinases

>  <Ligand_Instance>  (973) 
nan

>  <PDB_ID>  (973) 
nan

>  <Standardized_SMILES>  (973) 
Cc1ccc(C(=O)NC2CC2)cc1Nc1ncnn2cc(C(=O)c3cn(C)c4ccccc34)c(C)c12

>  <Name>  (973) 
nan

>  <Pocket>  (973) 
nan

>  <ATP_Site>  (973) 
nan

>  <Peripheral>  (973) 
nan

>  <Num_H_Atoms_ProtBoundConf>  (973) 
nan

>  <Num_Resolved_Atoms>  (973) 
nan

>  <Num_Not_Resolved_Atoms>  (973) 
nan

$$$$
CHEMBL180814
     RDKit          3D

  0  0  0  0  0  0  0  0  0  0999 V3000
M  V30 BEGIN CTAB
M  V30 COUNTS 65 68 0 0 0
M  V30 BEGIN ATOM
M  V30 1 C 5.337758 -1.309837 0.068106 0
M  V30 2 C 4.767667 -1.148829 -1.347123 0
M  V30 3 C 5.842067 -0.494907 -2.224666 0
M  V30 4 C 3.549057 -0.322686 -1.330588 0
M  V30 5 C 3.424474 1.001753 -1.672024 0
M  V30 6 N 2.128238 1.374430 -1.532288 0
M  V30 7 N 1.444561 0.319146 -1.113499 0
M  V30 8 C 0.092291 0.323367 -0.854982 0
M  V30 9 N -0.679837 1.497747 -1.026459 0
M  V30 10 C -1.399447 2.381147 -0.176390 0
M  V30 11 C -1.680781 2.009476 1.140832 0
M  V30 12 C -2.402922 2.965894 1.876618 0
M  V30 13 C -2.825788 4.180894 1.404401 0
M  V30 14 S -3.716207 5.232989 2.468891 0
M  V30 15 O -3.380760 6.645517 2.069770 0
M  V30 16 O -3.331142 5.100502 3.903835 0
M  V30 17 N -5.419397 5.015963 2.340541 0
M  V30 18 C -5.801615 5.354054 0.972693 0
M  V30 19 C -5.769901 3.604369 2.537886 0
M  V30 20 C -2.492582 4.441068 0.098895 0
M  V30 21 C -1.792433 3.596199 -0.735920 0
M  V30 22 C -0.384181 -0.917850 -0.416744 0
M  V30 23 C 0.424145 -2.019575 -0.262840 0
M  V30 24 O -0.193779 -3.177209 0.187182 0
M  V30 25 C 0.538029 -4.402898 0.339978 0 CFG=1
M  V30 26 C 0.793985 -4.609963 1.778103 0
M  V30 27 C -0.050778 -5.578485 2.516738 0
M  V30 28 C -0.292913 -6.789391 1.675392 0 CFG=2
M  V30 29 N 0.879043 -7.540024 1.335473 0
M  V30 30 C -0.990938 -6.394684 0.401714 0
M  V30 31 C -0.190207 -5.428904 -0.424220 0
M  V30 32 N 1.723354 -1.883827 -0.552310 0
M  V30 33 C 2.266079 -0.735986 -0.977963 0
M  V30 34 H 6.419963 -1.470426 -0.087786 0
M  V30 35 H 5.079129 -0.473774 0.725585 0
M  V30 36 H 4.920007 -2.255556 0.468551 0
M  V30 37 H 4.626766 -2.153556 -1.753103 0
M  V30 38 H 6.835620 -0.861746 -1.834477 0
M  V30 39 H 5.711296 -0.831901 -3.258752 0
M  V30 40 H 5.852277 0.600842 -2.152019 0
M  V30 41 H 4.161723 1.700682 -2.004797 0
M  V30 42 H -0.623388 1.643608 -2.071670 0
M  V30 43 H -1.358274 1.059145 1.535320 0
M  V30 44 H -2.577929 2.592726 2.892905 0
M  V30 45 H -6.653107 6.092465 0.960736 0
M  V30 46 H -6.196202 4.467692 0.421763 0
M  V30 47 H -4.987227 5.858220 0.438951 0
M  V30 48 H -4.870455 2.993429 2.329797 0
M  V30 49 H -6.222945 3.411038 3.515042 0
M  V30 50 H -6.525348 3.302236 1.764897 0
M  V30 51 H -2.797529 5.383274 -0.311374 0
M  V30 52 H -1.555579 3.843888 -1.755812 0
M  V30 53 H -1.452934 -0.961097 -0.200181 0
M  V30 54 H 1.530201 -4.151052 -0.157341 0
M  V30 55 H 0.733443 -3.637700 2.357215 0
M  V30 56 H 1.872582 -4.909811 1.935453 0
M  V30 57 H 0.533993 -5.930791 3.420904 0
M  V30 58 H -1.028108 -5.167248 2.851357 0
M  V30 59 H -0.976959 -7.451388 2.271164 0
M  V30 60 H 0.783559 -8.012455 0.418545 0
M  V30 61 H 1.076763 -8.314702 2.033837 0
M  V30 62 H -1.939086 -5.889264 0.711325 0
M  V30 63 H -1.273932 -7.318915 -0.130235 0
M  V30 64 H -0.796080 -5.005217 -1.249279 0
M  V30 65 H 0.601559 -6.049914 -0.950762 0
M  V30 END ATOM
M  V30 BEGIN BOND
M  V30 1 1 1 2
M  V30 2 1 2 3
M  V30 3 1 2 4
M  V30 4 1 4 5
M  V30 5 2 5 6
M  V30 6 1 6 7
M  V30 7 1 7 8
M  V30 8 1 8 9
M  V30 9 1 9 10
M  V30 10 2 10 11
M  V30 11 1 11 12
M  V30 12 2 12 13
M  V30 13 1 13 14
M  V30 14 2 14 15
M  V30 15 2 14 16
M  V30 16 1 14 17
M  V30 17 1 17 18
M  V30 18 1 17 19
M  V30 19 1 13 20
M  V30 20 2 20 21
M  V30 21 2 8 22
M  V30 22 1 22 23
M  V30 23 1 23 24
M  V30 24 1 24 25
M  V30 25 1 25 26
M  V30 26 1 26 27
M  V30 27 1 27 28
M  V30 28 1 28 29
M  V30 29 1 28 30
M  V30 30 1 30 31
M  V30 31 2 23 32
M  V30 32 1 32 33
M  V30 33 2 33 4
M  V30 34 1 33 7
M  V30 35 1 21 10
M  V30 36 1 31 25
M  V30 37 1 1 34
M  V30 38 1 1 35
M  V30 39 1 1 36
M  V30 40 1 2 37
M  V30 41 1 3 38
M  V30 42 1 3 39
M  V30 43 1 3 40
M  V30 44 1 5 41
M  V30 45 1 9 42
M  V30 46 1 11 43
M  V30 47 1 12 44
M  V30 48 1 18 45
M  V30 49 1 18 46
M  V30 50 1 18 47
M  V30 51 1 19 48
M  V30 52 1 19 49
M  V30 53 1 19 50
M  V30 54 1 20 51
M  V30 55 1 21 52
M  V30 56 1 22 53
M  V30 57 1 25 54 CFG=3
M  V30 58 1 26 55
M  V30 59 1 26 56
M  V30 60 1 27 57
M  V30 61 1 27 58
M  V30 62 1 28 59 CFG=1
M  V30 63 1 29 60
M  V30 64 1 29 61
M  V30 65 1 30 62
M  V30 66 1 30 63
M  V30 67 1 31 64
M  V30 68 1 31 65
M  V30 END BOND
M  V30 END CTAB
M  END
>  <Dataset>  (974) 
ChEMBL_Kinases

>  <Ligand_Instance>  (974) 
nan

>  <PDB_ID>  (974) 
nan

>  <Standardized_SMILES>  (974) 
CC(C)c1cnn2c(Nc3ccc(S(=O)(=O)N(C)C)cc3)cc(O[C@H]3CC[C@H](N)CC3)nc12

>  <Name>  (974) 
nan

>  <Pocket>  (974) 
nan

>  <ATP_Site>  (974) 
nan

>  <Peripheral>  (974) 
nan

>  <Num_H_Atoms_ProtBoundConf>  (974) 
nan

>  <Num_Resolved_Atoms>  (974) 
nan

>  <Num_Not_Resolved_Atoms>  (974) 
nan

$$$$
CHEMBL180821
     RDKit          3D

  0  0  0  0  0  0  0  0  0  0999 V3000
M  V30 BEGIN CTAB
M  V30 COUNTS 71 74 0 0 0
M  V30 BEGIN ATOM
M  V30 1 C 9.381911 -3.325678 2.637040 0
M  V30 2 C 9.130445 -2.592500 1.365961 0
M  V30 3 N 7.813976 -2.125439 1.127011 0
M  V30 4 C 7.404815 -1.074222 1.981249 0
M  V30 5 C 7.202061 -1.459110 3.406578 0
M  V30 6 C 6.876063 -3.168343 0.940930 0
M  V30 7 C 5.455926 -2.679414 0.749945 0
M  V30 8 O 5.319711 -1.842215 -0.360049 0
M  V30 9 C 4.115968 -1.277795 -0.734821 0
M  V30 10 C 3.000007 -1.570594 0.034452 0
M  V30 11 C 1.807075 -0.997040 -0.352881 0
M  V30 12 C 1.632333 -0.162375 -1.433253 0
M  V30 13 N 0.414144 0.432455 -1.841372 0
M  V30 14 C -0.880954 0.201338 -1.316790 0
M  V30 15 N -1.205192 -0.689322 -0.371753 0
M  V30 16 C -2.418986 -0.909072 0.139381 0
M  V30 17 C -3.464088 -0.149178 -0.342103 0
M  V30 18 C -4.767890 -0.235061 0.068684 0
M  V30 19 C -5.051453 -1.242999 1.110861 0
M  V30 20 C -5.747783 0.577762 -0.472747 0
M  V30 21 C -7.085167 0.366429 0.067961 0
M  V30 22 C -7.942649 -0.515080 -0.501745 0
M  V30 23 C -7.475228 -1.241248 -1.685355 0
M  V30 24 C -9.192408 -0.682370 0.047025 0
M  V30 25 C -9.653841 -0.013327 1.151527 0
M  V30 26 C -8.782009 0.879682 1.726754 0
M  V30 27 C -7.508871 1.073763 1.196993 0
M  V30 28 C -6.538927 2.049551 1.813576 0
M  V30 29 C -5.402018 1.494958 -1.449217 0
M  V30 30 O -6.376482 2.171758 -1.861374 0
M  V30 31 N -4.122305 1.570902 -1.844732 0
M  V30 32 C -3.830905 2.569134 -2.884728 0
M  V30 33 C -3.170932 0.779966 -1.317177 0
M  V30 34 N -1.918115 0.926966 -1.767723 0
M  V30 35 C 2.785653 0.077073 -2.142111 0
M  V30 36 C 4.017228 -0.450775 -1.830741 0
M  V30 37 H 8.681572 -4.170832 2.732099 0
M  V30 38 H 9.515937 -2.709993 3.536759 0
M  V30 39 H 10.390919 -3.836513 2.508960 0
M  V30 40 H 9.898892 -1.768173 1.320589 0
M  V30 41 H 9.479179 -3.284412 0.533024 0
M  V30 42 H 6.448617 -0.600217 1.642008 0
M  V30 43 H 8.156936 -0.225143 1.985712 0
M  V30 44 H 6.236313 -1.079204 3.821656 0
M  V30 45 H 7.138742 -2.551112 3.487285 0
M  V30 46 H 7.968186 -1.013318 4.106831 0
M  V30 47 H 6.879299 -3.820655 1.837856 0
M  V30 48 H 7.132985 -3.850269 0.087880 0
M  V30 49 H 4.857533 -3.608128 0.509584 0
M  V30 50 H 5.076949 -2.294181 1.698280 0
M  V30 51 H 3.058039 -2.220324 0.899849 0
M  V30 52 H 0.960737 -1.241886 0.263641 0
M  V30 53 H 0.482950 1.133225 -2.630689 0
M  V30 54 H -2.643382 -1.625277 0.889761 0
M  V30 55 H -4.824584 -2.274506 0.780011 0
M  V30 56 H -6.157516 -1.242472 1.295675 0
M  V30 57 H -4.534707 -1.043892 2.071015 0
M  V30 58 H -6.586522 -1.880827 -1.467385 0
M  V30 59 H -7.219550 -0.484096 -2.465030 0
M  V30 60 H -8.246615 -1.922146 -2.102472 0
M  V30 61 H -9.826016 -1.408173 -0.467053 0
M  V30 62 H -10.642021 -0.198228 1.521462 0
M  V30 63 H -9.097803 1.430292 2.597663 0
M  V30 64 H -6.122202 2.739484 1.066182 0
M  V30 65 H -7.109514 2.698521 2.539515 0
M  V30 66 H -5.733942 1.489115 2.307534 0
M  V30 67 H -2.754810 2.639936 -3.077015 0
M  V30 68 H -4.455180 2.331520 -3.746023 0
M  V30 69 H -4.264606 3.518192 -2.452836 0
M  V30 70 H 2.773896 0.727836 -3.024237 0
M  V30 71 H 4.897450 -0.252151 -2.393750 0
M  V30 END ATOM
M  V30 BEGIN BOND
M  V30 1 1 1 2
M  V30 2 1 2 3
M  V30 3 1 3 4
M  V30 4 1 4 5
M  V30 5 1 3 6
M  V30 6 1 6 7
M  V30 7 1 7 8
M  V30 8 1 8 9
M  V30 9 2 9 10
M  V30 10 1 10 11
M  V30 11 2 11 12
M  V30 12 1 12 13
M  V30 13 1 13 14
M  V30 14 2 14 15
M  V30 15 1 15 16
M  V30 16 2 16 17
M  V30 17 1 17 18
M  V30 18 1 18 19
M  V30 19 2 18 20
M  V30 20 1 20 21
M  V30 21 2 21 22
M  V30 22 1 22 23
M  V30 23 1 22 24
M  V30 24 2 24 25
M  V30 25 1 25 26
M  V30 26 2 26 27
M  V30 27 1 27 28
M  V30 28 1 20 29
M  V30 29 2 29 30
M  V30 30 1 29 31
M  V30 31 1 31 32
M  V30 32 1 31 33
M  V30 33 2 33 34
M  V30 34 1 12 35
M  V30 35 2 35 36
M  V30 36 1 36 9
M  V30 37 1 34 14
M  V30 38 1 33 17
M  V30 39 1 27 21
M  V30 40 1 1 37
M  V30 41 1 1 38
M  V30 42 1 1 39
M  V30 43 1 2 40
M  V30 44 1 2 41
M  V30 45 1 4 42
M  V30 46 1 4 43
M  V30 47 1 5 44
M  V30 48 1 5 45
M  V30 49 1 5 46
M  V30 50 1 6 47
M  V30 51 1 6 48
M  V30 52 1 7 49
M  V30 53 1 7 50
M  V30 54 1 10 51
M  V30 55 1 11 52
M  V30 56 1 13 53
M  V30 57 1 16 54
M  V30 58 1 19 55
M  V30 59 1 19 56
M  V30 60 1 19 57
M  V30 61 1 23 58
M  V30 62 1 23 59
M  V30 63 1 23 60
M  V30 64 1 24 61
M  V30 65 1 25 62
M  V30 66 1 26 63
M  V30 67 1 28 64
M  V30 68 1 28 65
M  V30 69 1 28 66
M  V30 70 1 32 67
M  V30 71 1 32 68
M  V30 72 1 32 69
M  V30 73 1 35 70
M  V30 74 1 36 71
M  V30 END BOND
M  V30 END CTAB
M  END
>  <Dataset>  (975) 
ChEMBL_Kinases

>  <Ligand_Instance>  (975) 
nan

>  <PDB_ID>  (975) 
nan

>  <Standardized_SMILES>  (975) 
CCN(CC)CCOc1ccc(Nc2ncc3c(C)c(-c4c(C)cccc4C)c(=O)n(C)c3n2)cc1

>  <Name>  (975) 
nan

>  <Pocket>  (975) 
nan

>  <ATP_Site>  (975) 
nan

>  <Peripheral>  (975) 
nan

>  <Num_H_Atoms_ProtBoundConf>  (975) 
nan

>  <Num_Resolved_Atoms>  (975) 
nan

>  <Num_Not_Resolved_Atoms>  (975) 
nan

$$$$
CHEMBL1809107
     RDKit          3D

  0  0  0  0  0  0  0  0  0  0999 V3000
M  V30 BEGIN CTAB
M  V30 COUNTS 47 51 0 0 0
M  V30 BEGIN ATOM
M  V30 1 O -0.196779 -6.451396 1.458257 0
M  V30 2 C 0.167403 -5.282193 1.174484 0
M  V30 3 N 1.349731 -5.071794 0.613918 0
M  V30 4 C 1.906962 -3.911148 0.242942 0
M  V30 5 C 1.148682 -2.787201 0.475828 0
M  V30 6 C 1.526982 -1.412868 0.164964 0
M  V30 7 C 0.599125 -0.588359 -0.439477 0
M  V30 8 C 0.894339 0.720422 -0.758962 0
M  V30 9 C 2.126709 1.277750 -0.494453 0
M  V30 10 N 2.512035 2.612697 -0.791189 0
M  V30 11 C 3.759242 3.253841 -0.519269 0
M  V30 12 C 3.575731 4.572814 0.239602 0
M  V30 13 O 2.567948 5.354402 -0.268387 0
M  V30 14 C 1.361602 4.660164 -0.400371 0
M  V30 15 C 1.655370 3.578650 -1.450210 0
M  V30 16 C 3.046203 0.447049 0.108985 0
M  V30 17 C 2.775247 -0.865644 0.438534 0
M  V30 18 C -0.105383 -2.961745 1.065512 0
M  V30 19 S -1.394699 -1.732980 1.530130 0
M  V30 20 C -2.573346 -3.057257 2.201067 0
M  V30 21 C -3.816227 -2.624487 2.724500 0
M  V30 22 C -4.172902 -1.294352 2.753200 0
M  V30 23 C -5.421938 -1.047127 3.298117 0
M  V30 24 N -6.254275 -2.011268 3.774987 0
M  V30 25 C -5.875378 -3.314240 3.733414 0
M  V30 26 C -4.624442 -3.634262 3.194959 0
M  V30 27 C -1.881956 -4.190434 1.999627 0
M  V30 28 C -0.638003 -4.196748 1.432740 0
M  V30 29 H 1.951425 -5.932772 0.426008 0
M  V30 30 H 2.858728 -3.769288 -0.205542 0
M  V30 31 H -0.394399 -0.950808 -0.681070 0
M  V30 32 H 0.145176 1.323920 -1.226188 0
M  V30 33 H 4.475203 2.645180 0.044949 0
M  V30 34 H 4.197031 3.575028 -1.511086 0
M  V30 35 H 4.528824 5.150536 0.067995 0
M  V30 36 H 3.469298 4.368507 1.331450 0
M  V30 37 H 0.579563 5.351546 -0.716845 0
M  V30 38 H 1.076909 4.143244 0.545672 0
M  V30 39 H 0.726877 3.152185 -1.848712 0
M  V30 40 H 2.153004 4.095823 -2.298946 0
M  V30 41 H 4.051274 0.704229 0.388679 0
M  V30 42 H 3.456069 -1.556142 0.909919 0
M  V30 43 H -3.545572 -0.500696 2.387035 0
M  V30 44 H -5.800056 -0.023835 3.367515 0
M  V30 45 H -6.573888 -4.044184 4.125627 0
M  V30 46 H -4.343459 -4.671601 3.171285 0
M  V30 47 H -2.439907 -5.047429 2.340403 0
M  V30 END ATOM
M  V30 BEGIN BOND
M  V30 1 2 1 2
M  V30 2 1 2 3
M  V30 3 1 3 4
M  V30 4 2 4 5
M  V30 5 1 5 6
M  V30 6 2 6 7
M  V30 7 1 7 8
M  V30 8 2 8 9
M  V30 9 1 9 10
M  V30 10 1 10 11
M  V30 11 1 11 12
M  V30 12 1 12 13
M  V30 13 1 13 14
M  V30 14 1 14 15
M  V30 15 1 9 16
M  V30 16 2 16 17
M  V30 17 1 5 18
M  V30 18 1 18 19
M  V30 19 1 19 20
M  V30 20 1 20 21
M  V30 21 2 21 22
M  V30 22 1 22 23
M  V30 23 2 23 24
M  V30 24 1 24 25
M  V30 25 2 25 26
M  V30 26 2 20 27
M  V30 27 1 27 28
M  V30 28 1 28 2
M  V30 29 1 17 6
M  V30 30 2 28 18
M  V30 31 1 15 10
M  V30 32 1 26 21
M  V30 33 1 3 29
M  V30 34 1 4 30
M  V30 35 1 7 31
M  V30 36 1 8 32
M  V30 37 1 11 33
M  V30 38 1 11 34
M  V30 39 1 12 35
M  V30 40 1 12 36
M  V30 41 1 14 37
M  V30 42 1 14 38
M  V30 43 1 15 39
M  V30 44 1 15 40
M  V30 45 1 16 41
M  V30 46 1 17 42
M  V30 47 1 22 43
M  V30 48 1 23 44
M  V30 49 1 25 45
M  V30 50 1 26 46
M  V30 51 1 27 47
M  V30 END BOND
M  V30 END CTAB
M  END
>  <Dataset>  (976) 
ChEMBL_Kinases

>  <Ligand_Instance>  (976) 
nan

>  <PDB_ID>  (976) 
nan

>  <Standardized_SMILES>  (976) 
O=c1[nH]cc(-c2ccc(N3CCOCC3)cc2)c2sc(-c3ccncc3)cc12

>  <Name>  (976) 
nan

>  <Pocket>  (976) 
nan

>  <ATP_Site>  (976) 
nan

>  <Peripheral>  (976) 
nan

>  <Num_H_Atoms_ProtBoundConf>  (976) 
nan

>  <Num_Resolved_Atoms>  (976) 
nan

>  <Num_Not_Resolved_Atoms>  (976) 
nan

$$$$
CHEMBL1809117
     RDKit          3D

  0  0  0  0  0  0  0  0  0  0999 V3000
M  V30 BEGIN CTAB
M  V30 COUNTS 32 35 0 0 0
M  V30 BEGIN ATOM
M  V30 1 N 4.526522 -0.517276 1.664551 0
M  V30 2 C 3.866612 -1.485857 1.790282 0
M  V30 3 C 3.052197 -2.659092 1.921648 0
M  V30 4 C 3.270955 -3.501129 3.001267 0
M  V30 5 S 2.025692 -4.876180 2.798563 0
M  V30 6 C 1.339180 -4.149671 1.256475 0
M  V30 7 C 2.062019 -2.998842 1.034370 0
M  V30 8 C 1.695143 -2.242055 -0.144801 0
M  V30 9 C 2.250000 -2.429080 -1.381859 0
M  V30 10 N 1.764875 -1.618156 -2.342426 0
M  V30 11 C 0.837148 -0.681208 -2.243136 0
M  V30 12 O 0.505354 -0.013442 -3.257007 0
M  V30 13 C 0.246886 -0.453223 -1.018697 0
M  V30 14 C -0.723788 0.452776 -0.680378 0
M  V30 15 C -1.185725 0.536454 0.576709 0
M  V30 16 C -2.148314 1.320060 1.274467 0
M  V30 17 C -2.375548 1.130241 2.621455 0
M  V30 18 C -3.352753 1.983764 3.146779 0
M  V30 19 N -4.010626 2.900689 2.420635 0
M  V30 20 C -3.772685 3.067410 1.111252 0
M  V30 21 C -2.808920 2.252633 0.507964 0
M  V30 22 S -0.227852 -0.751772 1.486226 0
M  V30 23 C 0.709959 -1.265212 0.017838 0
M  V30 24 H 3.983612 -3.430194 3.807115 0
M  V30 25 H 0.555805 -4.639756 0.767717 0
M  V30 26 H 3.006078 -3.176488 -1.513832 0
M  V30 27 H 2.198740 -1.765316 -3.306841 0
M  V30 28 H -1.186239 1.151592 -1.361970 0
M  V30 29 H -1.855685 0.398258 3.218652 0
M  V30 30 H -3.591352 1.897126 4.205711 0
M  V30 31 H -4.332359 3.821300 0.576040 0
M  V30 32 H -2.627045 2.397350 -0.547394 0
M  V30 END ATOM
M  V30 BEGIN BOND
M  V30 1 3 1 2
M  V30 2 1 2 3
M  V30 3 2 3 4
M  V30 4 1 4 5
M  V30 5 1 5 6
M  V30 6 2 6 7
M  V30 7 1 7 8
M  V30 8 2 8 9
M  V30 9 1 9 10
M  V30 10 1 10 11
M  V30 11 2 11 12
M  V30 12 1 11 13
M  V30 13 1 13 14
M  V30 14 2 14 15
M  V30 15 1 15 16
M  V30 16 2 16 17
M  V30 17 1 17 18
M  V30 18 2 18 19
M  V30 19 1 19 20
M  V30 20 2 20 21
M  V30 21 1 15 22
M  V30 22 1 22 23
M  V30 23 1 7 3
M  V30 24 1 23 8
M  V30 25 2 23 13
M  V30 26 1 21 16
M  V30 27 1 4 24
M  V30 28 1 6 25
M  V30 29 1 9 26
M  V30 30 1 10 27
M  V30 31 1 14 28
M  V30 32 1 17 29
M  V30 33 1 18 30
M  V30 34 1 20 31
M  V30 35 1 21 32
M  V30 END BOND
M  V30 END CTAB
M  END
>  <Dataset>  (977) 
ChEMBL_Kinases

>  <Ligand_Instance>  (977) 
nan

>  <PDB_ID>  (977) 
nan

>  <Standardized_SMILES>  (977) 
N#Cc1cscc1-c1c[nH]c(=O)c2cc(-c3ccncc3)sc12

>  <Name>  (977) 
nan

>  <Pocket>  (977) 
nan

>  <ATP_Site>  (977) 
nan

>  <Peripheral>  (977) 
nan

>  <Num_H_Atoms_ProtBoundConf>  (977) 
nan

>  <Num_Resolved_Atoms>  (977) 
nan

>  <Num_Not_Resolved_Atoms>  (977) 
nan

$$$$
CHEMBL1809109
     RDKit          3D

  0  0  0  0  0  0  0  0  0  0999 V3000
M  V30 BEGIN CTAB
M  V30 COUNTS 46 50 0 0 0
M  V30 BEGIN ATOM
M  V30 1 C 0.751309 -1.668523 4.059114 0
M  V30 2 S 2.404565 -2.263941 4.075534 0
M  V30 3 O 2.657744 -2.845328 5.432003 0
M  V30 4 O 2.497978 -3.386412 3.083267 0
M  V30 5 N 3.590284 -1.052241 3.808967 0
M  V30 6 C 3.751219 -0.236201 2.654418 0
M  V30 7 C 4.986437 -0.008730 2.082479 0
M  V30 8 C 5.226145 0.767427 0.966978 0
M  V30 9 C 4.118936 1.361962 0.383991 0
M  V30 10 C 2.867965 1.154155 0.932270 0
M  V30 11 C 1.810268 1.852361 0.198083 0
M  V30 12 C 1.833997 3.138862 -0.251299 0
M  V30 13 N 0.736300 3.545786 -0.898936 0
M  V30 14 C -0.360849 2.852272 -1.152647 0
M  V30 15 O -1.297209 3.445152 -1.792993 0
M  V30 16 C -0.506450 1.538137 -0.749154 0
M  V30 17 C -1.490573 0.629740 -0.874498 0
M  V30 18 C -1.453285 -0.580373 -0.424714 0
M  V30 19 C -2.157814 -1.813248 -0.306274 0
M  V30 20 C -1.633085 -2.948189 0.338108 0
M  V30 21 C -2.290813 -4.143237 0.464575 0
M  V30 22 N -3.519649 -4.254358 -0.056279 0
M  V30 23 C -4.114000 -3.233646 -0.691621 0
M  V30 24 N -5.326216 -3.182608 -1.262679 0
M  V30 25 C -5.444247 -1.940241 -1.759819 0
M  V30 26 C -4.281054 -1.259562 -1.472246 0
M  V30 27 C -3.403502 -2.057058 -0.787452 0
M  V30 28 S 0.196549 -0.576580 0.328600 0
M  V30 29 C 0.633006 1.098686 -0.070777 0
M  V30 30 C 2.669454 0.369429 2.050843 0
M  V30 31 H 0.108603 -2.245665 4.786926 0
M  V30 32 H 0.235966 -1.714731 3.102695 0
M  V30 33 H 0.675529 -0.603813 4.425045 0
M  V30 34 H 4.337613 -0.803122 4.524445 0
M  V30 35 H 5.852886 -0.488423 2.558475 0
M  V30 36 H 6.230339 0.894399 0.581584 0
M  V30 37 H 4.324562 1.968521 -0.491595 0
M  V30 38 H 2.713992 3.693468 -0.047235 0
M  V30 39 H 0.782664 4.557382 -1.239605 0
M  V30 40 H -2.396245 0.919078 -1.392284 0
M  V30 41 H -0.651171 -2.953391 0.787806 0
M  V30 42 H -1.872990 -4.999237 0.960659 0
M  V30 43 H -6.015625 -3.966099 -1.297537 0
M  V30 44 H -6.335466 -1.624439 -2.278968 0
M  V30 45 H -4.230541 -0.242832 -1.811978 0
M  V30 46 H 1.674770 0.258940 2.411626 0
M  V30 END ATOM
M  V30 BEGIN BOND
M  V30 1 1 1 2
M  V30 2 2 2 3
M  V30 3 2 2 4
M  V30 4 1 2 5
M  V30 5 1 5 6
M  V30 6 2 6 7
M  V30 7 1 7 8
M  V30 8 2 8 9
M  V30 9 1 9 10
M  V30 10 1 10 11
M  V30 11 2 11 12
M  V30 12 1 12 13
M  V30 13 1 13 14
M  V30 14 2 14 15
M  V30 15 1 14 16
M  V30 16 1 16 17
M  V30 17 2 17 18
M  V30 18 1 18 19
M  V30 19 2 19 20
M  V30 20 1 20 21
M  V30 21 2 21 22
M  V30 22 1 22 23
M  V30 23 1 23 24
M  V30 24 1 24 25
M  V30 25 2 25 26
M  V30 26 1 26 27
M  V30 27 1 18 28
M  V30 28 1 28 29
M  V30 29 2 10 30
M  V30 30 1 30 6
M  V30 31 1 29 11
M  V30 32 2 29 16
M  V30 33 1 27 19
M  V30 34 2 27 23
M  V30 35 1 1 31
M  V30 36 1 1 32
M  V30 37 1 1 33
M  V30 38 1 5 34
M  V30 39 1 7 35
M  V30 40 1 8 36
M  V30 41 1 9 37
M  V30 42 1 12 38
M  V30 43 1 13 39
M  V30 44 1 17 40
M  V30 45 1 20 41
M  V30 46 1 21 42
M  V30 47 1 24 43
M  V30 48 1 25 44
M  V30 49 1 26 45
M  V30 50 1 30 46
M  V30 END BOND
M  V30 END CTAB
M  END
>  <Dataset>  (978) 
ChEMBL_Kinases

>  <Ligand_Instance>  (978) 
nan

>  <PDB_ID>  (978) 
nan

>  <Standardized_SMILES>  (978) 
CS(=O)(=O)Nc1cccc(-c2c[nH]c(=O)c3cc(-c4ccnc5[nH]ccc45)sc23)c1

>  <Name>  (978) 
nan

>  <Pocket>  (978) 
nan

>  <ATP_Site>  (978) 
nan

>  <Peripheral>  (978) 
nan

>  <Num_H_Atoms_ProtBoundConf>  (978) 
nan

>  <Num_Resolved_Atoms>  (978) 
nan

>  <Num_Not_Resolved_Atoms>  (978) 
nan

$$$$
CHEMBL1809110
     RDKit          3D

  0  0  0  0  0  0  0  0  0  0999 V3000
M  V30 BEGIN CTAB
M  V30 COUNTS 45 49 0 0 0
M  V30 BEGIN ATOM
M  V30 1 O -0.535590 -6.379276 2.083210 0
M  V30 2 C -0.159202 -5.195215 1.863571 0
M  V30 3 N 1.068594 -4.827655 2.194900 0
M  V30 4 C 1.662718 -3.626356 2.048283 0
M  V30 5 C 0.866324 -2.671858 1.475559 0
M  V30 6 C 1.279818 -1.297436 1.211563 0
M  V30 7 C 1.018212 -0.648607 0.004538 0
M  V30 8 C 1.451150 0.661135 -0.153835 0
M  V30 9 C 2.123275 1.281304 0.878476 0
M  V30 10 N 2.567526 2.622563 0.720704 0
M  V30 11 C 2.384662 3.456004 -0.448126 0
M  V30 12 C 1.967332 4.840294 0.067727 0
M  V30 13 O 3.033804 5.458573 0.687353 0
M  V30 14 C 3.958609 4.555841 1.196721 0
M  V30 15 C 3.283899 3.325521 1.766343 0
M  V30 16 C 2.393724 0.661062 2.080526 0
M  V30 17 C 1.957476 -0.644241 2.227051 0
M  V30 18 C -0.436319 -3.004266 1.106826 0
M  V30 19 S -1.749668 -2.010412 0.336795 0
M  V30 20 C -2.969601 -3.382830 0.309712 0
M  V30 21 C -4.288507 -3.241184 -0.206474 0
M  V30 22 C -5.262938 -4.225301 -0.262261 0
M  V30 23 N -6.383124 -3.685871 -0.825560 0
M  V30 24 N -6.097297 -2.413404 -1.103127 0
M  V30 25 C -4.828096 -2.092089 -0.743511 0
M  V30 26 C -2.292875 -4.430986 0.867160 0
M  V30 27 C -0.998750 -4.269086 1.283889 0
M  V30 28 H 1.689472 -5.572452 2.641513 0
M  V30 29 H 2.652143 -3.378792 2.329945 0
M  V30 30 H 0.485195 -1.218353 -0.743349 0
M  V30 31 H 1.227958 1.116141 -1.095128 0
M  V30 32 H 1.612256 3.113710 -1.142731 0
M  V30 33 H 3.375983 3.566780 -0.951834 0
M  V30 34 H 1.145970 4.707571 0.808639 0
M  V30 35 H 1.652111 5.498386 -0.767910 0
M  V30 36 H 4.706534 4.207207 0.464804 0
M  V30 37 H 4.528984 5.027892 2.038332 0
M  V30 38 H 2.649663 3.542043 2.652152 0
M  V30 39 H 4.097538 2.656054 2.133853 0
M  V30 40 H 2.918734 1.131668 2.899061 0
M  V30 41 H 2.158356 -1.150496 3.161642 0
M  V30 42 H -5.092721 -5.241199 0.102366 0
M  V30 43 H -6.750166 -1.733553 -1.540600 0
M  V30 44 H -4.384547 -1.112717 -0.877134 0
M  V30 45 H -2.859786 -5.349115 0.938511 0
M  V30 END ATOM
M  V30 BEGIN BOND
M  V30 1 2 1 2
M  V30 2 1 2 3
M  V30 3 1 3 4
M  V30 4 2 4 5
M  V30 5 1 5 6
M  V30 6 2 6 7
M  V30 7 1 7 8
M  V30 8 2 8 9
M  V30 9 1 9 10
M  V30 10 1 10 11
M  V30 11 1 11 12
M  V30 12 1 12 13
M  V30 13 1 13 14
M  V30 14 1 14 15
M  V30 15 1 9 16
M  V30 16 2 16 17
M  V30 17 1 5 18
M  V30 18 1 18 19
M  V30 19 1 19 20
M  V30 20 1 20 21
M  V30 21 1 21 22
M  V30 22 2 22 23
M  V30 23 1 23 24
M  V30 24 1 24 25
M  V30 25 2 20 26
M  V30 26 1 26 27
M  V30 27 1 27 2
M  V30 28 1 17 6
M  V30 29 2 27 18
M  V30 30 1 15 10
M  V30 31 2 25 21
M  V30 32 1 3 28
M  V30 33 1 4 29
M  V30 34 1 7 30
M  V30 35 1 8 31
M  V30 36 1 11 32
M  V30 37 1 11 33
M  V30 38 1 12 34
M  V30 39 1 12 35
M  V30 40 1 14 36
M  V30 41 1 14 37
M  V30 42 1 15 38
M  V30 43 1 15 39
M  V30 44 1 16 40
M  V30 45 1 17 41
M  V30 46 1 22 42
M  V30 47 1 24 43
M  V30 48 1 25 44
M  V30 49 1 26 45
M  V30 END BOND
M  V30 END CTAB
M  END
>  <Dataset>  (979) 
ChEMBL_Kinases

>  <Ligand_Instance>  (979) 
nan

>  <PDB_ID>  (979) 
nan

>  <Standardized_SMILES>  (979) 
O=c1[nH]cc(-c2ccc(N3CCOCC3)cc2)c2sc(-c3cn[nH]c3)cc12

>  <Name>  (979) 
nan

>  <Pocket>  (979) 
nan

>  <ATP_Site>  (979) 
nan

>  <Peripheral>  (979) 
nan

>  <Num_H_Atoms_ProtBoundConf>  (979) 
nan

>  <Num_Resolved_Atoms>  (979) 
nan

>  <Num_Not_Resolved_Atoms>  (979) 
nan

$$$$
CHEMBL1809111
     RDKit          3D

  0  0  0  0  0  0  0  0  0  0999 V3000
M  V30 BEGIN CTAB
M  V30 COUNTS 50 54 0 0 0
M  V30 BEGIN ATOM
M  V30 1 C 1.219182 -5.510510 3.340276 0
M  V30 2 N 0.541735 -4.413995 2.627274 0
M  V30 3 C 1.305462 -3.338666 2.374376 0
M  V30 4 C 0.715653 -2.288189 1.709863 0
M  V30 5 C 1.327398 -1.022678 1.322585 0
M  V30 6 C 2.571246 -0.978971 0.743479 0
M  V30 7 C 3.149121 0.217635 0.377668 0
M  V30 8 C 2.499793 1.406330 0.580348 0
M  V30 9 N 3.091875 2.637813 0.206464 0
M  V30 10 C 4.389776 2.851931 -0.380804 0
M  V30 11 C 4.308711 3.440359 -1.781323 0
M  V30 12 O 3.680112 4.662234 -1.679761 0
M  V30 13 C 2.455622 4.583453 -1.055313 0
M  V30 14 C 2.522826 3.958589 0.329746 0
M  V30 15 C 1.254299 1.374503 1.159244 0
M  V30 16 C 0.676934 0.181794 1.524477 0
M  V30 17 C -0.635673 -2.469074 1.370276 0
M  V30 18 S -1.823915 -1.328272 0.477494 0
M  V30 19 C -3.162554 -2.437897 0.566440 0
M  V30 20 C -4.512955 -2.130411 0.004040 0
M  V30 21 C -4.645380 -0.897888 -0.600574 0
M  V30 22 C -5.933144 -0.681666 -1.101576 0
M  V30 23 N -6.941990 -1.565273 -1.012863 0
M  V30 24 C -6.726744 -2.764988 -0.397383 0
M  V30 25 C -5.486332 -3.067305 0.128181 0
M  V30 26 C -2.723411 -3.516010 1.196486 0
M  V30 27 C -1.434539 -3.597200 1.636341 0
M  V30 28 C -0.745980 -4.588506 2.304654 0
M  V30 29 O -1.316922 -5.661666 2.616802 0
M  V30 30 H 2.279599 -5.552950 3.084859 0
M  V30 31 H 0.967693 -5.442414 4.400539 0
M  V30 32 H 0.769540 -6.462628 2.953070 0
M  V30 33 H 2.338337 -3.189171 2.628787 0
M  V30 34 H 3.077257 -1.927731 0.587421 0
M  V30 35 H 4.127323 0.129111 -0.068167 0
M  V30 36 H 5.027413 3.575286 0.210308 0
M  V30 37 H 4.991405 1.922443 -0.393651 0
M  V30 38 H 5.347398 3.596168 -2.123040 0
M  V30 39 H 3.783258 2.743720 -2.463694 0
M  V30 40 H 1.762794 4.031414 -1.701653 0
M  V30 41 H 2.101577 5.647687 -0.927481 0
M  V30 42 H 3.152477 4.633256 0.961053 0
M  V30 43 H 1.494511 3.962269 0.722622 0
M  V30 44 H 0.652527 2.246042 1.366248 0
M  V30 45 H -0.311407 0.135765 1.985529 0
M  V30 46 H -3.867068 -0.154732 -0.697089 0
M  V30 47 H -6.143309 0.265288 -1.599987 0
M  V30 48 H -7.516573 -3.504263 -0.306217 0
M  V30 49 H -5.331400 -4.022669 0.613164 0
M  V30 50 H -3.422037 -4.328805 1.349729 0
M  V30 END ATOM
M  V30 BEGIN BOND
M  V30 1 1 1 2
M  V30 2 1 2 3
M  V30 3 2 3 4
M  V30 4 1 4 5
M  V30 5 2 5 6
M  V30 6 1 6 7
M  V30 7 2 7 8
M  V30 8 1 8 9
M  V30 9 1 9 10
M  V30 10 1 10 11
M  V30 11 1 11 12
M  V30 12 1 12 13
M  V30 13 1 13 14
M  V30 14 1 8 15
M  V30 15 2 15 16
M  V30 16 1 4 17
M  V30 17 1 17 18
M  V30 18 1 18 19
M  V30 19 1 19 20
M  V30 20 2 20 21
M  V30 21 1 21 22
M  V30 22 2 22 23
M  V30 23 1 23 24
M  V30 24 2 24 25
M  V30 25 2 19 26
M  V30 26 1 26 27
M  V30 27 1 27 28
M  V30 28 2 28 29
M  V30 29 1 28 2
M  V30 30 1 16 5
M  V30 31 2 27 17
M  V30 32 1 14 9
M  V30 33 1 25 20
M  V30 34 1 1 30
M  V30 35 1 1 31
M  V30 36 1 1 32
M  V30 37 1 3 33
M  V30 38 1 6 34
M  V30 39 1 7 35
M  V30 40 1 10 36
M  V30 41 1 10 37
M  V30 42 1 11 38
M  V30 43 1 11 39
M  V30 44 1 13 40
M  V30 45 1 13 41
M  V30 46 1 14 42
M  V30 47 1 14 43
M  V30 48 1 15 44
M  V30 49 1 16 45
M  V30 50 1 21 46
M  V30 51 1 22 47
M  V30 52 1 24 48
M  V30 53 1 25 49
M  V30 54 1 26 50
M  V30 END BOND
M  V30 END CTAB
M  END
>  <Dataset>  (980) 
ChEMBL_Kinases

>  <Ligand_Instance>  (980) 
nan

>  <PDB_ID>  (980) 
nan

>  <Standardized_SMILES>  (980) 
Cn1cc(-c2ccc(N3CCOCC3)cc2)c2sc(-c3ccncc3)cc2c1=O

>  <Name>  (980) 
nan

>  <Pocket>  (980) 
nan

>  <ATP_Site>  (980) 
nan

>  <Peripheral>  (980) 
nan

>  <Num_H_Atoms_ProtBoundConf>  (980) 
nan

>  <Num_Resolved_Atoms>  (980) 
nan

>  <Num_Not_Resolved_Atoms>  (980) 
nan

$$$$
CHEMBL1809112
     RDKit          3D

  0  0  0  0  0  0  0  0  0  0999 V3000
M  V30 BEGIN CTAB
M  V30 COUNTS 50 54 0 0 0
M  V30 BEGIN ATOM
M  V30 1 C 1.260040 -6.800643 2.330105 0
M  V30 2 O 0.278661 -6.035677 1.662131 0
M  V30 3 C 0.480266 -4.670849 1.502960 0
M  V30 4 N 1.591215 -4.113240 1.981906 0
M  V30 5 C 1.970651 -2.843552 1.935300 0
M  V30 6 C 1.047476 -2.045966 1.291712 0
M  V30 7 C 1.293116 -0.598945 1.139821 0
M  V30 8 C 2.554056 -0.189283 0.733596 0
M  V30 9 C 2.819664 1.166776 0.580367 0
M  V30 10 C 1.832775 2.103286 0.831318 0
M  V30 11 N 2.010481 3.495253 0.702633 0
M  V30 12 C 0.968852 4.496960 0.968991 0
M  V30 13 C 1.516440 5.878601 0.998224 0
M  V30 14 O 2.679726 6.056319 1.696273 0
M  V30 15 C 3.599623 5.057421 1.502874 0
M  V30 16 C 3.184541 4.245557 0.302531 0
M  V30 17 C 0.575934 1.704938 1.235689 0
M  V30 18 C 0.322652 0.353879 1.384894 0
M  V30 19 C -0.125316 -2.509110 0.761661 0
M  V30 20 S -1.417941 -1.730759 -0.073657 0
M  V30 21 C -2.424036 -3.323030 -0.295691 0
M  V30 22 C -3.722368 -3.387025 -0.970023 0
M  V30 23 C -4.363920 -4.603057 -1.072086 0
M  V30 24 C -5.578769 -4.565516 -1.722115 0
M  V30 25 N -6.102788 -3.448575 -2.217334 0
M  V30 26 C -5.453884 -2.288254 -2.100510 0
M  V30 27 C -4.235240 -2.213872 -1.470320 0
M  V30 28 C -1.628572 -4.278247 0.311125 0
M  V30 29 C -0.447729 -3.866264 0.855475 0
M  V30 30 H 1.957461 -7.158348 1.524512 0
M  V30 31 H 1.912980 -6.171302 2.991026 0
M  V30 32 H 0.852691 -7.637686 2.925220 0
M  V30 33 H 2.873848 -2.456067 2.337515 0
M  V30 34 H 3.327905 -0.903718 0.535768 0
M  V30 35 H 3.796389 1.539214 0.262756 0
M  V30 36 H 0.387789 4.229434 1.875379 0
M  V30 37 H 0.261280 4.438765 0.094669 0
M  V30 38 H 0.746529 6.532260 1.480172 0
M  V30 39 H 1.619332 6.305363 -0.031429 0
M  V30 40 H 3.594173 4.361521 2.375951 0
M  V30 41 H 4.625913 5.463088 1.400484 0
M  V30 42 H 4.051831 3.558870 0.100207 0
M  V30 43 H 2.957094 4.843397 -0.593716 0
M  V30 44 H -0.272316 2.328756 1.461049 0
M  V30 45 H -0.647047 -0.038797 1.701457 0
M  V30 46 H -3.852703 -5.449486 -0.636456 0
M  V30 47 H -6.071151 -5.542154 -1.791980 0
M  V30 48 H -5.936532 -1.404407 -2.528339 0
M  V30 49 H -3.723339 -1.256156 -1.386436 0
M  V30 50 H -2.046209 -5.271113 0.283606 0
M  V30 END ATOM
M  V30 BEGIN BOND
M  V30 1 1 1 2
M  V30 2 1 2 3
M  V30 3 2 3 4
M  V30 4 1 4 5
M  V30 5 2 5 6
M  V30 6 1 6 7
M  V30 7 2 7 8
M  V30 8 1 8 9
M  V30 9 2 9 10
M  V30 10 1 10 11
M  V30 11 1 11 12
M  V30 12 1 12 13
M  V30 13 1 13 14
M  V30 14 1 14 15
M  V30 15 1 15 16
M  V30 16 1 10 17
M  V30 17 2 17 18
M  V30 18 1 6 19
M  V30 19 1 19 20
M  V30 20 1 20 21
M  V30 21 1 21 22
M  V30 22 2 22 23
M  V30 23 1 23 24
M  V30 24 2 24 25
M  V30 25 1 25 26
M  V30 26 2 26 27
M  V30 27 2 21 28
M  V30 28 1 28 29
M  V30 29 1 29 3
M  V30 30 1 18 7
M  V30 31 2 29 19
M  V30 32 1 16 11
M  V30 33 1 27 22
M  V30 34 1 1 30
M  V30 35 1 1 31
M  V30 36 1 1 32
M  V30 37 1 5 33
M  V30 38 1 8 34
M  V30 39 1 9 35
M  V30 40 1 12 36
M  V30 41 1 12 37
M  V30 42 1 13 38
M  V30 43 1 13 39
M  V30 44 1 15 40
M  V30 45 1 15 41
M  V30 46 1 16 42
M  V30 47 1 16 43
M  V30 48 1 17 44
M  V30 49 1 18 45
M  V30 50 1 23 46
M  V30 51 1 24 47
M  V30 52 1 26 48
M  V30 53 1 27 49
M  V30 54 1 28 50
M  V30 END BOND
M  V30 END CTAB
M  END
>  <Dataset>  (981) 
ChEMBL_Kinases

>  <Ligand_Instance>  (981) 
nan

>  <PDB_ID>  (981) 
nan

>  <Standardized_SMILES>  (981) 
COc1ncc(-c2ccc(N3CCOCC3)cc2)c2sc(-c3ccncc3)cc12

>  <Name>  (981) 
nan

>  <Pocket>  (981) 
nan

>  <ATP_Site>  (981) 
nan

>  <Peripheral>  (981) 
nan

>  <Num_H_Atoms_ProtBoundConf>  (981) 
nan

>  <Num_Resolved_Atoms>  (981) 
nan

>  <Num_Not_Resolved_Atoms>  (981) 
nan

$$$$
CHEMBL1809113
     RDKit          3D

  0  0  0  0  0  0  0  0  0  0999 V3000
M  V30 BEGIN CTAB
M  V30 COUNTS 35 38 0 0 0
M  V30 BEGIN ATOM
M  V30 1 N 2.387736 -4.048960 5.102277 0
M  V30 2 C 2.315480 -3.829830 3.962357 0
M  V30 3 C 2.237301 -3.580381 2.557231 0
M  V30 4 C 2.107134 -4.577300 1.608219 0
M  V30 5 C 2.031547 -4.332817 0.246399 0
M  V30 6 C 2.086846 -3.032460 -0.213791 0
M  V30 7 F 2.020413 -2.705628 -1.521058 0
M  V30 8 C 2.216820 -2.017060 0.714165 0
M  V30 9 C 2.280175 -0.653255 0.311192 0
M  V30 10 C 3.387036 0.091619 -0.001900 0
M  V30 11 N 3.199083 1.374220 -0.359402 0
M  V30 12 C 2.046284 2.027616 -0.449837 0
M  V30 13 O 2.030085 3.235408 -0.800431 0
M  V30 14 C 0.882641 1.356330 -0.153267 0
M  V30 15 C -0.401025 1.821696 -0.177558 0
M  V30 16 C -1.464393 1.047211 0.140384 0
M  V30 17 C -2.847339 1.161667 0.226966 0
M  V30 18 C -3.650271 0.114236 0.601829 0
M  V30 19 C -5.027006 0.362067 0.649018 0
M  V30 20 N -5.548985 1.572932 0.341444 0
M  V30 21 C -4.774504 2.608214 -0.027411 0
M  V30 22 C -3.399462 2.378907 -0.079852 0
M  V30 23 S -0.683707 -0.578752 0.546539 0
M  V30 24 C 1.069597 0.031727 0.216559 0
M  V30 25 C 2.292856 -2.264189 2.085233 0
M  V30 26 H 2.064956 -5.604361 1.994010 0
M  V30 27 H 1.929789 -5.130720 -0.477110 0
M  V30 28 H 4.333858 -0.421668 0.065573 0
M  V30 29 H 4.076443 1.933499 -0.598487 0
M  V30 30 H -0.699379 2.824473 -0.443930 0
M  V30 31 H -3.278745 -0.868639 0.856014 0
M  V30 32 H -5.657911 -0.482212 0.949760 0
M  V30 33 H -5.275124 3.535367 -0.254164 0
M  V30 34 H -2.788570 3.232223 -0.381491 0
M  V30 35 H 2.394506 -1.452634 2.793811 0
M  V30 END ATOM
M  V30 BEGIN BOND
M  V30 1 3 1 2
M  V30 2 1 2 3
M  V30 3 2 3 4
M  V30 4 1 4 5
M  V30 5 2 5 6
M  V30 6 1 6 7
M  V30 7 1 6 8
M  V30 8 1 8 9
M  V30 9 2 9 10
M  V30 10 1 10 11
M  V30 11 1 11 12
M  V30 12 2 12 13
M  V30 13 1 12 14
M  V30 14 1 14 15
M  V30 15 2 15 16
M  V30 16 1 16 17
M  V30 17 2 17 18
M  V30 18 1 18 19
M  V30 19 2 19 20
M  V30 20 1 20 21
M  V30 21 2 21 22
M  V30 22 1 16 23
M  V30 23 1 23 24
M  V30 24 2 8 25
M  V30 25 1 25 3
M  V30 26 1 24 9
M  V30 27 2 24 14
M  V30 28 1 22 17
M  V30 29 1 4 26
M  V30 30 1 5 27
M  V30 31 1 10 28
M  V30 32 1 11 29
M  V30 33 1 15 30
M  V30 34 1 18 31
M  V30 35 1 19 32
M  V30 36 1 21 33
M  V30 37 1 22 34
M  V30 38 1 25 35
M  V30 END BOND
M  V30 END CTAB
M  END
>  <Dataset>  (982) 
ChEMBL_Kinases

>  <Ligand_Instance>  (982) 
nan

>  <PDB_ID>  (982) 
nan

>  <Standardized_SMILES>  (982) 
N#Cc1ccc(F)c(-c2c[nH]c(=O)c3cc(-c4ccncc4)sc23)c1

>  <Name>  (982) 
nan

>  <Pocket>  (982) 
nan

>  <ATP_Site>  (982) 
nan

>  <Peripheral>  (982) 
nan

>  <Num_H_Atoms_ProtBoundConf>  (982) 
nan

>  <Num_Resolved_Atoms>  (982) 
nan

>  <Num_Not_Resolved_Atoms>  (982) 
nan

$$$$
CHEMBL1809114
     RDKit          3D

  0  0  0  0  0  0  0  0  0  0999 V3000
M  V30 BEGIN CTAB
M  V30 COUNTS 40 44 0 0 0
M  V30 BEGIN ATOM
M  V30 1 O -0.276443 -5.425839 0.445575 0
M  V30 2 C 0.199346 -4.272065 0.291027 0
M  V30 3 N 1.193029 -4.078830 -0.554194 0
M  V30 4 C 1.822231 -2.928912 -0.847179 0
M  V30 5 C 1.389877 -1.798512 -0.193152 0
M  V30 6 C 1.902736 -0.434687 -0.331435 0
M  V30 7 C 2.146582 0.357981 0.778487 0
M  V30 8 C 2.637819 1.660528 0.615332 0
M  V30 9 C 2.870368 2.127268 -0.684199 0
M  V30 10 C 2.617663 1.313417 -1.771331 0
M  V30 11 C 2.133513 0.029266 -1.613879 0
M  V30 12 O 2.913560 1.963660 -2.960931 0
M  V30 13 C 2.667122 3.314825 -3.225745 0
M  V30 14 C 2.804171 4.183410 -1.997546 0
M  V30 15 O 3.355889 3.404144 -0.933553 0
M  V30 16 C 0.330438 -1.974928 0.714984 0
M  V30 17 S -0.556059 -0.767387 1.794316 0
M  V30 18 C -1.692252 -2.018863 2.517843 0
M  V30 19 C -2.646653 -1.612590 3.469210 0
M  V30 20 C -2.743900 -0.295833 3.866840 0
M  V30 21 C -3.732333 -0.028589 4.815945 0
M  V30 22 N -4.555245 -0.979590 5.329446 0
M  V30 23 C -4.440397 -2.258054 4.925064 0
M  V30 24 C -3.468712 -2.591966 3.975253 0
M  V30 25 C -1.307798 -3.154054 1.905614 0
M  V30 26 C -0.295063 -3.192616 0.988672 0
M  V30 27 H 1.555969 -4.931100 -1.080444 0
M  V30 28 H 2.634536 -2.774024 -1.538841 0
M  V30 29 H 1.960609 -0.021281 1.768197 0
M  V30 30 H 2.838941 2.306317 1.475579 0
M  V30 31 H 1.972078 -0.518132 -2.531697 0
M  V30 32 H 3.444898 3.639897 -3.966150 0
M  V30 33 H 1.658836 3.438105 -3.681707 0
M  V30 34 H 1.766907 4.530955 -1.716769 0
M  V30 35 H 3.427544 5.056265 -2.213371 0
M  V30 36 H -2.115640 0.499819 3.491221 0
M  V30 37 H -3.808771 1.015418 5.130621 0
M  V30 38 H -5.112983 -2.992103 5.354952 0
M  V30 39 H -3.398516 -3.634280 3.666580 0
M  V30 40 H -1.890416 -4.005486 2.227194 0
M  V30 END ATOM
M  V30 BEGIN BOND
M  V30 1 2 1 2
M  V30 2 1 2 3
M  V30 3 1 3 4
M  V30 4 2 4 5
M  V30 5 1 5 6
M  V30 6 2 6 7
M  V30 7 1 7 8
M  V30 8 2 8 9
M  V30 9 1 9 10
M  V30 10 2 10 11
M  V30 11 1 10 12
M  V30 12 1 12 13
M  V30 13 1 13 14
M  V30 14 1 14 15
M  V30 15 1 5 16
M  V30 16 1 16 17
M  V30 17 1 17 18
M  V30 18 1 18 19
M  V30 19 2 19 20
M  V30 20 1 20 21
M  V30 21 2 21 22
M  V30 22 1 22 23
M  V30 23 2 23 24
M  V30 24 2 18 25
M  V30 25 1 25 26
M  V30 26 1 26 2
M  V30 27 1 11 6
M  V30 28 2 26 16
M  V30 29 1 15 9
M  V30 30 1 24 19
M  V30 31 1 3 27
M  V30 32 1 4 28
M  V30 33 1 7 29
M  V30 34 1 8 30
M  V30 35 1 11 31
M  V30 36 1 13 32
M  V30 37 1 13 33
M  V30 38 1 14 34
M  V30 39 1 14 35
M  V30 40 1 20 36
M  V30 41 1 21 37
M  V30 42 1 23 38
M  V30 43 1 24 39
M  V30 44 1 25 40
M  V30 END BOND
M  V30 END CTAB
M  END
>  <Dataset>  (983) 
ChEMBL_Kinases

>  <Ligand_Instance>  (983) 
nan

>  <PDB_ID>  (983) 
nan

>  <Standardized_SMILES>  (983) 
O=c1[nH]cc(-c2ccc3c(c2)OCCO3)c2sc(-c3ccncc3)cc12

>  <Name>  (983) 
nan

>  <Pocket>  (983) 
nan

>  <ATP_Site>  (983) 
nan

>  <Peripheral>  (983) 
nan

>  <Num_H_Atoms_ProtBoundConf>  (983) 
nan

>  <Num_Resolved_Atoms>  (983) 
nan

>  <Num_Not_Resolved_Atoms>  (983) 
nan

$$$$
CHEMBL1809115
     RDKit          3D

  0  0  0  0  0  0  0  0  0  0999 V3000
M  V30 BEGIN CTAB
M  V30 COUNTS 38 41 0 0 0
M  V30 BEGIN ATOM
M  V30 1 N 1.684809 -4.132445 3.201937 0
M  V30 2 C 0.996756 -4.414496 2.300663 0
M  V30 3 C 0.147256 -4.743448 1.169624 0
M  V30 4 C 0.657387 -3.967869 0.010089 0
M  V30 5 C 1.624671 -4.476532 -0.839052 0
M  V30 6 C 2.122992 -3.786685 -1.925556 0
M  V30 7 C 1.619494 -2.514333 -2.170563 0
M  V30 8 C 0.653621 -1.958853 -1.355082 0
M  V30 9 C 0.091781 -0.632530 -1.564772 0
M  V30 10 C -0.294980 -0.209102 -2.825502 0
M  V30 11 N -0.789041 1.042865 -2.814560 0
M  V30 12 C -0.936327 1.864938 -1.787808 0
M  V30 13 O -1.434002 3.021502 -2.015209 0
M  V30 14 C -0.545583 1.435659 -0.517501 0
M  V30 15 C -0.646713 2.186956 0.613380 0
M  V30 16 C -0.204451 1.585744 1.788039 0
M  V30 17 C -0.159641 2.088976 3.193530 0
M  V30 18 C -0.612328 3.358317 3.482443 0
M  V30 19 C -0.526433 3.722923 4.808029 0
M  V30 20 N -0.041639 2.915885 5.757923 0
M  V30 21 C 0.381510 1.691143 5.400713 0
M  V30 22 C 0.353007 1.197254 4.110643 0
M  V30 23 S 0.360198 -0.084015 1.230835 0
M  V30 24 C -0.032145 0.169286 -0.449747 0
M  V30 25 C 0.183385 -2.692098 -0.273716 0
M  V30 26 H 0.145405 -5.834665 0.997761 0
M  V30 27 H -0.898724 -4.423808 1.423269 0
M  V30 28 H 2.025159 -5.478844 -0.650800 0
M  V30 29 H 2.881930 -4.201823 -2.580872 0
M  V30 30 H 1.959077 -1.902576 -3.007558 0
M  V30 31 H -0.199054 -0.833988 -3.698280 0
M  V30 32 H -1.091345 1.382183 -3.780890 0
M  V30 33 H -1.020648 3.189632 0.747272 0
M  V30 34 H -0.983210 3.926142 2.642707 0
M  V30 35 H -0.895945 4.741497 5.003847 0
M  V30 36 H 0.771438 1.060759 6.207409 0
M  V30 37 H 0.697635 0.209483 3.841894 0
M  V30 38 H -0.570581 -2.324167 0.407640 0
M  V30 END ATOM
M  V30 BEGIN BOND
M  V30 1 3 1 2
M  V30 2 1 2 3
M  V30 3 1 3 4
M  V30 4 2 4 5
M  V30 5 1 5 6
M  V30 6 2 6 7
M  V30 7 1 7 8
M  V30 8 1 8 9
M  V30 9 2 9 10
M  V30 10 1 10 11
M  V30 11 1 11 12
M  V30 12 2 12 13
M  V30 13 1 12 14
M  V30 14 1 14 15
M  V30 15 2 15 16
M  V30 16 1 16 17
M  V30 17 2 17 18
M  V30 18 1 18 19
M  V30 19 2 19 20
M  V30 20 1 20 21
M  V30 21 2 21 22
M  V30 22 1 16 23
M  V30 23 1 23 24
M  V30 24 2 8 25
M  V30 25 1 25 4
M  V30 26 1 24 9
M  V30 27 2 24 14
M  V30 28 1 22 17
M  V30 29 1 3 26
M  V30 30 1 3 27
M  V30 31 1 5 28
M  V30 32 1 6 29
M  V30 33 1 7 30
M  V30 34 1 10 31
M  V30 35 1 11 32
M  V30 36 1 15 33
M  V30 37 1 18 34
M  V30 38 1 19 35
M  V30 39 1 21 36
M  V30 40 1 22 37
M  V30 41 1 25 38
M  V30 END BOND
M  V30 END CTAB
M  END
>  <Dataset>  (984) 
ChEMBL_Kinases

>  <Ligand_Instance>  (984) 
nan

>  <PDB_ID>  (984) 
nan

>  <Standardized_SMILES>  (984) 
N#CCc1cccc(-c2c[nH]c(=O)c3cc(-c4ccncc4)sc23)c1

>  <Name>  (984) 
nan

>  <Pocket>  (984) 
nan

>  <ATP_Site>  (984) 
nan

>  <Peripheral>  (984) 
nan

>  <Num_H_Atoms_ProtBoundConf>  (984) 
nan

>  <Num_Resolved_Atoms>  (984) 
nan

>  <Num_Not_Resolved_Atoms>  (984) 
nan

$$$$
CHEMBL1809116
     RDKit          3D

  0  0  0  0  0  0  0  0  0  0999 V3000
M  V30 BEGIN CTAB
M  V30 COUNTS 33 36 0 0 0
M  V30 BEGIN ATOM
M  V30 1 O -0.990750 -2.168483 4.288097 0
M  V30 2 C -0.172315 -1.979115 3.350488 0
M  V30 3 N 1.055389 -2.459133 3.431951 0
M  V30 4 C 2.057267 -2.359367 2.541325 0
M  V30 5 C 1.763663 -1.671119 1.405130 0
M  V30 6 C 2.638533 -1.402740 0.274371 0
M  V30 7 C 3.928972 -1.866766 0.280979 0
M  V30 8 C 4.855300 -1.681258 -0.724184 0
M  V30 9 C 4.471693 -0.968273 -1.845972 0
M  V30 10 C 3.171174 -0.508733 -1.836841 0
M  V30 11 Cl 2.559652 0.412906 -3.206557 0
M  V30 12 N 2.312364 -0.721916 -0.824716 0
M  V30 13 C 0.477534 -1.135948 1.256880 0
M  V30 14 S -0.277915 -0.174834 -0.089667 0
M  V30 15 C -1.919633 -0.020413 0.750681 0
M  V30 16 C -3.002916 0.669831 0.159470 0
M  V30 17 C -4.211185 0.755025 0.833365 0
M  V30 18 C -5.285331 1.428377 0.268677 0
M  V30 19 N -5.137649 2.002177 -0.951361 0
M  V30 20 C -3.968130 1.920894 -1.605939 0
M  V30 21 C -2.880076 1.261552 -1.078204 0
M  V30 22 C -1.727839 -0.685414 1.912359 0
M  V30 23 C -0.534203 -1.272255 2.225509 0
M  V30 24 H 1.295041 -3.000421 4.319472 0
M  V30 25 H 3.050962 -2.763782 2.638206 0
M  V30 26 H 4.322750 -2.433755 1.111387 0
M  V30 27 H 5.862921 -2.056537 -0.693806 0
M  V30 28 H 5.089633 -0.747774 -2.704918 0
M  V30 29 H -4.283195 0.282310 1.803965 0
M  V30 30 H -6.215095 1.486294 0.802110 0
M  V30 31 H -3.822610 2.368958 -2.579610 0
M  V30 32 H -1.939895 1.208927 -1.629169 0
M  V30 33 H -2.603130 -0.701287 2.551630 0
M  V30 END ATOM
M  V30 BEGIN BOND
M  V30 1 2 1 2
M  V30 2 1 2 3
M  V30 3 1 3 4
M  V30 4 2 4 5
M  V30 5 1 5 6
M  V30 6 2 6 7
M  V30 7 1 7 8
M  V30 8 2 8 9
M  V30 9 1 9 10
M  V30 10 1 10 11
M  V30 11 2 10 12
M  V30 12 1 5 13
M  V30 13 1 13 14
M  V30 14 1 14 15
M  V30 15 1 15 16
M  V30 16 2 16 17
M  V30 17 1 17 18
M  V30 18 2 18 19
M  V30 19 1 19 20
M  V30 20 2 20 21
M  V30 21 2 15 22
M  V30 22 1 22 23
M  V30 23 1 23 2
M  V30 24 1 12 6
M  V30 25 2 23 13
M  V30 26 1 21 16
M  V30 27 1 3 24
M  V30 28 1 4 25
M  V30 29 1 7 26
M  V30 30 1 8 27
M  V30 31 1 9 28
M  V30 32 1 17 29
M  V30 33 1 18 30
M  V30 34 1 20 31
M  V30 35 1 21 32
M  V30 36 1 22 33
M  V30 END BOND
M  V30 END CTAB
M  END
>  <Dataset>  (985) 
ChEMBL_Kinases

>  <Ligand_Instance>  (985) 
nan

>  <PDB_ID>  (985) 
nan

>  <Standardized_SMILES>  (985) 
O=c1[nH]cc(-c2cccc(Cl)n2)c2sc(-c3ccncc3)cc12

>  <Name>  (985) 
nan

>  <Pocket>  (985) 
nan

>  <ATP_Site>  (985) 
nan

>  <Peripheral>  (985) 
nan

>  <Num_H_Atoms_ProtBoundConf>  (985) 
nan

>  <Num_Resolved_Atoms>  (985) 
nan

>  <Num_Not_Resolved_Atoms>  (985) 
nan

$$$$
CHEMBL1809108
     RDKit          3D

  0  0  0  0  0  0  0  0  0  0999 V3000
M  V30 BEGIN CTAB
M  V30 COUNTS 45 48 0 0 0
M  V30 BEGIN ATOM
M  V30 1 C -2.511527 -5.232043 1.373150 0
M  V30 2 C -2.157717 -4.540021 0.101105 0
M  V30 3 C -1.422431 -3.374224 0.123989 0
M  V30 4 C -1.166788 -2.841301 -1.117066 0
M  V30 5 C -0.420191 -1.636963 -1.295194 0
M  V30 6 C -0.002088 -0.865992 -2.340368 0
M  V30 7 C 0.726612 0.263686 -2.065680 0
M  V30 8 C 1.214441 1.137350 -3.031584 0
M  V30 9 O 1.040692 0.988005 -4.272522 0
M  V30 10 N 1.911950 2.202010 -2.605411 0
M  V30 11 C 2.222770 2.567395 -1.347532 0
M  V30 12 C 1.716786 1.666556 -0.397954 0
M  V30 13 C 1.956763 1.904509 1.005477 0
M  V30 14 C 3.257753 2.270877 1.356612 0
M  V30 15 C 3.549133 2.513735 2.698821 0
M  V30 16 C 2.550954 2.383761 3.616888 0
M  V30 17 C 1.255569 2.020757 3.281302 0
M  V30 18 N 0.331732 1.928797 4.353693 0
M  V30 19 S -0.713183 0.556994 4.401642 0
M  V30 20 C 0.216142 -0.955700 4.544734 0
M  V30 21 O -1.554564 0.575755 3.180986 0
M  V30 22 O -1.630091 0.623217 5.595675 0
M  V30 23 C 0.982684 1.786718 1.972449 0
M  V30 24 C 0.985070 0.538481 -0.735324 0
M  V30 25 S 0.277264 -0.679710 0.182056 0
M  V30 26 C -1.597611 -3.405524 -2.293839 0
M  V30 27 C -2.340318 -4.591643 -2.233255 0
M  V30 28 N -2.601774 -5.130663 -1.022877 0
M  V30 29 H -2.634944 -6.327518 1.209579 0
M  V30 30 H -1.710505 -5.097115 2.131234 0
M  V30 31 H -3.451532 -4.822610 1.817545 0
M  V30 32 H -1.076799 -2.917025 1.023577 0
M  V30 33 H -0.311859 -1.260308 -3.298648 0
M  V30 34 H 2.284282 2.869197 -3.346312 0
M  V30 35 H 2.786011 3.437222 -1.102392 0
M  V30 36 H 4.050765 2.373216 0.620015 0
M  V30 37 H 4.570379 2.800361 2.966887 0
M  V30 38 H 2.830472 2.582202 4.633124 0
M  V30 39 H 0.352542 2.722361 5.056848 0
M  V30 40 H -0.200190 -1.658390 3.784902 0
M  V30 41 H 1.289567 -0.751236 4.338062 0
M  V30 42 H 0.073781 -1.443754 5.532753 0
M  V30 43 H -0.002907 1.508417 1.700516 0
M  V30 44 H -1.397269 -2.987684 -3.268330 0
M  V30 45 H -2.700991 -5.075158 -3.109188 0
M  V30 END ATOM
M  V30 BEGIN BOND
M  V30 1 1 1 2
M  V30 2 2 2 3
M  V30 3 1 3 4
M  V30 4 1 4 5
M  V30 5 2 5 6
M  V30 6 1 6 7
M  V30 7 1 7 8
M  V30 8 2 8 9
M  V30 9 1 8 10
M  V30 10 1 10 11
M  V30 11 2 11 12
M  V30 12 1 12 13
M  V30 13 2 13 14
M  V30 14 1 14 15
M  V30 15 2 15 16
M  V30 16 1 16 17
M  V30 17 1 17 18
M  V30 18 1 18 19
M  V30 19 1 19 20
M  V30 20 2 19 21
M  V30 21 2 19 22
M  V30 22 2 17 23
M  V30 23 1 12 24
M  V30 24 1 24 25
M  V30 25 2 4 26
M  V30 26 1 26 27
M  V30 27 2 27 28
M  V30 28 1 28 2
M  V30 29 1 25 5
M  V30 30 2 24 7
M  V30 31 1 23 13
M  V30 32 1 1 29
M  V30 33 1 1 30
M  V30 34 1 1 31
M  V30 35 1 3 32
M  V30 36 1 6 33
M  V30 37 1 10 34
M  V30 38 1 11 35
M  V30 39 1 14 36
M  V30 40 1 15 37
M  V30 41 1 16 38
M  V30 42 1 18 39
M  V30 43 1 20 40
M  V30 44 1 20 41
M  V30 45 1 20 42
M  V30 46 1 23 43
M  V30 47 1 26 44
M  V30 48 1 27 45
M  V30 END BOND
M  V30 END CTAB
M  END
>  <Dataset>  (986) 
ChEMBL_Kinases

>  <Ligand_Instance>  (986) 
nan

>  <PDB_ID>  (986) 
nan

>  <Standardized_SMILES>  (986) 
Cc1cc(-c2cc3c(=O)[nH]cc(-c4cccc(NS(C)(=O)=O)c4)c3s2)ccn1

>  <Name>  (986) 
nan

>  <Pocket>  (986) 
nan

>  <ATP_Site>  (986) 
nan

>  <Peripheral>  (986) 
nan

>  <Num_H_Atoms_ProtBoundConf>  (986) 
nan

>  <Num_Resolved_Atoms>  (986) 
nan

>  <Num_Not_Resolved_Atoms>  (986) 
nan

$$$$
CHEMBL1822487
     RDKit          3D

  0  0  0  0  0  0  0  0  0  0999 V3000
M  V30 BEGIN CTAB
M  V30 COUNTS 68 73 0 0 0
M  V30 BEGIN ATOM
M  V30 1 C 5.971734 0.322479 6.451478 0
M  V30 2 C 6.029682 0.337467 4.951369 0
M  V30 3 C 5.168845 -0.485657 4.217603 0
M  V30 4 C 5.483843 -0.226599 2.878340 0
M  V30 5 N 4.876792 -0.823471 1.712577 0
M  V30 6 C 3.762989 -0.491557 0.883214 0
M  V30 7 N 3.964121 0.284180 -0.176071 0
M  V30 8 C 2.938557 0.630571 -0.997917 0
M  V30 9 S 3.132234 1.681057 -2.452771 0
M  V30 10 C 1.555901 1.901671 -3.263138 0
M  V30 11 C 1.053925 1.089392 -4.257234 0
M  V30 12 C -0.174063 1.381337 -4.787730 0
M  V30 13 C -0.972614 2.425495 -4.420019 0
M  V30 14 N -2.237835 2.744407 -4.953406 0
M  V30 15 C -2.986039 2.120218 -5.956695 0
M  V30 16 O -2.521868 1.107559 -6.519373 0
M  V30 17 C -4.314131 2.546937 -6.437948 0
M  V30 18 C -5.281211 1.452608 -6.778736 0
M  V30 19 C -4.738150 2.385326 -7.842377 0
M  V30 20 C -0.449714 3.210749 -3.435105 0
M  V30 21 C 0.774957 2.971622 -2.862647 0
M  V30 22 N 1.715863 0.160494 -0.700163 0
M  V30 23 N 1.445249 -0.615523 0.337733 0
M  V30 24 C 0.351326 -1.206676 0.851970 0
M  V30 25 C 0.703493 -1.924501 2.001286 0
M  V30 26 N -0.340116 -2.607713 2.666745 0
M  V30 27 C -0.671188 -3.947568 2.338357 0
M  V30 28 O 0.026050 -4.504049 1.419195 0
M  V30 29 C -1.661010 -4.933365 2.799941 0
M  V30 30 N -2.499742 -4.320167 3.815293 0
M  V30 31 C -3.387834 -5.326360 4.414971 0
M  V30 32 C -4.085577 -4.596545 5.551862 0
M  V30 33 O -4.866076 -3.571811 5.075318 0
M  V30 34 C -4.163231 -2.688441 4.255028 0
M  V30 35 C -3.462730 -3.422528 3.134750 0
M  V30 36 C 2.044885 -1.743206 2.157757 0
M  V30 37 C 2.480915 -0.938898 1.129611 0
M  V30 38 N 6.479429 0.702093 2.848446 0
M  V30 39 N 6.806187 1.039812 4.088595 0
M  V30 40 H 4.959271 0.694331 6.735441 0
M  V30 41 H 6.801896 0.872915 6.903055 0
M  V30 42 H 6.004401 -0.739781 6.784738 0
M  V30 43 H 4.396605 -1.200701 4.450178 0
M  V30 44 H 5.447652 -1.677695 1.509721 0
M  V30 45 H 1.665789 0.256040 -4.566468 0
M  V30 46 H -0.499128 0.701870 -5.559762 0
M  V30 47 H -2.756254 3.580074 -4.574694 0
M  V30 48 H -4.702476 3.458164 -5.908272 0
M  V30 49 H -6.312200 1.543321 -6.416964 0
M  V30 50 H -4.892470 0.412992 -6.812167 0
M  V30 51 H -5.502889 3.093774 -8.228647 0
M  V30 52 H -4.053838 2.019044 -8.617105 0
M  V30 53 H -1.024666 4.075843 -3.075326 0
M  V30 54 H 1.114726 3.644008 -2.088349 0
M  V30 55 H -0.592059 -1.059524 0.343890 0
M  V30 56 H -0.952348 -2.259669 3.434316 0
M  V30 57 H -1.181984 -5.814551 3.262977 0
M  V30 58 H -2.270380 -5.255878 1.937042 0
M  V30 59 H -2.835113 -6.194796 4.769156 0
M  V30 60 H -4.151779 -5.580266 3.655697 0
M  V30 61 H -3.276611 -4.190863 6.212443 0
M  V30 62 H -4.778146 -5.284908 6.102282 0
M  V30 63 H -4.863455 -1.967883 3.809413 0
M  V30 64 H -3.369120 -2.134991 4.821635 0
M  V30 65 H -4.209081 -4.094307 2.629817 0
M  V30 66 H -3.006188 -2.714232 2.466975 0
M  V30 67 H 2.541074 -2.206879 2.983478 0
M  V30 68 H 7.527700 1.722846 4.430156 0
M  V30 END ATOM
M  V30 BEGIN BOND
M  V30 1 1 1 2
M  V30 2 2 2 3
M  V30 3 1 3 4
M  V30 4 1 4 5
M  V30 5 1 5 6
M  V30 6 2 6 7
M  V30 7 1 7 8
M  V30 8 1 8 9
M  V30 9 1 9 10
M  V30 10 2 10 11
M  V30 11 1 11 12
M  V30 12 2 12 13
M  V30 13 1 13 14
M  V30 14 1 14 15
M  V30 15 2 15 16
M  V30 16 1 15 17
M  V30 17 1 17 18
M  V30 18 1 18 19
M  V30 19 1 13 20
M  V30 20 2 20 21
M  V30 21 2 8 22
M  V30 22 1 22 23
M  V30 23 1 23 24
M  V30 24 2 24 25
M  V30 25 1 25 26
M  V30 26 1 26 27
M  V30 27 2 27 28
M  V30 28 1 27 29
M  V30 29 1 29 30
M  V30 30 1 30 31
M  V30 31 1 31 32
M  V30 32 1 32 33
M  V30 33 1 33 34
M  V30 34 1 34 35
M  V30 35 1 25 36
M  V30 36 2 36 37
M  V30 37 2 4 38
M  V30 38 1 38 39
M  V30 39 1 39 2
M  V30 40 1 37 6
M  V30 41 1 21 10
M  V30 42 1 37 23
M  V30 43 1 19 17
M  V30 44 1 35 30
M  V30 45 1 1 40
M  V30 46 1 1 41
M  V30 47 1 1 42
M  V30 48 1 3 43
M  V30 49 1 5 44
M  V30 50 1 11 45
M  V30 51 1 12 46
M  V30 52 1 14 47
M  V30 53 1 17 48
M  V30 54 1 18 49
M  V30 55 1 18 50
M  V30 56 1 19 51
M  V30 57 1 19 52
M  V30 58 1 20 53
M  V30 59 1 21 54
M  V30 60 1 24 55
M  V30 61 1 26 56
M  V30 62 1 29 57
M  V30 63 1 29 58
M  V30 64 1 31 59
M  V30 65 1 31 60
M  V30 66 1 32 61
M  V30 67 1 32 62
M  V30 68 1 34 63
M  V30 69 1 34 64
M  V30 70 1 35 65
M  V30 71 1 35 66
M  V30 72 1 36 67
M  V30 73 1 39 68
M  V30 END BOND
M  V30 END CTAB
M  END
>  <Dataset>  (987) 
ChEMBL_Kinases

>  <Ligand_Instance>  (987) 
nan

>  <PDB_ID>  (987) 
nan

>  <Standardized_SMILES>  (987) 
Cc1cc(Nc2nc(Sc3ccc(NC(=O)C4CC4)cc3)nn3cc(NC(=O)CN4CCOCC4)cc23)n[nH]1

>  <Name>  (987) 
nan

>  <Pocket>  (987) 
nan

>  <ATP_Site>  (987) 
nan

>  <Peripheral>  (987) 
nan

>  <Num_H_Atoms_ProtBoundConf>  (987) 
nan

>  <Num_Resolved_Atoms>  (987) 
nan

>  <Num_Not_Resolved_Atoms>  (987) 
nan

$$$$
CHEMBL1822486
     RDKit          3D

  0  0  0  0  0  0  0  0  0  0999 V3000
M  V30 BEGIN CTAB
M  V30 COUNTS 73 78 0 0 0
M  V30 BEGIN ATOM
M  V30 1 C 8.700293 -1.934970 2.711104 0
M  V30 2 C 7.259784 -2.134564 3.019662 0
M  V30 3 C 6.479463 -1.139458 3.610629 0
M  V30 4 C 5.222328 -1.695678 3.732624 0
M  V30 5 N 3.976629 -1.225155 4.247155 0
M  V30 6 C 2.952880 -0.535920 3.539780 0
M  V30 7 N 2.932302 0.826379 3.468002 0
M  V30 8 C 1.980818 1.488519 2.808668 0
M  V30 9 S 1.882291 3.267565 2.669733 0
M  V30 10 C 0.456965 3.739083 1.697235 0
M  V30 11 C 0.768826 3.830457 0.357219 0
M  V30 12 C -0.205042 4.181807 -0.583146 0
M  V30 13 C -1.486573 4.431080 -0.105489 0
M  V30 14 N -2.601896 4.800458 -0.947014 0
M  V30 15 C -3.211802 3.580797 -1.334914 0
M  V30 16 O -3.599125 2.396439 -1.560505 0
M  V30 17 C -4.422701 3.434881 -2.219563 0
M  V30 18 C -4.396662 4.263565 -3.471248 0
M  V30 19 C -5.398189 4.519243 -2.370735 0
M  V30 20 C -1.800163 4.340305 1.234197 0
M  V30 21 C -0.818745 3.989459 2.156451 0
M  V30 22 N 1.036868 0.753173 2.213995 0
M  V30 23 N 1.002750 -0.568315 2.247813 0
M  V30 24 C 0.120684 -1.438284 1.700374 0
M  V30 25 C 0.504076 -2.724154 2.009666 0
M  V30 26 N -0.107332 -3.957371 1.656983 0
M  V30 27 C -1.282473 -4.050019 0.885076 0
M  V30 28 O -1.875528 -3.029069 0.451664 0
M  V30 29 C -1.965473 -5.282891 0.484952 0
M  V30 30 C -3.213174 -5.010166 -0.339844 0
M  V30 31 N -2.795589 -4.295435 -1.515274 0
M  V30 32 C -3.876119 -3.962701 -2.402586 0
M  V30 33 C -3.466514 -2.651185 -3.085445 0
M  V30 34 C -1.977353 -2.742388 -3.432401 0
M  V30 35 C -1.577096 -4.206597 -3.546195 0
M  V30 36 C -1.656797 -4.856444 -2.162515 0
M  V30 37 C 1.644322 -2.583569 2.759588 0
M  V30 38 C 1.955328 -1.248023 2.908527 0
M  V30 39 N 5.272321 -2.956114 3.234893 0
M  V30 40 N 6.494681 -3.219939 2.806950 0
M  V30 41 H 9.295963 -2.270022 3.566605 0
M  V30 42 H 8.928440 -2.496715 1.777685 0
M  V30 43 H 8.936184 -0.864532 2.556181 0
M  V30 44 H 6.677617 -0.145867 3.939436 0
M  V30 45 H 3.801995 -1.411499 5.261663 0
M  V30 46 H 1.726286 3.658749 -0.115167 0
M  V30 47 H -0.042080 4.274655 -1.643209 0
M  V30 48 H -3.045189 5.661875 -1.317324 0
M  V30 49 H -4.713094 2.378062 -2.375924 0
M  V30 50 H -3.618983 5.049047 -3.561981 0
M  V30 51 H -4.773356 3.840969 -4.416524 0
M  V30 52 H -5.333678 5.450043 -1.807250 0
M  V30 53 H -6.453445 4.163334 -2.547652 0
M  V30 54 H -2.766992 4.523086 1.638392 0
M  V30 55 H -0.931800 3.882815 3.237775 0
M  V30 56 H -0.720151 -1.135800 1.129901 0
M  V30 57 H 0.299064 -4.853903 1.963224 0
M  V30 58 H -1.280021 -5.976539 -0.041930 0
M  V30 59 H -2.262260 -5.825252 1.428901 0
M  V30 60 H -3.628897 -5.985564 -0.663983 0
M  V30 61 H -3.985165 -4.492915 0.222105 0
M  V30 62 H -4.782993 -3.793500 -1.783088 0
M  V30 63 H -4.060134 -4.687310 -3.209531 0
M  V30 64 H -4.013096 -2.497230 -4.038147 0
M  V30 65 H -3.602054 -1.787637 -2.431795 0
M  V30 66 H -1.765180 -2.214297 -4.362607 0
M  V30 67 H -1.394389 -2.298348 -2.596698 0
M  V30 68 H -2.247270 -4.722370 -4.255822 0
M  V30 69 H -0.509851 -4.238937 -3.842852 0
M  V30 70 H -1.697728 -5.957904 -2.276052 0
M  V30 71 H -0.750425 -4.606486 -1.571884 0
M  V30 72 H 2.238297 -3.395366 3.188531 0
M  V30 73 H 6.805855 -4.125072 2.376084 0
M  V30 END ATOM
M  V30 BEGIN BOND
M  V30 1 1 1 2
M  V30 2 2 2 3
M  V30 3 1 3 4
M  V30 4 1 4 5
M  V30 5 1 5 6
M  V30 6 2 6 7
M  V30 7 1 7 8
M  V30 8 1 8 9
M  V30 9 1 9 10
M  V30 10 2 10 11
M  V30 11 1 11 12
M  V30 12 2 12 13
M  V30 13 1 13 14
M  V30 14 1 14 15
M  V30 15 2 15 16
M  V30 16 1 15 17
M  V30 17 1 17 18
M  V30 18 1 18 19
M  V30 19 1 13 20
M  V30 20 2 20 21
M  V30 21 2 8 22
M  V30 22 1 22 23
M  V30 23 1 23 24
M  V30 24 2 24 25
M  V30 25 1 25 26
M  V30 26 1 26 27
M  V30 27 2 27 28
M  V30 28 1 27 29
M  V30 29 1 29 30
M  V30 30 1 30 31
M  V30 31 1 31 32
M  V30 32 1 32 33
M  V30 33 1 33 34
M  V30 34 1 34 35
M  V30 35 1 35 36
M  V30 36 1 25 37
M  V30 37 2 37 38
M  V30 38 2 4 39
M  V30 39 1 39 40
M  V30 40 1 40 2
M  V30 41 1 38 6
M  V30 42 1 21 10
M  V30 43 1 38 23
M  V30 44 1 19 17
M  V30 45 1 36 31
M  V30 46 1 1 41
M  V30 47 1 1 42
M  V30 48 1 1 43
M  V30 49 1 3 44
M  V30 50 1 5 45
M  V30 51 1 11 46
M  V30 52 1 12 47
M  V30 53 1 14 48
M  V30 54 1 17 49
M  V30 55 1 18 50
M  V30 56 1 18 51
M  V30 57 1 19 52
M  V30 58 1 19 53
M  V30 59 1 20 54
M  V30 60 1 21 55
M  V30 61 1 24 56
M  V30 62 1 26 57
M  V30 63 1 29 58
M  V30 64 1 29 59
M  V30 65 1 30 60
M  V30 66 1 30 61
M  V30 67 1 32 62
M  V30 68 1 32 63
M  V30 69 1 33 64
M  V30 70 1 33 65
M  V30 71 1 34 66
M  V30 72 1 34 67
M  V30 73 1 35 68
M  V30 74 1 35 69
M  V30 75 1 36 70
M  V30 76 1 36 71
M  V30 77 1 37 72
M  V30 78 1 40 73
M  V30 END BOND
M  V30 END CTAB
M  END
>  <Dataset>  (988) 
ChEMBL_Kinases

>  <Ligand_Instance>  (988) 
nan

>  <PDB_ID>  (988) 
nan

>  <Standardized_SMILES>  (988) 
Cc1cc(Nc2nc(Sc3ccc(NC(=O)C4CC4)cc3)nn3cc(NC(=O)CCN4CCCCC4)cc23)n[nH]1

>  <Name>  (988) 
nan

>  <Pocket>  (988) 
nan

>  <ATP_Site>  (988) 
nan

>  <Peripheral>  (988) 
nan

>  <Num_H_Atoms_ProtBoundConf>  (988) 
nan

>  <Num_Resolved_Atoms>  (988) 
nan

>  <Num_Not_Resolved_Atoms>  (988) 
nan

$$$$
CHEMBL1822485
     RDKit          3D

  0  0  0  0  0  0  0  0  0  0999 V3000
M  V30 BEGIN CTAB
M  V30 COUNTS 48 52 0 0 0
M  V30 BEGIN ATOM
M  V30 1 C 0.029657 -5.573012 -5.265966 0
M  V30 2 C -0.174769 -5.268978 -3.825462 0
M  V30 3 C 0.451553 -4.272252 -3.109036 0
M  V30 4 C -0.034771 -4.353075 -1.823397 0
M  V30 5 N 0.215303 -3.610672 -0.636881 0
M  V30 6 C -0.674827 -2.524486 -0.419003 0
M  V30 7 N -0.478517 -1.266305 -0.887667 0
M  V30 8 C -1.382235 -0.283507 -0.630918 0
M  V30 9 S -1.130178 1.390842 -1.249119 0
M  V30 10 C -0.191174 2.338915 -0.028942 0
M  V30 11 C 1.187016 2.364110 -0.094017 0
M  V30 12 C 1.833992 3.102289 0.876500 0
M  V30 13 C 1.070314 3.750560 1.825052 0
M  V30 14 N 1.700591 4.530427 2.870968 0
M  V30 15 C 1.871138 3.537036 3.893729 0
M  V30 16 O 1.447759 2.367107 3.584017 0
M  V30 17 C 2.461548 3.648366 5.257231 0
M  V30 18 C 3.215440 2.446312 5.779922 0
M  V30 19 C 1.869724 2.742433 6.307930 0
M  V30 20 C -0.326080 3.718246 1.880911 0
M  V30 21 C -0.972780 2.980293 0.910443 0
M  V30 22 N -2.495807 -0.562605 0.104312 0
M  V30 23 N -2.659385 -1.797358 0.547344 0
M  V30 24 C -3.677167 -2.274376 1.281120 0
M  V30 25 C -3.499829 -3.609620 1.550360 0
M  V30 26 C -2.311484 -3.950575 0.945539 0
M  V30 27 C -1.811698 -2.823848 0.335543 0
M  V30 28 N -0.919828 -5.365912 -1.784495 0
M  V30 29 N -1.008601 -5.926056 -3.000240 0
M  V30 30 H 0.761595 -4.873555 -5.711041 0
M  V30 31 H 0.378376 -6.614280 -5.416620 0
M  V30 32 H -0.912784 -5.442776 -5.868157 0
M  V30 33 H 1.175971 -3.546220 -3.409001 0
M  V30 34 H 1.025364 -3.936519 -0.041708 0
M  V30 35 H 1.739754 1.837599 -0.859166 0
M  V30 36 H 2.909316 3.179711 0.903218 0
M  V30 37 H 2.061746 5.458331 3.174076 0
M  V30 38 H 2.853859 4.613944 5.624770 0
M  V30 39 H 4.102822 2.571601 6.418555 0
M  V30 40 H 3.327066 1.605758 5.049461 0
M  V30 41 H 1.725530 3.080855 7.345468 0
M  V30 42 H 1.061106 2.035765 5.960183 0
M  V30 43 H -0.861902 4.248347 2.651630 0
M  V30 44 H -2.040578 2.935269 0.923480 0
M  V30 45 H -4.581185 -1.791350 1.677602 0
M  V30 46 H -4.108229 -4.321941 2.108133 0
M  V30 47 H -1.837218 -4.936098 0.941147 0
M  V30 48 H -1.641490 -6.725951 -3.173079 0
M  V30 END ATOM
M  V30 BEGIN BOND
M  V30 1 1 1 2
M  V30 2 2 2 3
M  V30 3 1 3 4
M  V30 4 1 4 5
M  V30 5 1 5 6
M  V30 6 2 6 7
M  V30 7 1 7 8
M  V30 8 1 8 9
M  V30 9 1 9 10
M  V30 10 2 10 11
M  V30 11 1 11 12
M  V30 12 2 12 13
M  V30 13 1 13 14
M  V30 14 1 14 15
M  V30 15 2 15 16
M  V30 16 1 15 17
M  V30 17 1 17 18
M  V30 18 1 18 19
M  V30 19 1 13 20
M  V30 20 2 20 21
M  V30 21 2 8 22
M  V30 22 1 22 23
M  V30 23 1 23 24
M  V30 24 2 24 25
M  V30 25 1 25 26
M  V30 26 2 26 27
M  V30 27 2 4 28
M  V30 28 1 28 29
M  V30 29 1 29 2
M  V30 30 1 27 6
M  V30 31 1 21 10
M  V30 32 1 27 23
M  V30 33 1 19 17
M  V30 34 1 1 30
M  V30 35 1 1 31
M  V30 36 1 1 32
M  V30 37 1 3 33
M  V30 38 1 5 34
M  V30 39 1 11 35
M  V30 40 1 12 36
M  V30 41 1 14 37
M  V30 42 1 17 38
M  V30 43 1 18 39
M  V30 44 1 18 40
M  V30 45 1 19 41
M  V30 46 1 19 42
M  V30 47 1 20 43
M  V30 48 1 21 44
M  V30 49 1 24 45
M  V30 50 1 25 46
M  V30 51 1 26 47
M  V30 52 1 29 48
M  V30 END BOND
M  V30 END CTAB
M  END
>  <Dataset>  (989) 
ChEMBL_Kinases

>  <Ligand_Instance>  (989) 
nan

>  <PDB_ID>  (989) 
nan

>  <Standardized_SMILES>  (989) 
Cc1cc(Nc2nc(Sc3ccc(NC(=O)C4CC4)cc3)nn3cccc23)n[nH]1

>  <Name>  (989) 
nan

>  <Pocket>  (989) 
nan

>  <ATP_Site>  (989) 
nan

>  <Peripheral>  (989) 
nan

>  <Num_H_Atoms_ProtBoundConf>  (989) 
nan

>  <Num_Resolved_Atoms>  (989) 
nan

>  <Num_Not_Resolved_Atoms>  (989) 
nan

$$$$
CHEMBL1822314
     RDKit          3D

  0  0  0  0  0  0  0  0  0  0999 V3000
M  V30 BEGIN CTAB
M  V30 COUNTS 391 394 0 0 0
M  V30 BEGIN ATOM
M  V30 1 C 0.868408 0.881316 10.508801 0
M  V30 2 C 1.783146 1.066546 9.316371 0
M  V30 3 C 2.877815 2.090648 9.591542 0
M  V30 4 C 2.419598 -0.175960 8.802298 0
M  V30 5 C 1.445089 -1.240935 8.304909 0 CFG=1
M  V30 6 N 0.601007 -0.850905 7.231393 0
M  V30 7 C 0.181836 -0.009433 6.233642 0
M  V30 8 O 0.920190 1.024206 6.146980 0
M  V30 9 C -0.373366 0.808343 5.128721 0
M  V30 10 N 0.528125 1.973450 5.120171 0
M  V30 11 C 0.349420 2.954078 6.169448 0
M  V30 12 O -0.491843 3.084334 7.079355 0
M  V30 13 C 1.379935 3.994205 6.207860 0
M  V30 14 N 2.405847 3.736946 5.210814 0
M  V30 15 C 3.533439 4.518500 5.487243 0
M  V30 16 O 3.559920 5.319162 6.458901 0
M  V30 17 C 4.920048 4.716570 4.882276 0
M  V30 18 C 5.844200 5.014216 6.023131 0
M  V30 19 C 7.249717 5.298257 5.648865 0
M  V30 20 N 7.930377 4.216363 4.952548 0
M  V30 21 C 9.332176 4.456994 4.622971 0
M  V30 22 O 9.884592 5.527232 4.929784 0
M  V30 23 C 9.985249 3.364361 3.930839 0
M  V30 24 C 11.235444 3.480130 3.314982 0
M  V30 25 C 11.871882 2.505614 2.570516 0
M  V30 26 C 11.234652 1.318264 2.403967 0
M  V30 27 C 11.481855 0.127783 1.582765 0
M  V30 28 N 11.896843 0.483768 0.368011 0
M  V30 29 N 11.953125 -0.667695 -0.390766 0
M  V30 30 C 11.534612 -1.623089 0.500490 0
M  V30 31 C 11.366267 -2.996282 0.226150 0
M  V30 32 C 10.891874 -3.834760 1.228895 0
M  V30 33 C 10.608999 -3.258916 2.480944 0
M  V30 34 C 10.760336 -1.904965 2.825078 0
M  V30 35 C 11.230042 -1.209859 1.749141 0
M  V30 36 C 10.006884 1.137260 2.982379 0
M  V30 37 C 9.382543 2.124445 3.731684 0
M  V30 38 C 2.212382 -2.475161 7.975419 0
M  V30 39 O 2.734161 -2.868144 8.996044 0
M  V30 40 N 2.145795 -2.879029 6.560921 0
M  V30 41 C 2.695188 -3.993913 5.811364 0 CFG=2
M  V30 42 C 3.487386 -4.864965 6.883256 0
M  V30 43 C 2.603316 -5.357476 7.929408 0
M  V30 44 N 1.182444 -5.063794 7.591901 0
M  V30 45 O 2.069325 -5.855856 8.934576 0
M  V30 46 C 3.696400 -3.740571 4.828063 0
M  V30 47 O 4.013324 -4.843588 4.297373 0
M  V30 48 N 4.329349 -2.600668 4.394431 0
M  V30 49 C 5.337413 -2.236245 3.472718 0 CFG=2
M  V30 50 C 6.679072 -2.114063 4.188444 0
M  V30 51 C 6.659751 -1.240664 5.390170 0
M  V30 52 C 8.086566 -1.259503 5.958542 0
M  V30 53 C 6.182696 0.156827 5.297699 0
M  V30 54 C 5.201132 -1.335723 2.400713 0
M  V30 55 O 4.093757 -0.686672 2.274359 0
M  V30 56 N 6.145645 -1.057048 1.417242 0
M  V30 57 C 6.527186 -0.400116 0.230941 0 CFG=1
M  V30 58 C 5.425240 0.147558 -0.620825 0
M  V30 59 O 4.221043 0.248704 -0.416486 0
M  V30 60 N 5.838458 0.618202 -1.918949 0
M  V30 61 C 5.363535 1.166450 -3.140684 0 CFG=1
M  V30 62 C 4.857191 2.580280 -2.828185 0
M  V30 63 O 4.919742 2.366869 -1.605460 0
M  V30 64 N 4.466053 3.683885 -3.694627 0
M  V30 65 C 4.600784 4.076148 -5.099446 0
M  V30 66 C 4.077780 5.463081 -5.164783 0
M  V30 67 C 3.750450 5.853993 -3.766571 0
M  V30 68 C 3.541291 4.505314 -2.974958 0 CFG=2
M  V30 69 C 3.839276 4.905148 -1.600298 0
M  V30 70 O 4.870166 4.925937 -0.902507 0
M  V30 71 N 2.658326 5.387516 -0.946100 0
M  V30 72 C 2.130541 5.964236 0.238269 0 CFG=2
M  V30 73 C 1.467856 5.075938 1.220384 0
M  V30 74 C 0.341967 4.223210 0.722880 0
M  V30 75 C -0.343032 3.624447 1.920656 0
M  V30 76 N -1.395462 2.739276 1.544755 0
M  V30 77 C -2.216719 2.285255 2.603982 0
M  V30 78 N -2.578015 2.835234 3.648281 0
M  V30 79 N -2.859411 0.993590 2.631247 0
M  V30 80 C 1.260122 7.173003 0.041078 0
M  V30 81 O 0.947167 8.168734 0.758929 0
M  V30 82 N 0.671466 7.151185 -1.298652 0
M  V30 83 C -0.186455 8.352912 -1.521014 0
M  V30 84 C -1.393296 8.279908 -0.653875 0
M  V30 85 O -2.314560 9.154627 -0.718809 0
M  V30 86 N -1.900661 7.426796 0.344988 0
M  V30 87 C -2.686248 6.773145 1.341951 0
M  V30 88 C -3.879294 6.102275 0.761817 0
M  V30 89 O -4.105678 6.242558 -0.441569 0
M  V30 90 N -4.855358 5.274548 1.402479 0
M  V30 91 C -5.946954 4.703055 0.611519 0 CFG=2
M  V30 92 C -7.212662 4.873655 1.449089 0
M  V30 93 C -7.048825 4.150633 2.772764 0
M  V30 94 C -8.305786 4.394170 3.593840 0
M  V30 95 N -8.291131 3.782000 4.872541 0
M  V30 96 C -8.373112 2.381295 5.174680 0
M  V30 97 N -8.977794 1.673219 4.254036 0
M  V30 98 N -7.892107 1.708724 6.310809 0
M  V30 99 C -5.747868 3.302301 0.238785 0
M  V30 100 O -4.909709 3.045310 1.148240 0
M  V30 101 N -6.209559 2.366451 -0.743903 0
M  V30 102 C -5.691491 0.945830 -0.682532 0 CFG=2
M  V30 103 C -4.426925 1.079154 -1.523551 0
M  V30 104 C -3.577550 -0.112841 -1.719824 0
M  V30 105 C -3.029398 -0.655963 -0.407648 0
M  V30 106 N -2.076755 -1.750824 -0.722158 0
M  V30 107 C -1.857690 -2.322391 0.600197 0
M  V30 108 N -2.443781 -2.711875 1.772163 0
M  V30 109 N -0.386350 -2.706316 0.785288 0
M  V30 110 C -6.693733 0.075543 -1.230223 0
M  V30 111 O -6.978003 0.994547 -2.126871 0
M  V30 112 N -7.401022 -1.098681 -1.243360 0
M  V30 113 C -8.449093 -1.576196 -2.163309 0 CFG=2
M  V30 114 C -9.836488 -1.374014 -1.566668 0
M  V30 115 C -9.943466 0.109398 -1.337465 0
M  V30 116 C -11.236047 0.603353 -0.807680 0
M  V30 117 N -11.534551 0.016513 0.497206 0
M  V30 118 C -12.617017 0.558164 1.267825 0
M  V30 119 N -13.213579 1.568401 0.678711 0
M  V30 120 N -13.045855 0.080832 2.564874 0
M  V30 121 C -8.154846 -3.028547 -2.420580 0
M  V30 122 O -7.372711 -2.461716 -1.708852 0
M  V30 123 N -8.887718 -3.981686 -3.210890 0
M  V30 124 C -8.065447 -5.158004 -2.961565 0 CFG=2
M  V30 125 C -8.649137 -5.824578 -1.774845 0
M  V30 126 C -8.758594 -4.923655 -0.542533 0
M  V30 127 C -9.333001 -5.714133 0.620708 0
M  V30 128 N -10.491115 -5.388953 1.316795 0
M  V30 129 O -8.450162 -6.630262 0.664007 0
M  V30 130 C -6.630967 -5.006711 -3.012233 0
M  V30 131 O -6.300890 -3.866095 -3.427641 0
M  V30 132 N -5.898087 -6.173660 -2.582473 0
M  V30 133 C -4.500339 -6.123008 -2.541972 0 CFG=2
M  V30 134 C -3.958456 -4.737185 -2.218809 0
M  V30 135 C -4.531185 -4.337590 -0.861196 0
M  V30 136 C -4.160085 -5.330927 0.199015 0
M  V30 137 N -2.760880 -5.587834 0.358187 0
M  V30 138 C -2.419062 -6.519172 1.395384 0
M  V30 139 N -3.002554 -6.754088 2.484743 0
M  V30 140 N -1.271864 -7.306248 1.312478 0
M  V30 141 C -3.703676 -6.759030 -3.560820 0
M  V30 142 O -4.417548 -7.543114 -4.312233 0
M  V30 143 N -2.335682 -6.577498 -3.741775 0
M  V30 144 C -1.373108 -7.162503 -4.700775 0 CFG=2
M  V30 145 C -0.460780 -7.902866 -3.681394 0
M  V30 146 C 0.703033 -8.597481 -4.208031 0
M  V30 147 C 1.416125 -9.235460 -3.013005 0
M  V30 148 N 1.729176 -8.254963 -1.981518 0
M  V30 149 C 2.407795 -8.512743 -0.768160 0
M  V30 150 N 3.404866 -9.362664 -0.911863 0
M  V30 151 N 2.156209 -7.987117 0.544056 0
M  V30 152 C -0.532920 -6.146979 -5.301783 0
M  V30 153 O -0.128775 -6.689717 -6.410995 0
M  V30 154 N -0.001738 -4.846264 -5.150300 0
M  V30 155 C 0.802323 -4.403034 -6.242435 0 CFG=2
M  V30 156 C 2.196954 -4.983551 -6.323817 0
M  V30 157 C 3.129289 -4.708833 -5.237600 0
M  V30 158 C 2.709263 -5.082397 -3.838050 0
M  V30 159 C 3.924446 -4.733102 -2.970780 0
M  V30 160 N 3.665945 -4.940983 -1.560526 0
M  V30 161 C 0.890586 -2.903751 -6.251853 0
M  V30 162 O 1.500628 -2.067567 -6.922714 0
M  V30 163 N 0.097680 -2.187983 -5.271514 0
M  V30 164 C 0.044767 -0.710081 -5.124123 0 CFG=2
M  V30 165 C 0.767827 -0.449117 -3.771401 0
M  V30 166 C 0.743358 0.982195 -3.385011 0
M  V30 167 C 1.487417 1.370804 -2.154344 0
M  V30 168 C 1.051206 0.658930 -0.905424 0
M  V30 169 N 1.317601 -0.743738 -0.988888 0
M  V30 170 C -1.267015 -0.126281 -5.192721 0
M  V30 171 O -2.321481 -0.748085 -5.039901 0
M  V30 172 N -1.192355 1.285802 -5.477180 0
M  V30 173 C -2.486560 1.972435 -5.538038 0 CFG=2
M  V30 174 C -2.757922 2.070060 -7.048267 0
M  V30 175 C -4.092706 2.730095 -7.360185 0
M  V30 176 C -5.158305 1.950406 -6.697373 0
M  V30 177 N -6.491527 2.448492 -6.934476 0
M  V30 178 C -7.009896 2.201563 -8.228608 0
M  V30 179 N -6.493330 1.546145 -9.277665 0
M  V30 180 N -8.353293 2.760803 -8.331621 0
M  V30 181 C -2.375886 3.355175 -5.043782 0
M  V30 182 O -1.136762 3.608267 -4.820549 0
M  V30 183 N -3.322857 4.353518 -4.799620 0
M  V30 184 C -3.060504 5.721259 -4.310897 0
M  V30 185 C -4.406880 6.417300 -4.262672 0
M  V30 186 N -4.142760 7.766100 -3.771530 0
M  V30 187 O -5.573372 6.043801 -4.542216 0
M  V30 188 C 6.331228 1.105038 -4.253450 0 CFG=2
M  V30 189 C 5.592221 1.145514 -5.610085 0
M  V30 190 O 6.775099 -0.283531 -4.279139 0
M  V30 191 C 7.601409 0.586157 0.381330 0 CFG=2
M  V30 192 C 7.153677 1.798640 1.242908 0
M  V30 193 O 7.996031 1.204850 -0.783911 0
M  V30 194 H -0.189839 0.772320 10.175674 0
M  V30 195 H 1.203917 0.107140 11.187415 0
M  V30 196 H 0.890571 1.879917 11.035361 0
M  V30 197 H 1.122932 1.592224 8.580319 0
M  V30 198 H 3.100166 2.110654 10.652227 0
M  V30 199 H 2.571360 3.119767 9.253371 0
M  V30 200 H 3.788205 1.842429 8.961465 0
M  V30 201 H 2.979228 -0.633230 9.677398 0
M  V30 202 H 3.168986 0.010978 8.038502 0
M  V30 203 H 0.808979 -1.421205 9.196322 0
M  V30 204 H -0.176672 -1.519899 6.981703 0
M  V30 205 H -1.382135 1.155632 5.438052 0
M  V30 206 H -0.404307 0.252997 4.211976 0
M  V30 207 H 1.171882 1.906674 4.355131 0
M  V30 208 H 0.837607 4.960013 5.967866 0
M  V30 209 H 1.790573 4.062341 7.195771 0
M  V30 210 H 2.671599 3.194407 4.334948 0
M  V30 211 H 4.836459 5.587815 4.228534 0
M  V30 212 H 5.193871 3.819283 4.320210 0
M  V30 213 H 5.912557 3.963765 6.552671 0
M  V30 214 H 5.431569 5.630205 6.823078 0
M  V30 215 H 7.237239 6.205638 4.940756 0
M  V30 216 H 7.863968 5.573367 6.506414 0
M  V30 217 H 7.310349 3.411299 4.785682 0
M  V30 218 H 11.781415 4.400497 3.421681 0
M  V30 219 H 12.817274 2.512165 2.082562 0
M  V30 220 H 12.205477 -0.830145 -1.370343 0
M  V30 221 H 11.545714 -3.534240 -0.682504 0
M  V30 222 H 10.690910 -4.903360 1.164388 0
M  V30 223 H 10.232019 -3.865744 3.300294 0
M  V30 224 H 10.596217 -1.446935 3.787452 0
M  V30 225 H 9.325265 0.263638 2.974829 0
M  V30 226 H 8.416927 2.001863 4.210199 0
M  V30 227 H 1.559986 -2.294538 5.878579 0
M  V30 228 H 1.923149 -4.721408 5.547863 0
M  V30 229 H 4.399970 -4.365842 7.175397 0
M  V30 230 H 3.754583 -5.749022 6.235507 0
M  V30 231 H 0.354219 -4.489924 7.404436 0
M  V30 232 H 0.179004 -5.354035 7.355578 0
M  V30 233 H 3.983568 -1.713741 4.832155 0
M  V30 234 H 5.536067 -3.313108 2.974441 0
M  V30 235 H 7.478692 -1.660539 3.503346 0
M  V30 236 H 7.127516 -3.076588 4.478232 0
M  V30 237 H 6.062219 -1.725483 6.239286 0
M  V30 238 H 8.159102 -1.910520 6.874149 0
M  V30 239 H 8.402740 -0.243509 6.204893 0
M  V30 240 H 8.778899 -1.705150 5.239296 0
M  V30 241 H 6.655007 0.718241 6.158671 0
M  V30 242 H 6.475671 0.689670 4.393811 0
M  V30 243 H 5.082461 0.293035 5.490954 0
M  V30 244 H 7.049462 -1.620293 1.630978 0
M  V30 245 H 6.903075 -1.225983 -0.491464 0
M  V30 246 H 6.826712 0.523052 -2.185712 0
M  V30 247 H 4.414258 0.681892 -3.497243 0
M  V30 248 H 3.887346 3.432543 -5.683180 0
M  V30 249 H 5.637281 4.032998 -5.453680 0
M  V30 250 H 3.150321 5.556093 -5.790897 0
M  V30 251 H 4.863493 6.116636 -5.624200 0
M  V30 252 H 2.829566 6.478903 -3.705522 0
M  V30 253 H 4.613365 6.330807 -3.298260 0
M  V30 254 H 2.494033 4.213505 -3.178499 0
M  V30 255 H 1.730315 5.329199 -1.414571 0
M  V30 256 H 3.014600 6.399399 0.848557 0
M  V30 257 H 2.256104 4.426466 1.668770 0
M  V30 258 H 1.012727 5.756600 2.001059 0
M  V30 259 H -0.375014 4.685223 0.055169 0
M  V30 260 H 0.765913 3.365655 0.094989 0
M  V30 261 H 0.418006 3.080821 2.485270 0
M  V30 262 H -0.767313 4.470595 2.524536 0
M  V30 263 H -1.567419 2.398166 0.562034 0
M  V30 264 H -3.111314 2.702055 4.458188 0
M  V30 265 H -3.831225 0.732808 2.340082 0
M  V30 266 H -2.404180 0.093699 2.957158 0
M  V30 267 H 0.627869 6.594127 -2.185731 0
M  V30 268 H 0.406435 9.237088 -1.193411 0
M  V30 269 H -0.490914 8.462019 -2.545382 0
M  V30 270 H -1.143575 6.663141 0.402711 0
M  V30 271 H -2.226278 6.339465 2.195525 0
M  V30 272 H -3.221664 7.723185 1.835053 0
M  V30 273 H -4.571877 5.197105 2.429109 0
M  V30 274 H -6.054719 5.288462 -0.313213 0
M  V30 275 H -7.994318 4.358610 0.883091 0
M  V30 276 H -7.421113 5.922524 1.606149 0
M  V30 277 H -6.899804 3.086572 2.644813 0
M  V30 278 H -6.205712 4.535289 3.355285 0
M  V30 279 H -8.459121 5.502795 3.763003 0
M  V30 280 H -9.194255 4.071422 2.994557 0
M  V30 281 H -8.206555 4.348491 5.769430 0
M  V30 282 H -9.363427 2.113251 3.384353 0
M  V30 283 H -7.147921 1.367963 6.942603 0
M  V30 284 H -8.281954 1.178103 7.066104 0
M  V30 285 H -6.884576 2.923850 -1.348979 0
M  V30 286 H -5.355434 0.820325 0.347018 0
M  V30 287 H -3.804257 1.860543 -0.985445 0
M  V30 288 H -4.715451 1.521179 -2.526777 0
M  V30 289 H -2.729264 -0.019461 -2.415243 0
M  V30 290 H -4.201047 -0.930431 -2.207200 0
M  V30 291 H -3.843822 -1.107226 0.184499 0
M  V30 292 H -2.507782 0.160109 0.046194 0
M  V30 293 H -1.616789 -2.106427 -1.574028 0
M  V30 294 H -1.562393 -3.068283 2.376207 0
M  V30 295 H -0.054411 -3.101026 -0.183130 0
M  V30 296 H 0.662323 -3.001673 0.685367 0
M  V30 297 H -6.903916 -1.450940 -0.361749 0
M  V30 298 H -8.390230 -0.986714 -3.086823 0
M  V30 299 H -10.550028 -1.729905 -2.312506 0
M  V30 300 H -9.988280 -1.855975 -0.604539 0
M  V30 301 H -9.736007 0.625034 -2.272172 0
M  V30 302 H -9.108154 0.378632 -0.593090 0
M  V30 303 H -12.100119 0.284588 -1.453117 0
M  V30 304 H -11.305493 1.696544 -0.707053 0
M  V30 305 H -11.029875 -0.822617 0.952594 0
M  V30 306 H -14.038044 2.000272 1.230027 0
M  V30 307 H -12.283279 0.607457 3.072830 0
M  V30 308 H -12.264418 0.623365 3.061454 0
M  V30 309 H -9.709405 -3.559044 -3.677445 0
M  V30 310 H -8.319319 -5.832142 -3.858774 0
M  V30 311 H -8.222035 -6.829673 -1.515516 0
M  V30 312 H -9.720276 -6.115119 -2.007791 0
M  V30 313 H -9.519669 -4.162711 -0.757776 0
M  V30 314 H -7.820506 -4.551706 -0.179356 0
M  V30 315 H -11.243117 -6.078506 1.124817 0
M  V30 316 H -10.069030 -4.478564 1.802169 0
M  V30 317 H -6.399550 -7.055154 -2.293731 0
M  V30 318 H -4.168968 -6.658271 -1.550054 0
M  V30 319 H -4.087978 -3.998393 -2.981780 0
M  V30 320 H -2.878387 -4.879457 -2.031250 0
M  V30 321 H -4.202015 -3.350943 -0.598193 0
M  V30 322 H -5.650564 -4.300701 -0.855416 0
M  V30 323 H -4.732799 -6.241122 0.195622 0
M  V30 324 H -4.447785 -4.794959 1.187838 0
M  V30 325 H -1.934149 -5.192910 -0.162704 0
M  V30 326 H -3.840187 -6.328946 2.880457 0
M  V30 327 H -0.630816 -7.179560 0.462200 0
M  V30 328 H -0.464922 -7.968221 1.392303 0
M  V30 329 H -1.768545 -5.916124 -3.136116 0
M  V30 330 H -1.838023 -7.842547 -5.403318 0
M  V30 331 H -0.145291 -7.062535 -2.994737 0
M  V30 332 H -1.134590 -8.579304 -3.158447 0
M  V30 333 H 1.444968 -7.986536 -4.769504 0
M  V30 334 H 0.437197 -9.461951 -4.863235 0
M  V30 335 H 0.807761 -10.029310 -2.551109 0
M  V30 336 H 2.373711 -9.710964 -3.337118 0
M  V30 337 H 1.501052 -7.204125 -1.949173 0
M  V30 338 H 3.972367 -9.621036 -0.068907 0
M  V30 339 H 1.835732 -8.851745 1.093750 0
M  V30 340 H 2.184816 -7.078540 1.087389 0
M  V30 341 H -0.379988 -4.567858 -4.187070 0
M  V30 342 H 0.326645 -4.715664 -7.191971 0
M  V30 343 H 2.106223 -6.069698 -6.528370 0
M  V30 344 H 2.626897 -4.554869 -7.284675 0
M  V30 345 H 4.045720 -5.351254 -5.435792 0
M  V30 346 H 3.543518 -3.651138 -5.255521 0
M  V30 347 H 1.869057 -4.517804 -3.427747 0
M  V30 348 H 2.575765 -6.165508 -3.800112 0
M  V30 349 H 4.780256 -5.400868 -3.270357 0
M  V30 350 H 4.248087 -3.695944 -3.114744 0
M  V30 351 H 4.387559 -4.410917 -0.988873 0
M  V30 352 H 2.702371 -4.606570 -1.298725 0
M  V30 353 H -0.542881 -2.599818 -4.565637 0
M  V30 354 H 0.712818 -0.320189 -5.907873 0
M  V30 355 H 0.374232 -1.175403 -3.065905 0
M  V30 356 H 1.847408 -0.742852 -3.954300 0
M  V30 357 H -0.309119 1.389195 -3.352155 0
M  V30 358 H 1.238919 1.566786 -4.203894 0
M  V30 359 H 1.439136 2.475045 -1.991916 0
M  V30 360 H 2.540441 1.064011 -2.321849 0
M  V30 361 H -0.029714 0.921798 -0.762971 0
M  V30 362 H 1.548732 1.067799 0.019466 0
M  V30 363 H 2.158456 -0.827913 -1.657298 0
M  V30 364 H 1.719784 -1.078908 -0.048058 0
M  V30 365 H -0.417375 1.967055 -5.658597 0
M  V30 366 H -3.238251 1.374242 -5.047124 0
M  V30 367 H -2.655210 1.126496 -7.575036 0
M  V30 368 H -1.985649 2.805915 -7.446707 0
M  V30 369 H -4.012625 3.796250 -7.139557 0
M  V30 370 H -4.228339 2.685131 -8.473578 0
M  V30 371 H -4.954732 1.799111 -5.639876 0
M  V30 372 H -5.078921 0.907266 -7.161034 0
M  V30 373 H -6.962050 2.947767 -6.157804 0
M  V30 374 H -7.130706 1.533495 -10.106349 0
M  V30 375 H -8.298010 3.841554 -8.264985 0
M  V30 376 H -9.367340 2.957303 -8.413648 0
M  V30 377 H -4.309607 4.045557 -4.954508 0
M  V30 378 H -2.432630 6.290109 -5.008038 0
M  V30 379 H -2.594133 5.730815 -3.330358 0
M  V30 380 H -4.406122 7.535299 -2.791667 0
M  V30 381 H -3.834309 8.267046 -4.652102 0
M  V30 382 H 7.222807 1.702888 -4.221833 0
M  V30 383 H 4.518923 1.233351 -5.466979 0
M  V30 384 H 5.705303 0.140862 -6.147062 0
M  V30 385 H 6.067126 1.885727 -6.250306 0
M  V30 386 H 7.111535 -0.469377 -5.175506 0
M  V30 387 H 8.552535 0.159070 0.784533 0
M  V30 388 H 8.063251 2.460599 1.283920 0
M  V30 389 H 6.380632 2.381329 0.756606 0
M  V30 390 H 6.962046 1.453048 2.241911 0
M  V30 391 H 8.745149 1.862998 -0.564339 0
M  V30 END ATOM
M  V30 BEGIN BOND
M  V30 1 1 1 2
M  V30 2 1 2 3
M  V30 3 1 2 4
M  V30 4 1 4 5
M  V30 5 1 5 6
M  V30 6 1 6 7
M  V30 7 2 7 8
M  V30 8 1 7 9
M  V30 9 1 9 10
M  V30 10 1 10 11
M  V30 11 2 11 12
M  V30 12 1 11 13
M  V30 13 1 13 14
M  V30 14 1 14 15
M  V30 15 2 15 16
M  V30 16 1 15 17
M  V30 17 1 17 18
M  V30 18 1 18 19
M  V30 19 1 19 20
M  V30 20 1 20 21
M  V30 21 2 21 22
M  V30 22 1 21 23
M  V30 23 2 23 24
M  V30 24 1 24 25
M  V30 25 2 25 26
M  V30 26 1 26 27
M  V30 27 2 27 28
M  V30 28 1 28 29
M  V30 29 1 29 30
M  V30 30 2 30 31
M  V30 31 1 31 32
M  V30 32 2 32 33
M  V30 33 1 33 34
M  V30 34 2 34 35
M  V30 35 1 26 36
M  V30 36 2 36 37
M  V30 37 1 5 38
M  V30 38 2 38 39
M  V30 39 1 38 40
M  V30 40 1 40 41
M  V30 41 1 41 42
M  V30 42 1 42 43
M  V30 43 1 43 44
M  V30 44 2 43 45
M  V30 45 1 41 46
M  V30 46 2 46 47
M  V30 47 1 46 48
M  V30 48 1 48 49
M  V30 49 1 49 50
M  V30 50 1 50 51
M  V30 51 1 51 52
M  V30 52 1 51 53
M  V30 53 1 49 54
M  V30 54 2 54 55
M  V30 55 1 54 56
M  V30 56 1 56 57
M  V30 57 1 57 58
M  V30 58 2 58 59
M  V30 59 1 58 60
M  V30 60 1 60 61
M  V30 61 1 61 62
M  V30 62 2 62 63
M  V30 63 1 62 64
M  V30 64 1 64 65
M  V30 65 1 65 66
M  V30 66 1 66 67
M  V30 67 1 67 68
M  V30 68 1 68 69
M  V30 69 2 69 70
M  V30 70 1 69 71
M  V30 71 1 71 72
M  V30 72 1 72 73
M  V30 73 1 73 74
M  V30 74 1 74 75
M  V30 75 1 75 76
M  V30 76 1 76 77
M  V30 77 2 77 78 CFG=2
M  V30 78 1 77 79
M  V30 79 1 72 80
M  V30 80 2 80 81
M  V30 81 1 80 82
M  V30 82 1 82 83
M  V30 83 1 83 84
M  V30 84 2 84 85
M  V30 85 1 84 86
M  V30 86 1 86 87
M  V30 87 1 87 88
M  V30 88 2 88 89
M  V30 89 1 88 90
M  V30 90 1 90 91
M  V30 91 1 91 92
M  V30 92 1 92 93
M  V30 93 1 93 94
M  V30 94 1 94 95
M  V30 95 1 95 96
M  V30 96 2 96 97 CFG=2
M  V30 97 1 96 98
M  V30 98 1 91 99
M  V30 99 2 99 100
M  V30 100 1 99 101
M  V30 101 1 101 102
M  V30 102 1 102 103
M  V30 103 1 103 104
M  V30 104 1 104 105
M  V30 105 1 105 106
M  V30 106 1 106 107
M  V30 107 2 107 108 CFG=2
M  V30 108 1 107 109
M  V30 109 1 102 110
M  V30 110 2 110 111
M  V30 111 1 110 112
M  V30 112 1 112 113
M  V30 113 1 113 114
M  V30 114 1 114 115
M  V30 115 1 115 116
M  V30 116 1 116 117
M  V30 117 1 117 118
M  V30 118 2 118 119 CFG=2
M  V30 119 1 118 120
M  V30 120 1 113 121
M  V30 121 2 121 122
M  V30 122 1 121 123
M  V30 123 1 123 124
M  V30 124 1 124 125
M  V30 125 1 125 126
M  V30 126 1 126 127
M  V30 127 1 127 128
M  V30 128 2 127 129
M  V30 129 1 124 130
M  V30 130 2 130 131
M  V30 131 1 130 132
M  V30 132 1 132 133
M  V30 133 1 133 134
M  V30 134 1 134 135
M  V30 135 1 135 136
M  V30 136 1 136 137
M  V30 137 1 137 138
M  V30 138 2 138 139 CFG=2
M  V30 139 1 138 140
M  V30 140 1 133 141
M  V30 141 2 141 142
M  V30 142 1 141 143
M  V30 143 1 143 144
M  V30 144 1 144 145
M  V30 145 1 145 146
M  V30 146 1 146 147
M  V30 147 1 147 148
M  V30 148 1 148 149
M  V30 149 2 149 150 CFG=2
M  V30 150 1 149 151
M  V30 151 1 144 152
M  V30 152 2 152 153
M  V30 153 1 152 154
M  V30 154 1 154 155
M  V30 155 1 155 156
M  V30 156 1 156 157
M  V30 157 1 157 158
M  V30 158 1 158 159
M  V30 159 1 159 160
M  V30 160 1 155 161
M  V30 161 2 161 162
M  V30 162 1 161 163
M  V30 163 1 163 164
M  V30 164 1 164 165
M  V30 165 1 165 166
M  V30 166 1 166 167
M  V30 167 1 167 168
M  V30 168 1 168 169
M  V30 169 1 164 170
M  V30 170 2 170 171
M  V30 171 1 170 172
M  V30 172 1 172 173
M  V30 173 1 173 174
M  V30 174 1 174 175
M  V30 175 1 175 176
M  V30 176 1 176 177
M  V30 177 1 177 178
M  V30 178 2 178 179 CFG=2
M  V30 179 1 178 180
M  V30 180 1 173 181
M  V30 181 2 181 182
M  V30 182 1 181 183
M  V30 183 1 183 184
M  V30 184 1 184 185
M  V30 185 1 185 186
M  V30 186 2 185 187
M  V30 187 1 61 188
M  V30 188 1 188 189
M  V30 189 1 188 190
M  V30 190 1 57 191
M  V30 191 1 191 192
M  V30 192 1 191 193
M  V30 193 1 37 23
M  V30 194 1 68 64
M  V30 195 1 35 27
M  V30 196 1 35 30
M  V30 197 1 1 194
M  V30 198 1 1 195
M  V30 199 1 1 196
M  V30 200 1 2 197
M  V30 201 1 3 198
M  V30 202 1 3 199
M  V30 203 1 3 200
M  V30 204 1 4 201
M  V30 205 1 4 202
M  V30 206 1 5 203 CFG=1
M  V30 207 1 6 204
M  V30 208 1 9 205
M  V30 209 1 9 206
M  V30 210 1 10 207
M  V30 211 1 13 208
M  V30 212 1 13 209
M  V30 213 1 14 210
M  V30 214 1 17 211
M  V30 215 1 17 212
M  V30 216 1 18 213
M  V30 217 1 18 214
M  V30 218 1 19 215
M  V30 219 1 19 216
M  V30 220 1 20 217
M  V30 221 1 24 218
M  V30 222 1 25 219
M  V30 223 1 29 220
M  V30 224 1 31 221
M  V30 225 1 32 222
M  V30 226 1 33 223
M  V30 227 1 34 224
M  V30 228 1 36 225
M  V30 229 1 37 226
M  V30 230 1 40 227
M  V30 231 1 41 228 CFG=3
M  V30 232 1 42 229
M  V30 233 1 42 230
M  V30 234 1 44 231
M  V30 235 1 44 232
M  V30 236 1 48 233
M  V30 237 1 49 234 CFG=3
M  V30 238 1 50 235
M  V30 239 1 50 236
M  V30 240 1 51 237
M  V30 241 1 52 238
M  V30 242 1 52 239
M  V30 243 1 52 240
M  V30 244 1 53 241
M  V30 245 1 53 242
M  V30 246 1 53 243
M  V30 247 1 56 244
M  V30 248 1 57 245 CFG=3
M  V30 249 1 60 246
M  V30 250 1 61 247 CFG=3
M  V30 251 1 65 248
M  V30 252 1 65 249
M  V30 253 1 66 250
M  V30 254 1 66 251
M  V30 255 1 67 252
M  V30 256 1 67 253
M  V30 257 1 68 254 CFG=1
M  V30 258 1 71 255
M  V30 259 1 72 256 CFG=1
M  V30 260 1 73 257
M  V30 261 1 73 258
M  V30 262 1 74 259
M  V30 263 1 74 260
M  V30 264 1 75 261
M  V30 265 1 75 262
M  V30 266 1 76 263
M  V30 267 1 78 264
M  V30 268 1 79 265
M  V30 269 1 79 266
M  V30 270 1 82 267
M  V30 271 1 83 268
M  V30 272 1 83 269
M  V30 273 1 86 270
M  V30 274 1 87 271
M  V30 275 1 87 272
M  V30 276 1 90 273
M  V30 277 1 91 274 CFG=3
M  V30 278 1 92 275
M  V30 279 1 92 276
M  V30 280 1 93 277
M  V30 281 1 93 278
M  V30 282 1 94 279
M  V30 283 1 94 280
M  V30 284 1 95 281
M  V30 285 1 97 282
M  V30 286 1 98 283
M  V30 287 1 98 284
M  V30 288 1 101 285
M  V30 289 1 102 286 CFG=1
M  V30 290 1 103 287
M  V30 291 1 103 288
M  V30 292 1 104 289
M  V30 293 1 104 290
M  V30 294 1 105 291
M  V30 295 1 105 292
M  V30 296 1 106 293
M  V30 297 1 108 294
M  V30 298 1 109 295
M  V30 299 1 109 296
M  V30 300 1 112 297
M  V30 301 1 113 298 CFG=3
M  V30 302 1 114 299
M  V30 303 1 114 300
M  V30 304 1 115 301
M  V30 305 1 115 302
M  V30 306 1 116 303
M  V30 307 1 116 304
M  V30 308 1 117 305
M  V30 309 1 119 306
M  V30 310 1 120 307
M  V30 311 1 120 308
M  V30 312 1 123 309
M  V30 313 1 124 310 CFG=3
M  V30 314 1 125 311
M  V30 315 1 125 312
M  V30 316 1 126 313
M  V30 317 1 126 314
M  V30 318 1 128 315
M  V30 319 1 128 316
M  V30 320 1 132 317
M  V30 321 1 133 318 CFG=1
M  V30 322 1 134 319
M  V30 323 1 134 320
M  V30 324 1 135 321
M  V30 325 1 135 322
M  V30 326 1 136 323
M  V30 327 1 136 324
M  V30 328 1 137 325
M  V30 329 1 139 326
M  V30 330 1 140 327
M  V30 331 1 140 328
M  V30 332 1 143 329
M  V30 333 1 144 330 CFG=3
M  V30 334 1 145 331
M  V30 335 1 145 332
M  V30 336 1 146 333
M  V30 337 1 146 334
M  V30 338 1 147 335
M  V30 339 1 147 336
M  V30 340 1 148 337
M  V30 341 1 150 338
M  V30 342 1 151 339
M  V30 343 1 151 340
M  V30 344 1 154 341
M  V30 345 1 155 342 CFG=3
M  V30 346 1 156 343
M  V30 347 1 156 344
M  V30 348 1 157 345
M  V30 349 1 157 346
M  V30 350 1 158 347
M  V30 351 1 158 348
M  V30 352 1 159 349
M  V30 353 1 159 350
M  V30 354 1 160 351
M  V30 355 1 160 352
M  V30 356 1 163 353
M  V30 357 1 164 354 CFG=3
M  V30 358 1 165 355
M  V30 359 1 165 356
M  V30 360 1 166 357
M  V30 361 1 166 358
M  V30 362 1 167 359
M  V30 363 1 167 360
M  V30 364 1 168 361
M  V30 365 1 168 362
M  V30 366 1 169 363
M  V30 367 1 169 364
M  V30 368 1 172 365
M  V30 369 1 173 366 CFG=1
M  V30 370 1 174 367
M  V30 371 1 174 368
M  V30 372 1 175 369
M  V30 373 1 175 370
M  V30 374 1 176 371
M  V30 375 1 176 372
M  V30 376 1 177 373
M  V30 377 1 179 374
M  V30 378 1 180 375
M  V30 379 1 180 376
M  V30 380 1 183 377
M  V30 381 1 184 378
M  V30 382 1 184 379
M  V30 383 1 186 380
M  V30 384 1 186 381
M  V30 385 1 188 382 CFG=3
M  V30 386 1 189 383
M  V30 387 1 189 384
M  V30 388 1 189 385
M  V30 389 1 190 386
M  V30 390 1 191 387 CFG=1
M  V30 391 1 192 388
M  V30 392 1 192 389
M  V30 393 1 192 390
M  V30 394 1 193 391
M  V30 END BOND
M  V30 END CTAB
M  END
>  <Dataset>  (990) 
ChEMBL_Kinases

>  <Ligand_Instance>  (990) 
nan

>  <PDB_ID>  (990) 
nan

>  <Standardized_SMILES>  (990) 
CC(C)C[C@@H](NC(=O)CNC(=O)CNC(=O)CCCNC(=O)c1ccc(-c2n[nH]c3ccccc23)cc1)C(=O)N[C@H](CC(N)=O)C(=O)N[C@H](CC(C)C)C(=O)N[C@@H](C(=O)N[C@@H](C(=O)N1CCC[C@@H]1C(=O)N[C@H](CCCNC(=N)N)C(=O)NCC(=O)NCC(=O)N[C@H](CCCNC(=N)N)C(=O)N[C@H](CCCNC(=N)N)C(=O)N[C@H](CCCNC(=N)N)C(=O)N[C@H](CCC(N)=O)C(=O)N[C@H](CCCNC(=N)N)C(=O)N[C@H](CCCNC(=N)N)C(=O)N[C@H](CCCCN)C(=O)N[C@H](CCCCN)C(=O)N[C@H](CCCNC(=N)N)C(=O)NCC(N)=O)[C@H](C)O)[C@H](C)O

>  <Name>  (990) 
nan

>  <Pocket>  (990) 
nan

>  <ATP_Site>  (990) 
nan

>  <Peripheral>  (990) 
nan

>  <Num_H_Atoms_ProtBoundConf>  (990) 
nan

>  <Num_Resolved_Atoms>  (990) 
nan

>  <Num_Not_Resolved_Atoms>  (990) 
nan

$$$$
CHEMBL1822211
     RDKit          3D

  0  0  0  0  0  0  0  0  0  0999 V3000
M  V30 BEGIN CTAB
M  V30 COUNTS 40 43 0 0 0
M  V30 BEGIN ATOM
M  V30 1 N 2.229550 -7.232588 -0.602879 0
M  V30 2 C 2.055678 -5.818453 -0.587975 0
M  V30 3 N 2.727633 -5.015793 0.271484 0
M  V30 4 C 2.372738 -3.731104 0.067478 0
M  V30 5 C 2.788088 -2.580934 0.694292 0
M  V30 6 C 2.235896 -1.391180 0.258390 0
M  V30 7 C 1.298084 -1.386135 -0.776446 0
M  V30 8 C 0.767031 -0.084858 -1.172178 0
M  V30 9 C 0.394159 0.126712 -2.478079 0
M  V30 10 N -0.090836 1.336633 -2.808310 0
M  V30 11 C -0.222126 2.333002 -1.918694 0
M  V30 12 Cl -0.869317 3.902137 -2.425825 0
M  V30 13 C 0.131314 2.208777 -0.568825 0
M  V30 14 N 0.010529 3.228150 0.380429 0
M  V30 15 S 0.181759 3.130025 2.065178 0
M  V30 16 O 1.555296 2.673152 2.488896 0
M  V30 17 O 0.028038 4.504303 2.685133 0
M  V30 18 C -0.956053 2.082212 2.855397 0
M  V30 19 C -0.808524 0.763737 3.186450 0
M  V30 20 C -1.765885 -0.002871 3.810834 0
M  V30 21 C -2.978151 0.618985 4.127932 0
M  V30 22 F -3.913409 -0.157095 4.746098 0
M  V30 23 C -3.184540 1.930074 3.823629 0
M  V30 24 C -2.192204 2.645102 3.199999 0
M  V30 25 C 0.625974 0.948806 -0.270558 0
M  V30 26 C 0.911243 -2.582579 -1.378504 0
M  V30 27 C 1.451822 -3.781396 -0.956805 0
M  V30 28 O 1.299626 -5.035520 -1.308357 0
M  V30 29 H 2.463388 -7.754620 0.247619 0
M  V30 30 H 2.104347 -7.697681 -1.527622 0
M  V30 31 H 3.519068 -2.578782 1.501758 0
M  V30 32 H 2.578961 -0.495933 0.768148 0
M  V30 33 H 0.492750 -0.662615 -3.205787 0
M  V30 34 H -0.219263 4.173433 -0.052266 0
M  V30 35 H 0.143211 0.326887 2.926481 0
M  V30 36 H -1.546311 -1.047815 4.030592 0
M  V30 37 H -4.142127 2.399803 4.080466 0
M  V30 38 H -2.402949 3.699345 2.973968 0
M  V30 39 H 0.937472 0.715931 0.723847 0
M  V30 40 H 0.191519 -2.557697 -2.169561 0
M  V30 END ATOM
M  V30 BEGIN BOND
M  V30 1 1 1 2
M  V30 2 2 2 3
M  V30 3 1 3 4
M  V30 4 2 4 5
M  V30 5 1 5 6
M  V30 6 2 6 7
M  V30 7 1 7 8
M  V30 8 2 8 9
M  V30 9 1 9 10
M  V30 10 2 10 11
M  V30 11 1 11 12
M  V30 12 1 11 13
M  V30 13 1 13 14
M  V30 14 1 14 15
M  V30 15 2 15 16
M  V30 16 2 15 17
M  V30 17 1 15 18
M  V30 18 2 18 19
M  V30 19 1 19 20
M  V30 20 2 20 21
M  V30 21 1 21 22
M  V30 22 1 21 23
M  V30 23 2 23 24
M  V30 24 2 13 25
M  V30 25 1 7 26
M  V30 26 2 26 27
M  V30 27 1 27 28
M  V30 28 1 28 2
M  V30 29 1 27 4
M  V30 30 1 25 8
M  V30 31 1 24 18
M  V30 32 1 1 29
M  V30 33 1 1 30
M  V30 34 1 5 31
M  V30 35 1 6 32
M  V30 36 1 9 33
M  V30 37 1 14 34
M  V30 38 1 19 35
M  V30 39 1 20 36
M  V30 40 1 23 37
M  V30 41 1 24 38
M  V30 42 1 25 39
M  V30 43 1 26 40
M  V30 END BOND
M  V30 END CTAB
M  END
>  <Dataset>  (991) 
ChEMBL_Kinases

>  <Ligand_Instance>  (991) 
nan

>  <PDB_ID>  (991) 
nan

>  <Standardized_SMILES>  (991) 
Nc1nc2ccc(-c3cnc(Cl)c(NS(=O)(=O)c4ccc(F)cc4)c3)cc2o1

>  <Name>  (991) 
nan

>  <Pocket>  (991) 
nan

>  <ATP_Site>  (991) 
nan

>  <Peripheral>  (991) 
nan

>  <Num_H_Atoms_ProtBoundConf>  (991) 
nan

>  <Num_Resolved_Atoms>  (991) 
nan

>  <Num_Not_Resolved_Atoms>  (991) 
nan

$$$$
CHEMBL1822210
     RDKit          3D

  0  0  0  0  0  0  0  0  0  0999 V3000
M  V30 BEGIN CTAB
M  V30 COUNTS 45 48 0 0 0
M  V30 BEGIN ATOM
M  V30 1 C -4.943022 -1.224444 7.172144 0
M  V30 2 C -3.994155 -0.834233 6.100711 0
M  V30 3 O -4.342661 -0.064629 5.141145 0
M  V30 4 N -2.652250 -1.307837 6.105011 0
M  V30 5 C -1.657977 -1.000106 5.132118 0
M  V30 6 N -0.371500 -1.357001 4.988429 0
M  V30 7 C 0.153906 -0.795643 3.884599 0
M  V30 8 C 1.356636 -0.765119 3.211979 0
M  V30 9 C 1.551748 -0.045878 2.046666 0
M  V30 10 C 0.477171 0.667432 1.552240 0
M  V30 11 C 0.603164 1.452006 0.323349 0
M  V30 12 C -0.147082 2.605012 0.157694 0
M  V30 13 N -0.011421 3.300504 -0.983744 0
M  V30 14 C 0.816432 2.934686 -1.975210 0
M  V30 15 Cl 0.938512 3.903902 -3.445890 0
M  V30 16 C 1.610581 1.782942 -1.888081 0
M  V30 17 N 2.497659 1.376505 -2.922883 0
M  V30 18 S 3.504012 0.003377 -2.987612 0
M  V30 19 O 4.286527 0.047158 -4.292547 0
M  V30 20 O 4.544846 0.057699 -1.897258 0
M  V30 21 C 2.655044 -1.518968 -2.933837 0
M  V30 22 C 2.136127 -2.005045 -4.141433 0
M  V30 23 C 1.456283 -3.198852 -4.241383 0
M  V30 24 C 1.286234 -3.935149 -3.100418 0
M  V30 25 F 0.621687 -5.100863 -3.203624 0
M  V30 26 C 1.764725 -3.530436 -1.870612 0
M  V30 27 C 2.428381 -2.337047 -1.849629 0
M  V30 28 C 1.447790 1.100619 -0.715753 0
M  V30 29 C -0.773013 0.688144 2.173598 0
M  V30 30 C -0.903816 -0.058594 3.346355 0
M  V30 31 O -1.979881 -0.199160 4.115871 0
M  V30 32 H -5.978024 -1.090263 6.783402 0
M  V30 33 H -4.814969 -2.317332 7.365159 0
M  V30 34 H -4.856580 -0.638881 8.090992 0
M  V30 35 H -2.400809 -1.931838 6.901944 0
M  V30 36 H 2.137352 -1.353959 3.674561 0
M  V30 37 H 2.507910 -0.053480 1.556236 0
M  V30 38 H -0.818654 2.900949 0.963140 0
M  V30 39 H 2.499043 2.052947 -3.748098 0
M  V30 40 H 2.262866 -1.429661 -5.056297 0
M  V30 41 H 1.085345 -3.510513 -5.203247 0
M  V30 42 H 1.636776 -4.098475 -0.974372 0
M  V30 43 H 2.827702 -1.977795 -0.919744 0
M  V30 44 H 2.004564 0.201914 -0.527717 0
M  V30 45 H -1.624370 1.232404 1.812192 0
M  V30 END ATOM
M  V30 BEGIN BOND
M  V30 1 1 1 2
M  V30 2 2 2 3
M  V30 3 1 2 4
M  V30 4 1 4 5
M  V30 5 2 5 6
M  V30 6 1 6 7
M  V30 7 2 7 8
M  V30 8 1 8 9
M  V30 9 2 9 10
M  V30 10 1 10 11
M  V30 11 2 11 12
M  V30 12 1 12 13
M  V30 13 2 13 14
M  V30 14 1 14 15
M  V30 15 1 14 16
M  V30 16 1 16 17
M  V30 17 1 17 18
M  V30 18 2 18 19
M  V30 19 2 18 20
M  V30 20 1 18 21
M  V30 21 2 21 22
M  V30 22 1 22 23
M  V30 23 2 23 24
M  V30 24 1 24 25
M  V30 25 1 24 26
M  V30 26 2 26 27
M  V30 27 2 16 28
M  V30 28 1 10 29
M  V30 29 2 29 30
M  V30 30 1 30 31
M  V30 31 1 31 5
M  V30 32 1 30 7
M  V30 33 1 28 11
M  V30 34 1 27 21
M  V30 35 1 1 32
M  V30 36 1 1 33
M  V30 37 1 1 34
M  V30 38 1 4 35
M  V30 39 1 8 36
M  V30 40 1 9 37
M  V30 41 1 12 38
M  V30 42 1 17 39
M  V30 43 1 22 40
M  V30 44 1 23 41
M  V30 45 1 26 42
M  V30 46 1 27 43
M  V30 47 1 28 44
M  V30 48 1 29 45
M  V30 END BOND
M  V30 END CTAB
M  END
>  <Dataset>  (992) 
ChEMBL_Kinases

>  <Ligand_Instance>  (992) 
nan

>  <PDB_ID>  (992) 
nan

>  <Standardized_SMILES>  (992) 
CC(=O)Nc1nc2ccc(-c3cnc(Cl)c(NS(=O)(=O)c4ccc(F)cc4)c3)cc2o1

>  <Name>  (992) 
nan

>  <Pocket>  (992) 
nan

>  <ATP_Site>  (992) 
nan

>  <Peripheral>  (992) 
nan

>  <Num_H_Atoms_ProtBoundConf>  (992) 
nan

>  <Num_Resolved_Atoms>  (992) 
nan

>  <Num_Not_Resolved_Atoms>  (992) 
nan

$$$$
CHEMBL1822060
     RDKit          3D

  0  0  0  0  0  0  0  0  0  0999 V3000
M  V30 BEGIN CTAB
M  V30 COUNTS 46 49 0 0 0
M  V30 BEGIN ATOM
M  V30 1 C 5.487020 -4.762754 4.240875 0
M  V30 2 C 4.801856 -3.703023 3.472661 0
M  V30 3 O 3.638617 -3.486305 3.954194 0
M  V30 4 N 5.217324 -2.933134 2.344439 0
M  V30 5 C 4.314194 -1.965047 1.815926 0
M  V30 6 N 4.395679 -0.724500 2.333822 0
M  V30 7 C 3.478759 0.082966 1.734697 0
M  V30 8 C 3.099640 1.418999 1.841468 0
M  V30 9 C 2.082987 1.864225 1.017351 0
M  V30 10 C 1.450635 1.011789 0.104995 0
M  V30 11 C 0.403938 1.665992 -0.675690 0
M  V30 12 C 0.509549 3.001829 -1.003104 0
M  V30 13 N -0.465789 3.581544 -1.722497 0
M  V30 14 C -1.548207 2.908036 -2.139220 0
M  V30 15 Cl -2.785326 3.747513 -3.081547 0
M  V30 16 C -1.741385 1.561354 -1.858174 0
M  V30 17 N -2.882860 0.851427 -2.304153 0
M  V30 18 S -3.385037 -0.726476 -1.822617 0
M  V30 19 O -4.546211 -1.177817 -2.643267 0
M  V30 20 O -2.239879 -1.654485 -2.188493 0
M  V30 21 C -3.740461 -0.827683 -0.113469 0
M  V30 22 C -5.063680 -0.457422 0.161536 0
M  V30 23 C -5.578624 -0.462202 1.449479 0
M  V30 24 C -4.767240 -0.842516 2.496384 0
M  V30 25 F -5.169093 -0.882920 3.795953 0
M  V30 26 C -3.465324 -1.205888 2.218747 0
M  V30 27 C -2.954161 -1.203036 0.954558 0
M  V30 28 C -0.721238 1.002952 -1.119642 0
M  V30 29 C 1.819835 -0.314525 -0.007769 0
M  V30 30 C 2.847176 -0.752563 0.829240 0
M  V30 31 N 3.352868 -2.000238 0.875628 0
M  V30 32 H 4.887848 -5.691444 4.110648 0
M  V30 33 H 6.521413 -4.938921 3.865881 0
M  V30 34 H 5.570966 -4.558475 5.315892 0
M  V30 35 H 6.182899 -3.269522 2.121086 0
M  V30 36 H 3.608071 2.038106 2.551728 0
M  V30 37 H 1.839478 2.908244 1.151663 0
M  V30 38 H 1.352945 3.612259 -0.703543 0
M  V30 39 H -3.486711 1.362828 -3.015211 0
M  V30 40 H -5.816936 -0.134322 -0.573657 0
M  V30 41 H -6.578979 -0.187907 1.702826 0
M  V30 42 H -2.743503 -1.521936 2.974155 0
M  V30 43 H -1.958439 -1.470224 0.632025 0
M  V30 44 H -0.775098 -0.038884 -0.851594 0
M  V30 45 H 1.298846 -0.905458 -0.719806 0
M  V30 46 H 3.139935 -2.866904 0.363501 0
M  V30 END ATOM
M  V30 BEGIN BOND
M  V30 1 1 1 2
M  V30 2 2 2 3
M  V30 3 1 2 4
M  V30 4 1 4 5
M  V30 5 2 5 6
M  V30 6 1 6 7
M  V30 7 2 7 8
M  V30 8 1 8 9
M  V30 9 2 9 10
M  V30 10 1 10 11
M  V30 11 2 11 12
M  V30 12 1 12 13
M  V30 13 2 13 14
M  V30 14 1 14 15
M  V30 15 1 14 16
M  V30 16 1 16 17
M  V30 17 1 17 18
M  V30 18 2 18 19
M  V30 19 2 18 20
M  V30 20 1 18 21
M  V30 21 2 21 22
M  V30 22 1 22 23
M  V30 23 2 23 24
M  V30 24 1 24 25
M  V30 25 1 24 26
M  V30 26 2 26 27
M  V30 27 2 16 28
M  V30 28 1 10 29
M  V30 29 2 29 30
M  V30 30 1 30 31
M  V30 31 1 31 5
M  V30 32 1 30 7
M  V30 33 1 28 11
M  V30 34 1 27 21
M  V30 35 1 1 32
M  V30 36 1 1 33
M  V30 37 1 1 34
M  V30 38 1 4 35
M  V30 39 1 8 36
M  V30 40 1 9 37
M  V30 41 1 12 38
M  V30 42 1 17 39
M  V30 43 1 22 40
M  V30 44 1 23 41
M  V30 45 1 26 42
M  V30 46 1 27 43
M  V30 47 1 28 44
M  V30 48 1 29 45
M  V30 49 1 31 46
M  V30 END BOND
M  V30 END CTAB
M  END
>  <Dataset>  (993) 
ChEMBL_Kinases

>  <Ligand_Instance>  (993) 
nan

>  <PDB_ID>  (993) 
nan

>  <Standardized_SMILES>  (993) 
CC(=O)Nc1nc2ccc(-c3cnc(Cl)c(NS(=O)(=O)c4ccc(F)cc4)c3)cc2[nH]1

>  <Name>  (993) 
nan

>  <Pocket>  (993) 
nan

>  <ATP_Site>  (993) 
nan

>  <Peripheral>  (993) 
nan

>  <Num_H_Atoms_ProtBoundConf>  (993) 
nan

>  <Num_Resolved_Atoms>  (993) 
nan

>  <Num_Not_Resolved_Atoms>  (993) 
nan

$$$$
CHEMBL1822059
     RDKit          3D

  0  0  0  0  0  0  0  0  0  0999 V3000
M  V30 BEGIN CTAB
M  V30 COUNTS 39 42 0 0 0
M  V30 BEGIN ATOM
M  V30 1 O 1.524926 -1.112104 4.108646 0
M  V30 2 S 1.574490 -2.488694 3.458644 0
M  V30 3 O 2.175144 -3.403207 4.497951 0
M  V30 4 N 2.628185 -2.467756 2.092716 0
M  V30 5 C 2.476631 -1.698473 0.909550 0
M  V30 6 C 1.577030 -0.656868 0.814276 0
M  V30 7 C 1.407600 0.113819 -0.315325 0
M  V30 8 C 0.460292 1.216419 -0.428505 0
M  V30 9 C -0.755984 1.203380 0.264277 0
M  V30 10 C -1.577309 2.296359 0.084572 0
M  V30 11 C -1.273417 3.374919 -0.720430 0
M  V30 12 N -1.868776 4.530954 -1.064938 0
M  V30 13 C -1.084747 5.213375 -1.907723 0
M  V30 14 C 0.062067 4.473456 -2.118513 0
M  V30 15 N -0.080762 3.357358 -1.381865 0
M  V30 16 C 0.749833 2.308586 -1.233418 0
M  V30 17 C 2.168257 -0.143135 -1.441073 0
M  V30 18 N 3.045656 -1.158918 -1.347662 0
M  V30 19 C 3.222313 -1.919044 -0.254186 0
M  V30 20 Cl 4.401846 -3.218437 -0.257398 0
M  V30 21 C -0.033200 -3.038426 3.067800 0
M  V30 22 C -0.205982 -4.428404 3.114751 0
M  V30 23 C -1.432858 -4.996860 2.830060 0
M  V30 24 C -2.529260 -4.243297 2.491910 0
M  V30 25 F -3.747014 -4.762521 2.206276 0
M  V30 26 C -2.351349 -2.884832 2.448671 0
M  V30 27 C -1.145694 -2.304869 2.727019 0
M  V30 28 H 3.499893 -3.078549 2.084931 0
M  V30 29 H 0.950821 -0.386372 1.638101 0
M  V30 30 H -1.022369 0.370681 0.903984 0
M  V30 31 H -2.534781 2.363025 0.584657 0
M  V30 32 H -1.301704 6.187820 -2.358812 0
M  V30 33 H 0.891516 4.761595 -2.755353 0
M  V30 34 H 1.688869 2.278313 -1.744915 0
M  V30 35 H 2.143369 0.372636 -2.385651 0
M  V30 36 H 0.596577 -5.111588 3.371133 0
M  V30 37 H -1.547388 -6.071617 2.871259 0
M  V30 38 H -3.182450 -2.233281 2.186709 0
M  V30 39 H -0.983306 -1.256248 2.703991 0
M  V30 END ATOM
M  V30 BEGIN BOND
M  V30 1 2 1 2
M  V30 2 2 2 3
M  V30 3 1 2 4
M  V30 4 1 4 5
M  V30 5 2 5 6
M  V30 6 1 6 7
M  V30 7 1 7 8
M  V30 8 1 8 9
M  V30 9 2 9 10
M  V30 10 1 10 11
M  V30 11 2 11 12
M  V30 12 1 12 13
M  V30 13 2 13 14
M  V30 14 1 14 15
M  V30 15 1 15 16
M  V30 16 2 7 17
M  V30 17 1 17 18
M  V30 18 2 18 19
M  V30 19 1 19 20
M  V30 20 1 2 21
M  V30 21 2 21 22
M  V30 22 1 22 23
M  V30 23 2 23 24
M  V30 24 1 24 25
M  V30 25 1 24 26
M  V30 26 2 26 27
M  V30 27 1 19 5
M  V30 28 1 27 21
M  V30 29 2 16 8
M  V30 30 1 15 11
M  V30 31 1 4 28
M  V30 32 1 6 29
M  V30 33 1 9 30
M  V30 34 1 10 31
M  V30 35 1 13 32
M  V30 36 1 14 33
M  V30 37 1 16 34
M  V30 38 1 17 35
M  V30 39 1 22 36
M  V30 40 1 23 37
M  V30 41 1 26 38
M  V30 42 1 27 39
M  V30 END BOND
M  V30 END CTAB
M  END
>  <Dataset>  (994) 
ChEMBL_Kinases

>  <Ligand_Instance>  (994) 
nan

>  <PDB_ID>  (994) 
nan

>  <Standardized_SMILES>  (994) 
O=S(=O)(Nc1cc(-c2ccc3nccn3c2)cnc1Cl)c1ccc(F)cc1

>  <Name>  (994) 
nan

>  <Pocket>  (994) 
nan

>  <ATP_Site>  (994) 
nan

>  <Peripheral>  (994) 
nan

>  <Num_H_Atoms_ProtBoundConf>  (994) 
nan

>  <Num_Resolved_Atoms>  (994) 
nan

>  <Num_Not_Resolved_Atoms>  (994) 
nan

$$$$
CHEMBL1822057
     RDKit          3D

  0  0  0  0  0  0  0  0  0  0999 V3000
M  V30 BEGIN CTAB
M  V30 COUNTS 46 49 0 0 0
M  V30 BEGIN ATOM
M  V30 1 C 5.249604 -3.285252 6.573904 0
M  V30 2 C 4.329988 -2.872653 5.477732 0
M  V30 3 O 3.537362 -3.738582 5.045156 0
M  V30 4 N 4.447907 -1.520318 5.029171 0
M  V30 5 C 3.646962 -0.950884 3.986897 0
M  V30 6 C 2.432329 -0.298063 4.064411 0
M  V30 7 N 2.051276 0.069480 2.812007 0
M  V30 8 C 0.940309 0.725020 2.420183 0
M  V30 9 C 0.719985 1.014290 1.090561 0
M  V30 10 C -0.468673 1.724362 0.612399 0
M  V30 11 C -1.126133 2.691707 1.354875 0
M  V30 12 N -2.210035 3.292346 0.841583 0
M  V30 13 C -2.695744 3.005583 -0.359421 0
M  V30 14 Cl -4.132134 3.845445 -0.962791 0
M  V30 15 C -2.111520 2.045636 -1.194186 0
M  V30 16 N -2.594927 1.711529 -2.486106 0
M  V30 17 S -2.133839 0.427052 -3.501884 0
M  V30 18 O -0.667012 0.533245 -3.904191 0
M  V30 19 O -2.894073 0.498970 -4.794513 0
M  V30 20 C -2.438952 -1.157343 -2.807720 0
M  V30 21 C -3.727595 -1.667748 -2.990645 0
M  V30 22 C -4.176561 -2.899168 -2.530110 0
M  V30 23 C -3.254730 -3.670275 -1.833763 0
M  V30 24 F -3.609243 -4.884425 -1.349940 0
M  V30 25 C -1.993590 -3.187450 -1.646529 0
M  V30 26 C -1.551389 -1.961733 -2.106601 0
M  V30 27 C -1.014034 1.453988 -0.646388 0
M  V30 28 C 1.679477 0.610675 0.151168 0
M  V30 29 C 2.788515 -0.054974 0.630449 0
M  V30 30 C 3.028879 -0.354599 1.954985 0
M  V30 31 N 3.993342 -0.971252 2.664421 0
M  V30 32 H 5.168950 -2.511308 7.363539 0
M  V30 33 H 4.943993 -4.246970 7.035229 0
M  V30 34 H 6.307177 -3.318015 6.251128 0
M  V30 35 H 5.142220 -0.865105 5.451220 0
M  V30 36 H 1.960915 -0.163859 5.031708 0
M  V30 37 H 0.219541 1.025225 3.151473 0
M  V30 38 H -0.753623 2.937630 2.322259 0
M  V30 39 H -3.347094 2.386731 -2.820906 0
M  V30 40 H -4.472436 -1.089150 -3.531019 0
M  V30 41 H -5.181525 -3.224626 -2.708975 0
M  V30 42 H -1.214080 -3.738154 -1.108230 0
M  V30 43 H -0.568183 -1.536053 -1.989449 0
M  V30 44 H -0.478947 0.699535 -1.202567 0
M  V30 45 H 1.536397 0.821507 -0.897105 0
M  V30 46 H 3.579241 -0.398472 -0.055519 0
M  V30 END ATOM
M  V30 BEGIN BOND
M  V30 1 1 1 2
M  V30 2 2 2 3
M  V30 3 1 2 4
M  V30 4 1 4 5
M  V30 5 2 5 6
M  V30 6 1 6 7
M  V30 7 1 7 8
M  V30 8 2 8 9
M  V30 9 1 9 10
M  V30 10 2 10 11
M  V30 11 1 11 12
M  V30 12 2 12 13
M  V30 13 1 13 14
M  V30 14 1 13 15
M  V30 15 1 15 16
M  V30 16 1 16 17
M  V30 17 2 17 18
M  V30 18 2 17 19
M  V30 19 1 17 20
M  V30 20 2 20 21
M  V30 21 1 21 22
M  V30 22 2 22 23
M  V30 23 1 23 24
M  V30 24 1 23 25
M  V30 25 2 25 26
M  V30 26 2 15 27
M  V30 27 1 9 28
M  V30 28 2 28 29
M  V30 29 1 29 30
M  V30 30 2 30 31
M  V30 31 1 31 5
M  V30 32 1 30 7
M  V30 33 1 27 10
M  V30 34 1 26 20
M  V30 35 1 1 32
M  V30 36 1 1 33
M  V30 37 1 1 34
M  V30 38 1 4 35
M  V30 39 1 6 36
M  V30 40 1 8 37
M  V30 41 1 11 38
M  V30 42 1 16 39
M  V30 43 1 21 40
M  V30 44 1 22 41
M  V30 45 1 25 42
M  V30 46 1 26 43
M  V30 47 1 27 44
M  V30 48 1 28 45
M  V30 49 1 29 46
M  V30 END BOND
M  V30 END CTAB
M  END
>  <Dataset>  (995) 
ChEMBL_Kinases

>  <Ligand_Instance>  (995) 
nan

>  <PDB_ID>  (995) 
nan

>  <Standardized_SMILES>  (995) 
CC(=O)Nc1cn2cc(-c3cnc(Cl)c(NS(=O)(=O)c4ccc(F)cc4)c3)ccc2n1

>  <Name>  (995) 
nan

>  <Pocket>  (995) 
nan

>  <ATP_Site>  (995) 
nan

>  <Peripheral>  (995) 
nan

>  <Num_H_Atoms_ProtBoundConf>  (995) 
nan

>  <Num_Resolved_Atoms>  (995) 
nan

>  <Num_Not_Resolved_Atoms>  (995) 
nan

$$$$
CHEMBL1822056
     RDKit          3D

  0  0  0  0  0  0  0  0  0  0999 V3000
M  V30 BEGIN CTAB
M  V30 COUNTS 38 41 0 0 0
M  V30 BEGIN ATOM
M  V30 1 O 0.320919 -4.100954 4.189237 0
M  V30 2 S 0.172899 -2.999806 3.176592 0
M  V30 3 O -1.327346 -2.815902 3.023304 0
M  V30 4 N 0.926369 -1.593322 3.768823 0
M  V30 5 C 1.011182 -0.308963 3.172284 0
M  V30 6 C 0.230092 0.010402 2.080080 0
M  V30 7 C 0.239904 1.213551 1.446865 0
M  V30 8 C -0.575891 1.570599 0.292777 0
M  V30 9 C -1.467272 0.693007 -0.289249 0
M  V30 10 C -2.259372 0.994627 -1.386068 0
M  V30 11 C -2.148430 2.266928 -1.936992 0
M  V30 12 N -2.705615 2.948920 -2.960421 0
M  V30 13 C -2.175439 4.189083 -2.999176 0
M  V30 14 C -1.245414 4.298454 -1.959713 0
M  V30 15 N -1.266156 3.101069 -1.342395 0
M  V30 16 N -0.523581 2.782735 -0.295094 0
M  V30 17 C 1.097146 2.193168 1.933027 0
M  V30 18 N 1.871326 1.914531 2.995535 0
M  V30 19 C 1.847135 0.728823 3.602328 0
M  V30 20 Cl 2.868137 0.401737 4.981803 0
M  V30 21 C 0.858183 -3.561556 1.679626 0
M  V30 22 C 1.969274 -4.406863 1.776050 0
M  V30 23 C 2.635821 -4.948223 0.716016 0
M  V30 24 C 2.181071 -4.639685 -0.544799 0
M  V30 25 F 2.778814 -5.129778 -1.653235 0
M  V30 26 C 1.085833 -3.808386 -0.699756 0
M  V30 27 C 0.451709 -3.290334 0.410203 0
M  V30 28 H 1.420656 -1.611238 4.712312 0
M  V30 29 H -0.429745 -0.727667 1.703345 0
M  V30 30 H -1.592974 -0.290437 0.089332 0
M  V30 31 H -2.950042 0.317329 -1.838474 0
M  V30 32 H -2.480727 4.909432 -3.745784 0
M  V30 33 H -0.674510 5.181525 -1.759047 0
M  V30 34 H 1.166106 3.169675 1.491125 0
M  V30 35 H 2.366271 -4.679738 2.761774 0
M  V30 36 H 3.490009 -5.596373 0.847397 0
M  V30 37 H 0.704465 -3.547016 -1.671045 0
M  V30 38 H -0.396090 -2.650489 0.313592 0
M  V30 END ATOM
M  V30 BEGIN BOND
M  V30 1 2 1 2
M  V30 2 2 2 3
M  V30 3 1 2 4
M  V30 4 1 4 5
M  V30 5 2 5 6
M  V30 6 1 6 7
M  V30 7 1 7 8
M  V30 8 1 8 9
M  V30 9 2 9 10
M  V30 10 1 10 11
M  V30 11 2 11 12
M  V30 12 1 12 13
M  V30 13 2 13 14
M  V30 14 1 14 15
M  V30 15 1 15 16
M  V30 16 2 7 17
M  V30 17 1 17 18
M  V30 18 2 18 19
M  V30 19 1 19 20
M  V30 20 1 2 21
M  V30 21 2 21 22
M  V30 22 1 22 23
M  V30 23 2 23 24
M  V30 24 1 24 25
M  V30 25 1 24 26
M  V30 26 2 26 27
M  V30 27 1 19 5
M  V30 28 1 27 21
M  V30 29 2 16 8
M  V30 30 1 15 11
M  V30 31 1 4 28
M  V30 32 1 6 29
M  V30 33 1 9 30
M  V30 34 1 10 31
M  V30 35 1 13 32
M  V30 36 1 14 33
M  V30 37 1 17 34
M  V30 38 1 22 35
M  V30 39 1 23 36
M  V30 40 1 26 37
M  V30 41 1 27 38
M  V30 END BOND
M  V30 END CTAB
M  END
>  <Dataset>  (996) 
ChEMBL_Kinases

>  <Ligand_Instance>  (996) 
nan

>  <PDB_ID>  (996) 
nan

>  <Standardized_SMILES>  (996) 
O=S(=O)(Nc1cc(-c2ccc3nccn3n2)cnc1Cl)c1ccc(F)cc1

>  <Name>  (996) 
nan

>  <Pocket>  (996) 
nan

>  <ATP_Site>  (996) 
nan

>  <Peripheral>  (996) 
nan

>  <Num_H_Atoms_ProtBoundConf>  (996) 
nan

>  <Num_Resolved_Atoms>  (996) 
nan

>  <Num_Not_Resolved_Atoms>  (996) 
nan

$$$$
CHEMBL1822055
     RDKit          3D

  0  0  0  0  0  0  0  0  0  0999 V3000
M  V30 BEGIN CTAB
M  V30 COUNTS 40 43 0 0 0
M  V30 BEGIN ATOM
M  V30 1 N 0.503161 -4.959138 4.860314 0
M  V30 2 C 1.037337 -4.292561 3.710072 0
M  V30 3 C 0.740748 -2.996637 3.311733 0
M  V30 4 N 1.440735 -2.729497 2.181895 0
M  V30 5 N 1.492592 -1.640327 1.432581 0
M  V30 6 C 2.267918 -1.573222 0.323542 0
M  V30 7 C 2.313402 -0.363799 -0.491877 0
M  V30 8 C 3.071319 -0.206956 -1.632829 0
M  V30 9 N 3.040547 0.952782 -2.312361 0
M  V30 10 C 2.285614 1.992179 -1.920268 0
M  V30 11 Cl 2.250565 3.513454 -2.818922 0
M  V30 12 C 1.490295 1.923251 -0.782746 0
M  V30 13 N 0.663909 2.968409 -0.286559 0
M  V30 14 S -0.542183 2.901073 0.910489 0
M  V30 15 O 0.041423 2.530156 2.271787 0
M  V30 16 O -1.095105 4.284394 1.119085 0
M  V30 17 C -1.877467 1.841077 0.520924 0
M  V30 18 C -2.065694 0.515988 0.849737 0
M  V30 19 C -3.194098 -0.149771 0.438248 0
M  V30 20 C -4.187806 0.418710 -0.301985 0
M  V30 21 F -5.256179 -0.327528 -0.653682 0
M  V30 22 C -4.038074 1.728243 -0.646977 0
M  V30 23 C -2.906937 2.412395 -0.240076 0
M  V30 24 C 1.547799 0.718432 -0.111637 0
M  V30 25 C 2.996216 -2.704697 0.025267 0
M  V30 26 C 2.937926 -3.831316 0.806737 0
M  V30 27 C 2.135713 -3.839108 1.915871 0
M  V30 28 N 1.908003 -4.800905 2.827961 0
M  V30 29 H 0.797682 -4.729300 5.833482 0
M  V30 30 H -0.203487 -5.684541 4.556213 0
M  V30 31 H 0.058915 -2.322401 3.830635 0
M  V30 32 H 3.682174 -1.036174 -1.957552 0
M  V30 33 H 0.884926 3.889531 -0.775076 0
M  V30 34 H -1.261554 0.102056 1.437626 0
M  V30 35 H -3.216665 -1.196751 0.768249 0
M  V30 36 H -4.797185 2.216843 -1.230152 0
M  V30 37 H -2.855512 3.457307 -0.553298 0
M  V30 38 H 0.954068 0.626361 0.769798 0
M  V30 39 H 3.638925 -2.733193 -0.841722 0
M  V30 40 H 3.519516 -4.723264 0.561302 0
M  V30 END ATOM
M  V30 BEGIN BOND
M  V30 1 1 1 2
M  V30 2 2 2 3
M  V30 3 1 3 4
M  V30 4 1 4 5
M  V30 5 2 5 6
M  V30 6 1 6 7
M  V30 7 2 7 8
M  V30 8 1 8 9
M  V30 9 2 9 10
M  V30 10 1 10 11
M  V30 11 1 10 12
M  V30 12 1 12 13
M  V30 13 1 13 14
M  V30 14 2 14 15
M  V30 15 2 14 16
M  V30 16 1 14 17
M  V30 17 2 17 18
M  V30 18 1 18 19
M  V30 19 2 19 20
M  V30 20 1 20 21
M  V30 21 1 20 22
M  V30 22 2 22 23
M  V30 23 2 12 24
M  V30 24 1 6 25
M  V30 25 2 25 26
M  V30 26 1 26 27
M  V30 27 2 27 28
M  V30 28 1 28 2
M  V30 29 1 27 4
M  V30 30 1 24 7
M  V30 31 1 23 17
M  V30 32 1 1 29
M  V30 33 1 1 30
M  V30 34 1 3 31
M  V30 35 1 8 32
M  V30 36 1 13 33
M  V30 37 1 18 34
M  V30 38 1 19 35
M  V30 39 1 22 36
M  V30 40 1 23 37
M  V30 41 1 24 38
M  V30 42 1 25 39
M  V30 43 1 26 40
M  V30 END BOND
M  V30 END CTAB
M  END
>  <Dataset>  (997) 
ChEMBL_Kinases

>  <Ligand_Instance>  (997) 
nan

>  <PDB_ID>  (997) 
nan

>  <Standardized_SMILES>  (997) 
Nc1cn2nc(-c3cnc(Cl)c(NS(=O)(=O)c4ccc(F)cc4)c3)ccc2n1

>  <Name>  (997) 
nan

>  <Pocket>  (997) 
nan

>  <ATP_Site>  (997) 
nan

>  <Peripheral>  (997) 
nan

>  <Num_H_Atoms_ProtBoundConf>  (997) 
nan

>  <Num_Resolved_Atoms>  (997) 
nan

>  <Num_Not_Resolved_Atoms>  (997) 
nan

$$$$
CHEMBL1822054
     RDKit          3D

  0  0  0  0  0  0  0  0  0  0999 V3000
M  V30 BEGIN CTAB
M  V30 COUNTS 45 48 0 0 0
M  V30 BEGIN ATOM
M  V30 1 C 5.703263 -4.517651 5.641843 0
M  V30 2 C 4.772441 -3.887602 4.670451 0
M  V30 3 O 3.605694 -3.560604 5.017148 0
M  V30 4 N 5.214584 -3.656572 3.339048 0
M  V30 5 C 4.191155 -3.040235 2.529108 0
M  V30 6 C 4.014434 -1.675815 2.394230 0
M  V30 7 N 2.963932 -1.482305 1.561084 0
M  V30 8 N 2.439077 -0.327572 1.149047 0
M  V30 9 C 1.386290 -0.276781 0.313583 0
M  V30 10 C 0.886072 1.038025 -0.078072 0
M  V30 11 C 1.526633 2.147144 0.435064 0
M  V30 12 N 1.088831 3.372609 0.092574 0
M  V30 13 C 0.046669 3.544610 -0.733948 0
M  V30 14 Cl -0.447987 5.177580 -1.119796 0
M  V30 15 C -0.659487 2.480445 -1.298809 0
M  V30 16 N -1.760444 2.652650 -2.179020 0
M  V30 17 S -2.883538 1.457781 -2.672199 0
M  V30 18 O -2.193453 0.349605 -3.421775 0
M  V30 19 O -3.869891 2.087392 -3.626977 0
M  V30 20 C -3.784153 0.807124 -1.316041 0
M  V30 21 C -4.935138 1.516068 -0.948887 0
M  V30 22 C -5.761139 1.147792 0.085630 0
M  V30 23 C -5.471186 0.031225 0.817723 0
M  V30 24 F -6.203047 -0.431561 1.854453 0
M  V30 25 C -4.345729 -0.670397 0.465957 0
M  V30 26 C -3.527369 -0.301412 -0.562745 0
M  V30 27 C -0.182009 1.244453 -0.925110 0
M  V30 28 C 0.860397 -1.479999 -0.108628 0
M  V30 29 C 1.403812 -2.680566 0.317953 0
M  V30 30 C 2.485707 -2.681351 1.176712 0
M  V30 31 N 3.232073 -3.635439 1.765414 0
M  V30 32 H 5.185883 -4.868705 6.551548 0
M  V30 33 H 6.204237 -5.356158 5.120946 0
M  V30 34 H 6.482443 -3.810174 5.940189 0
M  V30 35 H 6.207361 -3.950761 3.098011 0
M  V30 36 H 4.617398 -0.909348 2.875920 0
M  V30 37 H 2.378933 2.110666 1.111542 0
M  V30 38 H -1.852395 3.649403 -2.543318 0
M  V30 39 H -5.239780 2.418686 -1.480232 0
M  V30 40 H -6.641074 1.720271 0.339500 0
M  V30 41 H -4.049559 -1.572345 1.004049 0
M  V30 42 H -2.643191 -0.840519 -0.855226 0
M  V30 43 H -0.653106 0.369316 -1.307876 0
M  V30 44 H 0.029295 -1.467499 -0.768291 0
M  V30 45 H 1.005896 -3.614483 -0.001634 0
M  V30 END ATOM
M  V30 BEGIN BOND
M  V30 1 1 1 2
M  V30 2 2 2 3
M  V30 3 1 2 4
M  V30 4 1 4 5
M  V30 5 2 5 6
M  V30 6 1 6 7
M  V30 7 1 7 8
M  V30 8 2 8 9
M  V30 9 1 9 10
M  V30 10 2 10 11
M  V30 11 1 11 12
M  V30 12 2 12 13
M  V30 13 1 13 14
M  V30 14 1 13 15
M  V30 15 1 15 16
M  V30 16 1 16 17
M  V30 17 2 17 18
M  V30 18 2 17 19
M  V30 19 1 17 20
M  V30 20 2 20 21
M  V30 21 1 21 22
M  V30 22 2 22 23
M  V30 23 1 23 24
M  V30 24 1 23 25
M  V30 25 2 25 26
M  V30 26 2 15 27
M  V30 27 1 9 28
M  V30 28 2 28 29
M  V30 29 1 29 30
M  V30 30 2 30 31
M  V30 31 1 31 5
M  V30 32 1 30 7
M  V30 33 1 27 10
M  V30 34 1 26 20
M  V30 35 1 1 32
M  V30 36 1 1 33
M  V30 37 1 1 34
M  V30 38 1 4 35
M  V30 39 1 6 36
M  V30 40 1 11 37
M  V30 41 1 16 38
M  V30 42 1 21 39
M  V30 43 1 22 40
M  V30 44 1 25 41
M  V30 45 1 26 42
M  V30 46 1 27 43
M  V30 47 1 28 44
M  V30 48 1 29 45
M  V30 END BOND
M  V30 END CTAB
M  END
>  <Dataset>  (998) 
ChEMBL_Kinases

>  <Ligand_Instance>  (998) 
nan

>  <PDB_ID>  (998) 
nan

>  <Standardized_SMILES>  (998) 
CC(=O)Nc1cn2nc(-c3cnc(Cl)c(NS(=O)(=O)c4ccc(F)cc4)c3)ccc2n1

>  <Name>  (998) 
nan

>  <Pocket>  (998) 
nan

>  <ATP_Site>  (998) 
nan

>  <Peripheral>  (998) 
nan

>  <Num_H_Atoms_ProtBoundConf>  (998) 
nan

>  <Num_Resolved_Atoms>  (998) 
nan

>  <Num_Not_Resolved_Atoms>  (998) 
nan

$$$$
CHEMBL1822053
     RDKit          3D

  0  0  0  0  0  0  0  0  0  0999 V3000
M  V30 BEGIN CTAB
M  V30 COUNTS 38 41 0 0 0
M  V30 BEGIN ATOM
M  V30 1 O 1.194944 -3.431439 4.572455 0
M  V30 2 S 0.899904 -2.530465 3.404767 0
M  V30 3 O 0.575045 -1.169120 3.991586 0
M  V30 4 N 2.298964 -2.365296 2.433800 0
M  V30 5 C 2.483446 -1.502860 1.332590 0
M  V30 6 C 1.619421 -0.485927 0.993057 0
M  V30 7 C 1.745984 0.389070 -0.063683 0
M  V30 8 C 0.791609 1.425972 -0.346216 0
M  V30 9 C -0.567682 1.403698 -0.117535 0
M  V30 10 C -1.459856 2.411865 -0.397491 0
M  V30 11 C -0.986996 3.598980 -0.972921 0
M  V30 12 N -1.586247 4.708936 -1.342612 0
M  V30 13 C -1.206933 5.667840 -1.806733 0
M  V30 14 S 0.645544 5.251085 -1.930655 0
M  V30 15 C 0.360047 3.629640 -1.203234 0
M  V30 16 C 1.253833 2.595448 -0.912562 0
M  V30 17 C 2.858845 0.220344 -0.859024 0
M  V30 18 N 3.730942 -0.746105 -0.580762 0
M  V30 19 C 3.564436 -1.574102 0.460059 0
M  V30 20 Cl 4.774637 -2.830293 0.754759 0
M  V30 21 C -0.500427 -3.069596 2.521828 0
M  V30 22 C -0.557366 -4.462600 2.441792 0
M  V30 23 C -1.587839 -5.118805 1.788108 0
M  V30 24 C -2.581173 -4.363742 1.202919 0
M  V30 25 F -3.636478 -4.882650 0.538495 0
M  V30 26 C -2.538943 -2.983296 1.273599 0
M  V30 27 C -1.511670 -2.350977 1.924617 0
M  V30 28 H 3.138057 -2.956962 2.651115 0
M  V30 29 H 0.728889 -0.320439 1.603194 0
M  V30 30 H -0.950555 0.473732 0.335083 0
M  V30 31 H -2.508072 2.263945 -0.166219 0
M  V30 32 H -2.118893 6.509100 -2.013029 0
M  V30 33 H 2.253691 2.836910 -1.175689 0
M  V30 34 H 3.016190 0.876353 -1.706242 0
M  V30 35 H 0.166292 -5.173629 2.862684 0
M  V30 36 H -1.679378 -6.181285 1.697208 0
M  V30 37 H -3.259123 -2.284588 0.854842 0
M  V30 38 H -1.388369 -1.299876 2.038231 0
M  V30 END ATOM
M  V30 BEGIN BOND
M  V30 1 2 1 2
M  V30 2 2 2 3
M  V30 3 1 2 4
M  V30 4 1 4 5
M  V30 5 2 5 6
M  V30 6 1 6 7
M  V30 7 1 7 8
M  V30 8 2 8 9
M  V30 9 1 9 10
M  V30 10 2 10 11
M  V30 11 1 11 12
M  V30 12 2 12 13
M  V30 13 1 13 14
M  V30 14 1 14 15
M  V30 15 2 15 16
M  V30 16 2 7 17
M  V30 17 1 17 18
M  V30 18 2 18 19
M  V30 19 1 19 20
M  V30 20 1 2 21
M  V30 21 2 21 22
M  V30 22 1 22 23
M  V30 23 2 23 24
M  V30 24 1 24 25
M  V30 25 1 24 26
M  V30 26 2 26 27
M  V30 27 1 19 5
M  V30 28 1 27 21
M  V30 29 1 16 8
M  V30 30 1 15 11
M  V30 31 1 4 28
M  V30 32 1 6 29
M  V30 33 1 9 30
M  V30 34 1 10 31
M  V30 35 1 13 32
M  V30 36 1 16 33
M  V30 37 1 17 34
M  V30 38 1 22 35
M  V30 39 1 23 36
M  V30 40 1 26 37
M  V30 41 1 27 38
M  V30 END BOND
M  V30 END CTAB
M  END
>  <Dataset>  (999) 
ChEMBL_Kinases

>  <Ligand_Instance>  (999) 
nan

>  <PDB_ID>  (999) 
nan

>  <Standardized_SMILES>  (999) 
O=S(=O)(Nc1cc(-c2ccc3ncsc3c2)cnc1Cl)c1ccc(F)cc1

>  <Name>  (999) 
nan

>  <Pocket>  (999) 
nan

>  <ATP_Site>  (999) 
nan

>  <Peripheral>  (999) 
nan

>  <Num_H_Atoms_ProtBoundConf>  (999) 
nan

>  <Num_Resolved_Atoms>  (999) 
nan

>  <Num_Not_Resolved_Atoms>  (999) 
nan

$$$$
